data_image0
_cell_length_a       16.0539
_cell_length_b       33.204
_cell_length_c       17.1178
_cell_angle_alpha    90
_cell_angle_beta     90
_cell_angle_gamma    90

_symmetry_space_group_name_H-M    "P 1"
_symmetry_int_tables_number       1

loop_
  _symmetry_equiv_pos_as_xyz
  'x, y, z'

loop_
  _atom_site_label
  _atom_site_occupancy
  _atom_site_fract_x
  _atom_site_fract_y
  _atom_site_fract_z
  _atom_site_thermal_displace_type
  _atom_site_B_iso_or_equiv
  _atom_site_type_symbol
  Tb1      1.0000 0.51695  0.05548  0.94707  Biso   1.000  Tb
  Zn1      1.0000 0.72371  0.16036  0.43238  Biso   1.000  Zn
  Zn2      1.0000 0.43365  0.16925  0.67667  Biso   1.000  Zn
  Zn3      1.0000 0.23713  0.00931  0.71333  Biso   1.000  Zn
  O1       1.0000 0.84490  0.20520  0.23410  Biso   1.000  O
  O2       1.0000 0.80260  0.16270  0.32240  Biso   1.000  O
  O3       1.0000 0.62520  0.17760  0.35260  Biso   1.000  O
  O4       1.0000 0.50060  0.20670  0.34940  Biso   1.000  O
  O5       1.0000 0.36160  0.18980  0.58160  Biso   1.000  O
  O6       1.0000 0.36930  0.20650  0.45860  Biso   1.000  O
  O7       1.0000 0.53600  0.08990  0.83500  Biso   1.000  O
  O8       1.0000 0.51340  0.14470  0.76510  Biso   1.000  O
  O9       1.0000 0.44020  0.01720  0.85800  Biso   1.000  O
  O10      1.0000 0.32740  0.99520  0.80020  Biso   1.000  O
  O11      1.0000 0.14180  0.02040  0.61540  Biso   1.000  O
  O12      1.0000 0.06820  0.98540  0.53170  Biso   1.000  O
  O13      1.0000 0.10550  0.91160  0.45250  Biso   1.000  O
  O14      1.0000 0.18500  0.85960  0.48370  Biso   1.000  O
  N1       1.0000 0.77110  0.21720  0.42840  Biso   1.000  N
  N2       1.0000 0.62410  0.16920  0.50780  Biso   1.000  N
  N3       1.0000 0.52230  0.17540  0.59450  Biso   1.000  N
  N4       1.0000 0.37490  0.11670  0.69860  Biso   1.000  N
  N5       1.0000 0.30530  0.05980  0.71090  Biso   1.000  N
  N6       1.0000 0.24880  0.96080  0.64690  Biso   1.000  N
  N7       1.0000 0.26830  0.90100  0.59110  Biso   1.000  N
  C1       1.0000 0.81840  0.19750  0.30120  Biso   1.000  C
  C2       1.0000 0.79810  0.22860  0.36220  Biso   1.000  C
  C3       1.0000 0.55890  0.19110  0.38490  Biso   1.000  C
  C4       1.0000 0.55400  0.18350  0.47010  Biso   1.000  C
  C5       1.0000 0.49190  0.18720  0.52290  Biso   1.000  C
  C6       1.0000 0.40120  0.19570  0.51860  Biso   1.000  C
  C7       1.0000 0.60330  0.16580  0.58230  Biso   1.000  C
  C8       1.0000 0.66350  0.15460  0.64660  Biso   1.000  C
  H1       1.0000 0.63640  0.13710  0.68310  Biso   1.000  H
  H2       1.0000 0.68160  0.17860  0.67310  Biso   1.000  H
  H3       1.0000 0.71090  0.14120  0.62450  Biso   1.000  H
  C9       1.0000 0.49320  0.11020  0.78780  Biso   1.000  C
  C10      1.0000 0.41600  0.09370  0.75430  Biso   1.000  C
  C11      1.0000 0.37340  0.05850  0.76130  Biso   1.000  C
  C12      1.0000 0.38180  0.02160  0.81070  Biso   1.000  C
  C13      1.0000 0.30960  0.09510  0.67700  Biso   1.000  C
  C14      1.0000 0.24840  0.11020  0.62170  Biso   1.000  C
  H4       1.0000 0.20250  0.12180  0.64960  Biso   1.000  H
  H5       1.0000 0.22880  0.08850  0.58970  Biso   1.000  H
  H6       1.0000 0.27370  0.13040  0.58910  Biso   1.000  H
  C15      1.0000 0.12900  0.98810  0.57660  Biso   1.000  C
  C16      1.0000 0.19030  0.95660  0.58670  Biso   1.000  C
  C17      1.0000 0.20330  0.91860  0.55420  Biso   1.000  C
  C18      1.0000 0.16120  0.89490  0.49400  Biso   1.000  C
  C19      1.0000 0.29180  0.92680  0.64730  Biso   1.000  C
  C20      1.0000 0.36410  0.91840  0.70080  Biso   1.000  C
  H7       1.0000 0.36510  0.93810  0.74190  Biso   1.000  H
  H8       1.0000 0.41510  0.91980  0.67170  Biso   1.000  H
  H9       1.0000 0.35820  0.89200  0.72290  Biso   1.000  H
  N8       1.0000 0.14610  0.01870  0.79480  Biso   1.000  N
  C21      1.0000 0.16510  0.04780  0.85040  Biso   1.000  C
  H10      1.0000 0.21710  0.06010  0.85030  Biso   1.000  H
  C22      1.0000 0.10620  0.05860  0.90610  Biso   1.000  C
  H11      1.0000 0.11890  0.07800  0.94330  Biso   1.000  H
  C23      1.0000 0.02840  0.04020  0.90630  Biso   1.000  C
  C24      1.0000 0.00940  0.01110  0.85070  Biso   1.000  C
  H12      1.0000 0.95730  0.99880  0.85080  Biso   1.000  H
  C25      1.0000 0.06830  0.00030  0.79500  Biso   1.000  C
  H13      1.0000 0.05560  0.98090  0.75780  Biso   1.000  H
  N9       1.0000 0.84530  0.07620  0.07560  Biso   1.000  N
  C26      1.0000 0.91990  0.09710  0.06840  Biso   1.000  C
  H14      1.0000 0.93040  0.11930  0.10020  Biso   1.000  H
  C27      1.0000 0.97880  0.08500  0.01370  Biso   1.000  C
  H15      1.0000 0.02870  0.09900  0.00890  Biso   1.000  H
  C28      1.0000 0.96300  0.05190  0.96630  Biso   1.000  C
  C29      1.0000 0.88850  0.03090  0.97350  Biso   1.000  C
  H16      1.0000 0.87790  0.00880  0.94170  Biso   1.000  H
  C30      1.0000 0.82960  0.04310  0.02810  Biso   1.000  C
  H17      1.0000 0.77970  0.02910  0.03290  Biso   1.000  H
  H18      1.0000 0.76700  0.23850  0.58570  Biso   1.000  H
  H19      1.0000 0.67490  0.23430  0.55640  Biso   1.000  H
  H20      1.0000 0.71390  0.27720  0.56880  Biso   1.000  H
  Tb2      1.0000 0.98305  0.94452  0.44707  Biso   1.000  Tb
  Zn4      1.0000 0.77629  0.83964  0.93238  Biso   1.000  Zn
  Zn5      1.0000 0.06635  0.83075  0.17667  Biso   1.000  Zn
  Zn6      1.0000 0.26287  0.99069  0.21333  Biso   1.000  Zn
  O15      1.0000 0.65510  0.79480  0.73410  Biso   1.000  O
  O16      1.0000 0.69740  0.83730  0.82240  Biso   1.000  O
  O17      1.0000 0.87480  0.82240  0.85260  Biso   1.000  O
  O18      1.0000 0.99940  0.79330  0.84940  Biso   1.000  O
  O19      1.0000 0.13840  0.81020  0.08160  Biso   1.000  O
  O20      1.0000 0.13070  0.79350  0.95860  Biso   1.000  O
  O21      1.0000 0.96400  0.91010  0.33500  Biso   1.000  O
  O22      1.0000 0.98660  0.85530  0.26510  Biso   1.000  O
  O23      1.0000 0.05980  0.98280  0.35800  Biso   1.000  O
  O24      1.0000 0.17260  0.00480  0.30020  Biso   1.000  O
  O25      1.0000 0.35820  0.97960  0.11540  Biso   1.000  O
  O26      1.0000 0.43180  0.01460  0.03170  Biso   1.000  O
  O27      1.0000 0.39450  0.08840  0.95250  Biso   1.000  O
  O28      1.0000 0.31500  0.14040  0.98370  Biso   1.000  O
  N10      1.0000 0.72890  0.78280  0.92840  Biso   1.000  N
  N11      1.0000 0.87590  0.83080  0.00780  Biso   1.000  N
  N12      1.0000 0.97770  0.82460  0.09450  Biso   1.000  N
  N13      1.0000 0.12510  0.88330  0.19860  Biso   1.000  N
  N14      1.0000 0.19470  0.94020  0.21090  Biso   1.000  N
  N15      1.0000 0.25120  0.03920  0.14690  Biso   1.000  N
  N16      1.0000 0.23170  0.09900  0.09110  Biso   1.000  N
  C31      1.0000 0.68160  0.80250  0.80120  Biso   1.000  C
  C32      1.0000 0.70190  0.77140  0.86220  Biso   1.000  C
  C33      1.0000 0.94110  0.80890  0.88490  Biso   1.000  C
  C34      1.0000 0.94600  0.81650  0.97010  Biso   1.000  C
  C35      1.0000 0.00810  0.81280  0.02290  Biso   1.000  C
  C36      1.0000 0.09880  0.80430  0.01860  Biso   1.000  C
  C37      1.0000 0.89670  0.83420  0.08230  Biso   1.000  C
  C38      1.0000 0.83650  0.84540  0.14660  Biso   1.000  C
  H21      1.0000 0.86360  0.86290  0.18310  Biso   1.000  H
  H22      1.0000 0.81840  0.82140  0.17310  Biso   1.000  H
  H23      1.0000 0.78910  0.85880  0.12450  Biso   1.000  H
  C39      1.0000 0.00680  0.88980  0.28780  Biso   1.000  C
  C40      1.0000 0.08400  0.90630  0.25430  Biso   1.000  C
  C41      1.0000 0.12660  0.94150  0.26130  Biso   1.000  C
  C42      1.0000 0.11820  0.97840  0.31070  Biso   1.000  C
  C43      1.0000 0.19040  0.90490  0.17700  Biso   1.000  C
  C44      1.0000 0.25160  0.88980  0.12170  Biso   1.000  C
  H24      1.0000 0.29750  0.87820  0.14960  Biso   1.000  H
  H25      1.0000 0.27120  0.91150  0.08970  Biso   1.000  H
  H26      1.0000 0.22630  0.86960  0.08910  Biso   1.000  H
  C45      1.0000 0.37100  0.01190  0.07660  Biso   1.000  C
  C46      1.0000 0.30970  0.04340  0.08670  Biso   1.000  C
  C47      1.0000 0.29670  0.08140  0.05420  Biso   1.000  C
  C48      1.0000 0.33880  0.10510  0.99400  Biso   1.000  C
  C49      1.0000 0.20820  0.07320  0.14730  Biso   1.000  C
  C50      1.0000 0.13590  0.08160  0.20080  Biso   1.000  C
  H27      1.0000 0.13490  0.06190  0.24190  Biso   1.000  H
  H28      1.0000 0.08490  0.08020  0.17170  Biso   1.000  H
  H29      1.0000 0.14180  0.10800  0.22290  Biso   1.000  H
  N17      1.0000 0.35390  0.98130  0.29480  Biso   1.000  N
  C51      1.0000 0.33490  0.95220  0.35040  Biso   1.000  C
  H30      1.0000 0.28290  0.93990  0.35030  Biso   1.000  H
  C52      1.0000 0.39380  0.94140  0.40610  Biso   1.000  C
  H31      1.0000 0.38110  0.92200  0.44330  Biso   1.000  H
  C53      1.0000 0.47160  0.95980  0.40630  Biso   1.000  C
  C54      1.0000 0.49060  0.98890  0.35070  Biso   1.000  C
  H32      1.0000 0.54270  0.00120  0.35080  Biso   1.000  H
  C55      1.0000 0.43170  0.99970  0.29500  Biso   1.000  C
  H33      1.0000 0.44440  0.01910  0.25780  Biso   1.000  H
  N18      1.0000 0.65470  0.92380  0.57560  Biso   1.000  N
  C56      1.0000 0.58010  0.90290  0.56840  Biso   1.000  C
  H34      1.0000 0.56960  0.88070  0.60020  Biso   1.000  H
  C57      1.0000 0.52120  0.91500  0.51370  Biso   1.000  C
  H35      1.0000 0.47130  0.90100  0.50890  Biso   1.000  H
  C58      1.0000 0.53700  0.94810  0.46630  Biso   1.000  C
  C59      1.0000 0.61150  0.96910  0.47350  Biso   1.000  C
  H36      1.0000 0.62210  0.99120  0.44170  Biso   1.000  H
  C60      1.0000 0.67040  0.95690  0.52810  Biso   1.000  C
  H37      1.0000 0.72030  0.97090  0.53290  Biso   1.000  H
  H38      1.0000 0.73300  0.76150  0.08570  Biso   1.000  H
  H39      1.0000 0.82510  0.76570  0.05640  Biso   1.000  H
  H40      1.0000 0.78610  0.72280  0.06880  Biso   1.000  H
  Tb3      1.0000 0.48305  0.55548  0.05293  Biso   1.000  Tb
  Zn7      1.0000 0.27629  0.66036  0.56762  Biso   1.000  Zn
  Zn8      1.0000 0.56635  0.66925  0.32333  Biso   1.000  Zn
  Zn9      1.0000 0.76287  0.50931  0.28667  Biso   1.000  Zn
  O29      1.0000 0.15510  0.70520  0.76590  Biso   1.000  O
  O30      1.0000 0.19740  0.66270  0.67760  Biso   1.000  O
  O31      1.0000 0.37480  0.67760  0.64740  Biso   1.000  O
  O32      1.0000 0.49940  0.70670  0.65060  Biso   1.000  O
  O33      1.0000 0.63840  0.68980  0.41840  Biso   1.000  O
  O34      1.0000 0.63070  0.70650  0.54140  Biso   1.000  O
  O35      1.0000 0.46400  0.58990  0.16500  Biso   1.000  O
  O36      1.0000 0.48660  0.64470  0.23490  Biso   1.000  O
  O37      1.0000 0.55980  0.51720  0.14200  Biso   1.000  O
  O38      1.0000 0.67260  0.49520  0.19980  Biso   1.000  O
  O39      1.0000 0.85820  0.52040  0.38460  Biso   1.000  O
  O40      1.0000 0.93180  0.48540  0.46830  Biso   1.000  O
  O41      1.0000 0.89450  0.41160  0.54750  Biso   1.000  O
  O42      1.0000 0.81500  0.35960  0.51630  Biso   1.000  O
  N19      1.0000 0.22890  0.71720  0.57160  Biso   1.000  N
  N20      1.0000 0.37590  0.66920  0.49220  Biso   1.000  N
  N21      1.0000 0.47770  0.67540  0.40550  Biso   1.000  N
  N22      1.0000 0.62510  0.61670  0.30140  Biso   1.000  N
  N23      1.0000 0.69470  0.55980  0.28910  Biso   1.000  N
  N24      1.0000 0.75120  0.46080  0.35310  Biso   1.000  N
  N25      1.0000 0.73170  0.40100  0.40890  Biso   1.000  N
  C61      1.0000 0.18160  0.69750  0.69880  Biso   1.000  C
  C62      1.0000 0.20190  0.72860  0.63780  Biso   1.000  C
  C63      1.0000 0.44110  0.69110  0.61510  Biso   1.000  C
  C64      1.0000 0.44600  0.68350  0.52990  Biso   1.000  C
  C65      1.0000 0.50810  0.68720  0.47710  Biso   1.000  C
  C66      1.0000 0.59880  0.69570  0.48140  Biso   1.000  C
  C67      1.0000 0.39670  0.66580  0.41770  Biso   1.000  C
  C68      1.0000 0.33650  0.65460  0.35340  Biso   1.000  C
  H41      1.0000 0.36360  0.63710  0.31690  Biso   1.000  H
  H42      1.0000 0.31840  0.67860  0.32690  Biso   1.000  H
  H43      1.0000 0.28910  0.64120  0.37550  Biso   1.000  H
  C69      1.0000 0.50680  0.61020  0.21220  Biso   1.000  C
  C70      1.0000 0.58400  0.59370  0.24570  Biso   1.000  C
  C71      1.0000 0.62660  0.55850  0.23870  Biso   1.000  C
  C72      1.0000 0.61820  0.52160  0.18930  Biso   1.000  C
  C73      1.0000 0.69040  0.59510  0.32300  Biso   1.000  C
  C74      1.0000 0.75160  0.61020  0.37830  Biso   1.000  C
  H44      1.0000 0.79750  0.62180  0.35040  Biso   1.000  H
  H45      1.0000 0.77120  0.58850  0.41030  Biso   1.000  H
  H46      1.0000 0.72630  0.63040  0.41090  Biso   1.000  H
  C75      1.0000 0.87100  0.48810  0.42340  Biso   1.000  C
  C76      1.0000 0.80970  0.45660  0.41330  Biso   1.000  C
  C77      1.0000 0.79670  0.41860  0.44580  Biso   1.000  C
  C78      1.0000 0.83880  0.39490  0.50600  Biso   1.000  C
  C79      1.0000 0.70820  0.42680  0.35270  Biso   1.000  C
  C80      1.0000 0.63590  0.41840  0.29920  Biso   1.000  C
  H47      1.0000 0.63490  0.43810  0.25810  Biso   1.000  H
  H48      1.0000 0.58490  0.41980  0.32830  Biso   1.000  H
  H49      1.0000 0.64180  0.39200  0.27710  Biso   1.000  H
  N26      1.0000 0.85390  0.51870  0.20520  Biso   1.000  N
  C81      1.0000 0.83490  0.54780  0.14960  Biso   1.000  C
  H50      1.0000 0.78290  0.56010  0.14970  Biso   1.000  H
  C82      1.0000 0.89380  0.55860  0.09390  Biso   1.000  C
  H51      1.0000 0.88110  0.57800  0.05670  Biso   1.000  H
  C83      1.0000 0.97160  0.54020  0.09370  Biso   1.000  C
  C84      1.0000 0.99060  0.51110  0.14930  Biso   1.000  C
  H52      1.0000 0.04270  0.49880  0.14920  Biso   1.000  H
  C85      1.0000 0.93170  0.50030  0.20500  Biso   1.000  C
  H53      1.0000 0.94440  0.48090  0.24220  Biso   1.000  H
  N27      1.0000 0.15470  0.57620  0.92440  Biso   1.000  N
  C86      1.0000 0.08010  0.59710  0.93160  Biso   1.000  C
  H54      1.0000 0.06960  0.61930  0.89980  Biso   1.000  H
  C87      1.0000 0.02120  0.58500  0.98630  Biso   1.000  C
  H55      1.0000 0.97130  0.59900  0.99110  Biso   1.000  H
  C88      1.0000 0.03700  0.55190  0.03370  Biso   1.000  C
  C89      1.0000 0.11150  0.53090  0.02650  Biso   1.000  C
  H56      1.0000 0.12210  0.50880  0.05830  Biso   1.000  H
  C90      1.0000 0.17040  0.54310  0.97190  Biso   1.000  C
  H57      1.0000 0.22030  0.52910  0.96710  Biso   1.000  H
  H58      1.0000 0.23300  0.73850  0.41430  Biso   1.000  H
  H59      1.0000 0.32510  0.73430  0.44360  Biso   1.000  H
  H60      1.0000 0.28610  0.77720  0.43120  Biso   1.000  H
  Tb4      1.0000 0.01695  0.44452  0.55293  Biso   1.000  Tb
  Zn10     1.0000 0.22371  0.33964  0.06762  Biso   1.000  Zn
  Zn11     1.0000 0.93365  0.33075  0.82333  Biso   1.000  Zn
  Zn12     1.0000 0.73713  0.49069  0.78667  Biso   1.000  Zn
  O43      1.0000 0.34490  0.29480  0.26590  Biso   1.000  O
  O44      1.0000 0.30260  0.33730  0.17760  Biso   1.000  O
  O45      1.0000 0.12520  0.32240  0.14740  Biso   1.000  O
  O46      1.0000 0.00060  0.29330  0.15060  Biso   1.000  O
  O47      1.0000 0.86160  0.31020  0.91840  Biso   1.000  O
  O48      1.0000 0.86930  0.29350  0.04140  Biso   1.000  O
  O49      1.0000 0.03600  0.41010  0.66500  Biso   1.000  O
  O50      1.0000 0.01340  0.35530  0.73490  Biso   1.000  O
  O51      1.0000 0.94020  0.48280  0.64200  Biso   1.000  O
  O52      1.0000 0.82740  0.50480  0.69980  Biso   1.000  O
  O53      1.0000 0.64180  0.47960  0.88460  Biso   1.000  O
  O54      1.0000 0.56820  0.51460  0.96830  Biso   1.000  O
  O55      1.0000 0.60550  0.58840  0.04750  Biso   1.000  O
  O56      1.0000 0.68500  0.64040  0.01630  Biso   1.000  O
  N28      1.0000 0.27110  0.28280  0.07160  Biso   1.000  N
  N29      1.0000 0.12410  0.33080  0.99220  Biso   1.000  N
  N30      1.0000 0.02230  0.32460  0.90550  Biso   1.000  N
  N31      1.0000 0.87490  0.38330  0.80140  Biso   1.000  N
  N32      1.0000 0.80530  0.44020  0.78910  Biso   1.000  N
  N33      1.0000 0.74880  0.53920  0.85310  Biso   1.000  N
  N34      1.0000 0.76830  0.59900  0.90890  Biso   1.000  N
  C91      1.0000 0.31840  0.30250  0.19880  Biso   1.000  C
  C92      1.0000 0.29810  0.27140  0.13780  Biso   1.000  C
  C93      1.0000 0.05890  0.30890  0.11510  Biso   1.000  C
  C94      1.0000 0.05400  0.31650  0.02990  Biso   1.000  C
  C95      1.0000 0.99190  0.31280  0.97710  Biso   1.000  C
  C96      1.0000 0.90120  0.30430  0.98140  Biso   1.000  C
  C97      1.0000 0.10330  0.33420  0.91770  Biso   1.000  C
  C98      1.0000 0.16350  0.34540  0.85340  Biso   1.000  C
  H61      1.0000 0.13640  0.36290  0.81690  Biso   1.000  H
  H62      1.0000 0.18160  0.32140  0.82690  Biso   1.000  H
  H63      1.0000 0.21090  0.35880  0.87550  Biso   1.000  H
  C99      1.0000 0.99320  0.38980  0.71220  Biso   1.000  C
  C100     1.0000 0.91600  0.40630  0.74570  Biso   1.000  C
  C101     1.0000 0.87340  0.44150  0.73870  Biso   1.000  C
  C102     1.0000 0.88180  0.47840  0.68930  Biso   1.000  C
  C103     1.0000 0.80960  0.40490  0.82300  Biso   1.000  C
  C104     1.0000 0.74840  0.38980  0.87830  Biso   1.000  C
  H64      1.0000 0.70250  0.37820  0.85040  Biso   1.000  H
  H65      1.0000 0.72880  0.41150  0.91030  Biso   1.000  H
  H66      1.0000 0.77370  0.36960  0.91090  Biso   1.000  H
  C105     1.0000 0.62900  0.51190  0.92340  Biso   1.000  C
  C106     1.0000 0.69030  0.54340  0.91330  Biso   1.000  C
  C107     1.0000 0.70330  0.58140  0.94580  Biso   1.000  C
  C108     1.0000 0.66120  0.60510  0.00600  Biso   1.000  C
  C109     1.0000 0.79180  0.57320  0.85270  Biso   1.000  C
  C110     1.0000 0.86410  0.58160  0.79920  Biso   1.000  C
  H67      1.0000 0.86510  0.56190  0.75810  Biso   1.000  H
  H68      1.0000 0.91510  0.58020  0.82830  Biso   1.000  H
  H69      1.0000 0.85820  0.60800  0.77710  Biso   1.000  H
  N35      1.0000 0.64610  0.48130  0.70520  Biso   1.000  N
  C111     1.0000 0.66510  0.45220  0.64960  Biso   1.000  C
  H70      1.0000 0.71710  0.43990  0.64970  Biso   1.000  H
  C112     1.0000 0.60620  0.44140  0.59390  Biso   1.000  C
  H71      1.0000 0.61890  0.42200  0.55670  Biso   1.000  H
  C113     1.0000 0.52840  0.45980  0.59370  Biso   1.000  C
  C114     1.0000 0.50940  0.48890  0.64930  Biso   1.000  C
  H72      1.0000 0.45730  0.50120  0.64920  Biso   1.000  H
  C115     1.0000 0.56830  0.49970  0.70500  Biso   1.000  C
  H73      1.0000 0.55560  0.51910  0.74220  Biso   1.000  H
  N36      1.0000 0.34530  0.42380  0.42440  Biso   1.000  N
  C116     1.0000 0.41990  0.40290  0.43160  Biso   1.000  C
  H74      1.0000 0.43040  0.38070  0.39980  Biso   1.000  H
  C117     1.0000 0.47880  0.41500  0.48630  Biso   1.000  C
  H75      1.0000 0.52870  0.40100  0.49110  Biso   1.000  H
  C118     1.0000 0.46300  0.44810  0.53370  Biso   1.000  C
  C119     1.0000 0.38850  0.46910  0.52650  Biso   1.000  C
  H76      1.0000 0.37790  0.49120  0.55830  Biso   1.000  H
  C120     1.0000 0.32960  0.45690  0.47190  Biso   1.000  C
  H77      1.0000 0.27970  0.47090  0.46710  Biso   1.000  H
  H78      1.0000 0.26700  0.26150  0.91430  Biso   1.000  H
  H79      1.0000 0.17490  0.26570  0.94360  Biso   1.000  H
  H80      1.0000 0.21390  0.22280  0.93120  Biso   1.000  H
  Tb5      1.0000 0.48305  0.94452  0.05293  Biso   1.000  Tb
  Zn13     1.0000 0.27629  0.83964  0.56762  Biso   1.000  Zn
  Zn14     1.0000 0.56635  0.83075  0.32333  Biso   1.000  Zn
  Zn15     1.0000 0.76287  0.99069  0.28667  Biso   1.000  Zn
  O57      1.0000 0.15510  0.79480  0.76590  Biso   1.000  O
  O58      1.0000 0.19740  0.83730  0.67760  Biso   1.000  O
  O59      1.0000 0.37480  0.82240  0.64740  Biso   1.000  O
  O60      1.0000 0.49940  0.79330  0.65060  Biso   1.000  O
  O61      1.0000 0.63840  0.81020  0.41840  Biso   1.000  O
  O62      1.0000 0.63070  0.79350  0.54140  Biso   1.000  O
  O63      1.0000 0.46400  0.91010  0.16500  Biso   1.000  O
  O64      1.0000 0.48660  0.85530  0.23490  Biso   1.000  O
  O65      1.0000 0.55980  0.98280  0.14200  Biso   1.000  O
  O66      1.0000 0.67260  0.00480  0.19980  Biso   1.000  O
  O67      1.0000 0.85820  0.97960  0.38460  Biso   1.000  O
  O68      1.0000 0.93180  0.01460  0.46830  Biso   1.000  O
  O69      1.0000 0.89450  0.08840  0.54750  Biso   1.000  O
  O70      1.0000 0.81500  0.14040  0.51630  Biso   1.000  O
  N37      1.0000 0.22890  0.78280  0.57160  Biso   1.000  N
  N38      1.0000 0.37590  0.83080  0.49220  Biso   1.000  N
  N39      1.0000 0.47770  0.82460  0.40550  Biso   1.000  N
  N40      1.0000 0.62510  0.88330  0.30140  Biso   1.000  N
  N41      1.0000 0.69470  0.94020  0.28910  Biso   1.000  N
  N42      1.0000 0.75120  0.03920  0.35310  Biso   1.000  N
  N43      1.0000 0.73170  0.09900  0.40890  Biso   1.000  N
  C121     1.0000 0.18160  0.80250  0.69880  Biso   1.000  C
  C122     1.0000 0.20190  0.77140  0.63780  Biso   1.000  C
  C123     1.0000 0.44110  0.80890  0.61510  Biso   1.000  C
  C124     1.0000 0.44600  0.81650  0.52990  Biso   1.000  C
  C125     1.0000 0.50810  0.81280  0.47710  Biso   1.000  C
  C126     1.0000 0.59880  0.80430  0.48140  Biso   1.000  C
  C127     1.0000 0.39670  0.83420  0.41770  Biso   1.000  C
  C128     1.0000 0.33650  0.84540  0.35340  Biso   1.000  C
  H81      1.0000 0.36360  0.86290  0.31690  Biso   1.000  H
  H82      1.0000 0.31840  0.82140  0.32690  Biso   1.000  H
  H83      1.0000 0.28910  0.85880  0.37550  Biso   1.000  H
  C129     1.0000 0.50680  0.88980  0.21220  Biso   1.000  C
  C130     1.0000 0.58400  0.90630  0.24570  Biso   1.000  C
  C131     1.0000 0.62660  0.94150  0.23870  Biso   1.000  C
  C132     1.0000 0.61820  0.97840  0.18930  Biso   1.000  C
  C133     1.0000 0.69040  0.90490  0.32300  Biso   1.000  C
  C134     1.0000 0.75160  0.88980  0.37830  Biso   1.000  C
  H84      1.0000 0.79750  0.87820  0.35040  Biso   1.000  H
  H85      1.0000 0.77120  0.91150  0.41030  Biso   1.000  H
  H86      1.0000 0.72630  0.86960  0.41090  Biso   1.000  H
  C135     1.0000 0.87100  0.01190  0.42340  Biso   1.000  C
  C136     1.0000 0.80970  0.04340  0.41330  Biso   1.000  C
  C137     1.0000 0.79670  0.08140  0.44580  Biso   1.000  C
  C138     1.0000 0.83880  0.10510  0.50600  Biso   1.000  C
  C139     1.0000 0.70820  0.07320  0.35270  Biso   1.000  C
  C140     1.0000 0.63590  0.08160  0.29920  Biso   1.000  C
  H87      1.0000 0.63490  0.06190  0.25810  Biso   1.000  H
  H88      1.0000 0.58490  0.08020  0.32830  Biso   1.000  H
  H89      1.0000 0.64180  0.10800  0.27710  Biso   1.000  H
  N44      1.0000 0.85390  0.98130  0.20520  Biso   1.000  N
  C141     1.0000 0.83490  0.95220  0.14960  Biso   1.000  C
  H90      1.0000 0.78290  0.93990  0.14970  Biso   1.000  H
  C142     1.0000 0.89380  0.94140  0.09390  Biso   1.000  C
  H91      1.0000 0.88110  0.92200  0.05670  Biso   1.000  H
  C143     1.0000 0.97160  0.95980  0.09370  Biso   1.000  C
  C144     1.0000 0.99060  0.98890  0.14930  Biso   1.000  C
  H92      1.0000 0.04270  0.00120  0.14920  Biso   1.000  H
  C145     1.0000 0.93170  0.99970  0.20500  Biso   1.000  C
  H93      1.0000 0.94440  0.01910  0.24220  Biso   1.000  H
  N45      1.0000 0.15470  0.92380  0.92440  Biso   1.000  N
  C146     1.0000 0.08010  0.90290  0.93160  Biso   1.000  C
  H94      1.0000 0.06960  0.88070  0.89980  Biso   1.000  H
  C147     1.0000 0.02120  0.91500  0.98630  Biso   1.000  C
  H95      1.0000 0.97130  0.90100  0.99110  Biso   1.000  H
  C148     1.0000 0.03700  0.94810  0.03370  Biso   1.000  C
  C149     1.0000 0.11150  0.96910  0.02650  Biso   1.000  C
  H96      1.0000 0.12210  0.99120  0.05830  Biso   1.000  H
  C150     1.0000 0.17040  0.95690  0.97190  Biso   1.000  C
  H97      1.0000 0.22030  0.97090  0.96710  Biso   1.000  H
  H98      1.0000 0.23300  0.76150  0.41430  Biso   1.000  H
  H99      1.0000 0.32510  0.76570  0.44360  Biso   1.000  H
  H100     1.0000 0.28610  0.72280  0.43120  Biso   1.000  H
  Tb6      1.0000 0.01695  0.05548  0.55293  Biso   1.000  Tb
  Zn16     1.0000 0.22371  0.16036  0.06762  Biso   1.000  Zn
  Zn17     1.0000 0.93365  0.16925  0.82333  Biso   1.000  Zn
  Zn18     1.0000 0.73713  0.00931  0.78667  Biso   1.000  Zn
  O71      1.0000 0.34490  0.20520  0.26590  Biso   1.000  O
  O72      1.0000 0.30260  0.16270  0.17760  Biso   1.000  O
  O73      1.0000 0.12520  0.17760  0.14740  Biso   1.000  O
  O74      1.0000 0.00060  0.20670  0.15060  Biso   1.000  O
  O75      1.0000 0.86160  0.18980  0.91840  Biso   1.000  O
  O76      1.0000 0.86930  0.20650  0.04140  Biso   1.000  O
  O77      1.0000 0.03600  0.08990  0.66500  Biso   1.000  O
  O78      1.0000 0.01340  0.14470  0.73490  Biso   1.000  O
  O79      1.0000 0.94020  0.01720  0.64200  Biso   1.000  O
  O80      1.0000 0.82740  0.99520  0.69980  Biso   1.000  O
  O81      1.0000 0.64180  0.02040  0.88460  Biso   1.000  O
  O82      1.0000 0.56820  0.98540  0.96830  Biso   1.000  O
  O83      1.0000 0.60550  0.91160  0.04750  Biso   1.000  O
  O84      1.0000 0.68500  0.85960  0.01630  Biso   1.000  O
  N46      1.0000 0.27110  0.21720  0.07160  Biso   1.000  N
  N47      1.0000 0.12410  0.16920  0.99220  Biso   1.000  N
  N48      1.0000 0.02230  0.17540  0.90550  Biso   1.000  N
  N49      1.0000 0.87490  0.11670  0.80140  Biso   1.000  N
  N50      1.0000 0.80530  0.05980  0.78910  Biso   1.000  N
  N51      1.0000 0.74880  0.96080  0.85310  Biso   1.000  N
  N52      1.0000 0.76830  0.90100  0.90890  Biso   1.000  N
  C151     1.0000 0.31840  0.19750  0.19880  Biso   1.000  C
  C152     1.0000 0.29810  0.22860  0.13780  Biso   1.000  C
  C153     1.0000 0.05890  0.19110  0.11510  Biso   1.000  C
  C154     1.0000 0.05400  0.18350  0.02990  Biso   1.000  C
  C155     1.0000 0.99190  0.18720  0.97710  Biso   1.000  C
  C156     1.0000 0.90120  0.19570  0.98140  Biso   1.000  C
  C157     1.0000 0.10330  0.16580  0.91770  Biso   1.000  C
  C158     1.0000 0.16350  0.15460  0.85340  Biso   1.000  C
  H101     1.0000 0.13640  0.13710  0.81690  Biso   1.000  H
  H102     1.0000 0.18160  0.17860  0.82690  Biso   1.000  H
  H103     1.0000 0.21090  0.14120  0.87550  Biso   1.000  H
  C159     1.0000 0.99320  0.11020  0.71220  Biso   1.000  C
  C160     1.0000 0.91600  0.09370  0.74570  Biso   1.000  C
  C161     1.0000 0.87340  0.05850  0.73870  Biso   1.000  C
  C162     1.0000 0.88180  0.02160  0.68930  Biso   1.000  C
  C163     1.0000 0.80960  0.09510  0.82300  Biso   1.000  C
  C164     1.0000 0.74840  0.11020  0.87830  Biso   1.000  C
  H104     1.0000 0.70250  0.12180  0.85040  Biso   1.000  H
  H105     1.0000 0.72880  0.08850  0.91030  Biso   1.000  H
  H106     1.0000 0.77370  0.13040  0.91090  Biso   1.000  H
  C165     1.0000 0.62900  0.98810  0.92340  Biso   1.000  C
  C166     1.0000 0.69030  0.95660  0.91330  Biso   1.000  C
  C167     1.0000 0.70330  0.91860  0.94580  Biso   1.000  C
  C168     1.0000 0.66120  0.89490  0.00600  Biso   1.000  C
  C169     1.0000 0.79180  0.92680  0.85270  Biso   1.000  C
  C170     1.0000 0.86410  0.91840  0.79920  Biso   1.000  C
  H107     1.0000 0.86510  0.93810  0.75810  Biso   1.000  H
  H108     1.0000 0.91510  0.91980  0.82830  Biso   1.000  H
  H109     1.0000 0.85820  0.89200  0.77710  Biso   1.000  H
  N53      1.0000 0.64610  0.01870  0.70520  Biso   1.000  N
  C171     1.0000 0.66510  0.04780  0.64960  Biso   1.000  C
  H110     1.0000 0.71710  0.06010  0.64970  Biso   1.000  H
  C172     1.0000 0.60620  0.05860  0.59390  Biso   1.000  C
  H111     1.0000 0.61890  0.07800  0.55670  Biso   1.000  H
  C173     1.0000 0.52840  0.04020  0.59370  Biso   1.000  C
  C174     1.0000 0.50940  0.01110  0.64930  Biso   1.000  C
  H112     1.0000 0.45730  0.99880  0.64920  Biso   1.000  H
  C175     1.0000 0.56830  0.00030  0.70500  Biso   1.000  C
  H113     1.0000 0.55560  0.98090  0.74220  Biso   1.000  H
  N54      1.0000 0.34530  0.07620  0.42440  Biso   1.000  N
  C176     1.0000 0.41990  0.09710  0.43160  Biso   1.000  C
  H114     1.0000 0.43040  0.11930  0.39980  Biso   1.000  H
  C177     1.0000 0.47880  0.08500  0.48630  Biso   1.000  C
  H115     1.0000 0.52870  0.09900  0.49110  Biso   1.000  H
  C178     1.0000 0.46300  0.05190  0.53370  Biso   1.000  C
  C179     1.0000 0.38850  0.03090  0.52650  Biso   1.000  C
  H116     1.0000 0.37790  0.00880  0.55830  Biso   1.000  H
  C180     1.0000 0.32960  0.04310  0.47190  Biso   1.000  C
  H117     1.0000 0.27970  0.02910  0.46710  Biso   1.000  H
  H118     1.0000 0.26700  0.23850  0.91430  Biso   1.000  H
  H119     1.0000 0.17490  0.23430  0.94360  Biso   1.000  H
  H120     1.0000 0.21390  0.27720  0.93120  Biso   1.000  H
  Tb7      1.0000 0.51695  0.44452  0.94707  Biso   1.000  Tb
  Zn19     1.0000 0.72371  0.33964  0.43238  Biso   1.000  Zn
  Zn20     1.0000 0.43365  0.33075  0.67667  Biso   1.000  Zn
  Zn21     1.0000 0.23713  0.49069  0.71333  Biso   1.000  Zn
  O85      1.0000 0.84490  0.29480  0.23410  Biso   1.000  O
  O86      1.0000 0.80260  0.33730  0.32240  Biso   1.000  O
  O87      1.0000 0.62520  0.32240  0.35260  Biso   1.000  O
  O88      1.0000 0.50060  0.29330  0.34940  Biso   1.000  O
  O89      1.0000 0.36160  0.31020  0.58160  Biso   1.000  O
  O90      1.0000 0.36930  0.29350  0.45860  Biso   1.000  O
  O91      1.0000 0.53600  0.41010  0.83500  Biso   1.000  O
  O92      1.0000 0.51340  0.35530  0.76510  Biso   1.000  O
  O93      1.0000 0.44020  0.48280  0.85800  Biso   1.000  O
  O94      1.0000 0.32740  0.50480  0.80020  Biso   1.000  O
  O95      1.0000 0.14180  0.47960  0.61540  Biso   1.000  O
  O96      1.0000 0.06820  0.51460  0.53170  Biso   1.000  O
  O97      1.0000 0.10550  0.58840  0.45250  Biso   1.000  O
  O98      1.0000 0.18500  0.64040  0.48370  Biso   1.000  O
  N55      1.0000 0.77110  0.28280  0.42840  Biso   1.000  N
  N56      1.0000 0.62410  0.33080  0.50780  Biso   1.000  N
  N57      1.0000 0.52230  0.32460  0.59450  Biso   1.000  N
  N58      1.0000 0.37490  0.38330  0.69860  Biso   1.000  N
  N59      1.0000 0.30530  0.44020  0.71090  Biso   1.000  N
  N60      1.0000 0.24880  0.53920  0.64690  Biso   1.000  N
  N61      1.0000 0.26830  0.59900  0.59110  Biso   1.000  N
  C181     1.0000 0.81840  0.30250  0.30120  Biso   1.000  C
  C182     1.0000 0.79810  0.27140  0.36220  Biso   1.000  C
  C183     1.0000 0.55890  0.30890  0.38490  Biso   1.000  C
  C184     1.0000 0.55400  0.31650  0.47010  Biso   1.000  C
  C185     1.0000 0.49190  0.31280  0.52290  Biso   1.000  C
  C186     1.0000 0.40120  0.30430  0.51860  Biso   1.000  C
  C187     1.0000 0.60330  0.33420  0.58230  Biso   1.000  C
  C188     1.0000 0.66350  0.34540  0.64660  Biso   1.000  C
  H121     1.0000 0.63640  0.36290  0.68310  Biso   1.000  H
  H122     1.0000 0.68160  0.32140  0.67310  Biso   1.000  H
  H123     1.0000 0.71090  0.35880  0.62450  Biso   1.000  H
  C189     1.0000 0.49320  0.38980  0.78780  Biso   1.000  C
  C190     1.0000 0.41600  0.40630  0.75430  Biso   1.000  C
  C191     1.0000 0.37340  0.44150  0.76130  Biso   1.000  C
  C192     1.0000 0.38180  0.47840  0.81070  Biso   1.000  C
  C193     1.0000 0.30960  0.40490  0.67700  Biso   1.000  C
  C194     1.0000 0.24840  0.38980  0.62170  Biso   1.000  C
  H124     1.0000 0.20250  0.37820  0.64960  Biso   1.000  H
  H125     1.0000 0.22880  0.41150  0.58970  Biso   1.000  H
  H126     1.0000 0.27370  0.36960  0.58910  Biso   1.000  H
  C195     1.0000 0.12900  0.51190  0.57660  Biso   1.000  C
  C196     1.0000 0.19030  0.54340  0.58670  Biso   1.000  C
  C197     1.0000 0.20330  0.58140  0.55420  Biso   1.000  C
  C198     1.0000 0.16120  0.60510  0.49400  Biso   1.000  C
  C199     1.0000 0.29180  0.57320  0.64730  Biso   1.000  C
  C200     1.0000 0.36410  0.58160  0.70080  Biso   1.000  C
  H127     1.0000 0.36510  0.56190  0.74190  Biso   1.000  H
  H128     1.0000 0.41510  0.58020  0.67170  Biso   1.000  H
  H129     1.0000 0.35820  0.60800  0.72290  Biso   1.000  H
  N62      1.0000 0.14610  0.48130  0.79480  Biso   1.000  N
  C201     1.0000 0.16510  0.45220  0.85040  Biso   1.000  C
  H130     1.0000 0.21710  0.43990  0.85030  Biso   1.000  H
  C202     1.0000 0.10620  0.44140  0.90610  Biso   1.000  C
  H131     1.0000 0.11890  0.42200  0.94330  Biso   1.000  H
  C203     1.0000 0.02840  0.45980  0.90630  Biso   1.000  C
  C204     1.0000 0.00940  0.48890  0.85070  Biso   1.000  C
  H132     1.0000 0.95730  0.50120  0.85080  Biso   1.000  H
  C205     1.0000 0.06830  0.49970  0.79500  Biso   1.000  C
  H133     1.0000 0.05560  0.51910  0.75780  Biso   1.000  H
  N63      1.0000 0.84530  0.42380  0.07560  Biso   1.000  N
  C206     1.0000 0.91990  0.40290  0.06840  Biso   1.000  C
  H134     1.0000 0.93040  0.38070  0.10020  Biso   1.000  H
  C207     1.0000 0.97880  0.41500  0.01370  Biso   1.000  C
  H135     1.0000 0.02870  0.40100  0.00890  Biso   1.000  H
  C208     1.0000 0.96300  0.44810  0.96630  Biso   1.000  C
  C209     1.0000 0.88850  0.46910  0.97350  Biso   1.000  C
  H136     1.0000 0.87790  0.49120  0.94170  Biso   1.000  H
  C210     1.0000 0.82960  0.45690  0.02810  Biso   1.000  C
  H137     1.0000 0.77970  0.47090  0.03290  Biso   1.000  H
  H138     1.0000 0.76700  0.26150  0.58570  Biso   1.000  H
  H139     1.0000 0.67490  0.26570  0.55640  Biso   1.000  H
  H140     1.0000 0.71390  0.22280  0.56880  Biso   1.000  H
  Tb8      1.0000 0.98305  0.55548  0.44707  Biso   1.000  Tb
  Zn22     1.0000 0.77629  0.66036  0.93238  Biso   1.000  Zn
  Zn23     1.0000 0.06635  0.66925  0.17667  Biso   1.000  Zn
  Zn24     1.0000 0.26287  0.50931  0.21333  Biso   1.000  Zn
  O99      1.0000 0.65510  0.70520  0.73410  Biso   1.000  O
  O100     1.0000 0.69740  0.66270  0.82240  Biso   1.000  O
  O101     1.0000 0.87480  0.67760  0.85260  Biso   1.000  O
  O102     1.0000 0.99940  0.70670  0.84940  Biso   1.000  O
  O103     1.0000 0.13840  0.68980  0.08160  Biso   1.000  O
  O104     1.0000 0.13070  0.70650  0.95860  Biso   1.000  O
  O105     1.0000 0.96400  0.58990  0.33500  Biso   1.000  O
  O106     1.0000 0.98660  0.64470  0.26510  Biso   1.000  O
  O107     1.0000 0.05980  0.51720  0.35800  Biso   1.000  O
  O108     1.0000 0.17260  0.49520  0.30020  Biso   1.000  O
  O109     1.0000 0.35820  0.52040  0.11540  Biso   1.000  O
  O110     1.0000 0.43180  0.48540  0.03170  Biso   1.000  O
  O111     1.0000 0.39450  0.41160  0.95250  Biso   1.000  O
  O112     1.0000 0.31500  0.35960  0.98370  Biso   1.000  O
  N64      1.0000 0.72890  0.71720  0.92840  Biso   1.000  N
  N65      1.0000 0.87590  0.66920  0.00780  Biso   1.000  N
  N66      1.0000 0.97770  0.67540  0.09450  Biso   1.000  N
  N67      1.0000 0.12510  0.61670  0.19860  Biso   1.000  N
  N68      1.0000 0.19470  0.55980  0.21090  Biso   1.000  N
  N69      1.0000 0.25120  0.46080  0.14690  Biso   1.000  N
  N70      1.0000 0.23170  0.40100  0.09110  Biso   1.000  N
  C211     1.0000 0.68160  0.69750  0.80120  Biso   1.000  C
  C212     1.0000 0.70190  0.72860  0.86220  Biso   1.000  C
  C213     1.0000 0.94110  0.69110  0.88490  Biso   1.000  C
  C214     1.0000 0.94600  0.68350  0.97010  Biso   1.000  C
  C215     1.0000 0.00810  0.68720  0.02290  Biso   1.000  C
  C216     1.0000 0.09880  0.69570  0.01860  Biso   1.000  C
  C217     1.0000 0.89670  0.66580  0.08230  Biso   1.000  C
  C218     1.0000 0.83650  0.65460  0.14660  Biso   1.000  C
  H141     1.0000 0.86360  0.63710  0.18310  Biso   1.000  H
  H142     1.0000 0.81840  0.67860  0.17310  Biso   1.000  H
  H143     1.0000 0.78910  0.64120  0.12450  Biso   1.000  H
  C219     1.0000 0.00680  0.61020  0.28780  Biso   1.000  C
  C220     1.0000 0.08400  0.59370  0.25430  Biso   1.000  C
  C221     1.0000 0.12660  0.55850  0.26130  Biso   1.000  C
  C222     1.0000 0.11820  0.52160  0.31070  Biso   1.000  C
  C223     1.0000 0.19040  0.59510  0.17700  Biso   1.000  C
  C224     1.0000 0.25160  0.61020  0.12170  Biso   1.000  C
  H144     1.0000 0.29750  0.62180  0.14960  Biso   1.000  H
  H145     1.0000 0.27120  0.58850  0.08970  Biso   1.000  H
  H146     1.0000 0.22630  0.63040  0.08910  Biso   1.000  H
  C225     1.0000 0.37100  0.48810  0.07660  Biso   1.000  C
  C226     1.0000 0.30970  0.45660  0.08670  Biso   1.000  C
  C227     1.0000 0.29670  0.41860  0.05420  Biso   1.000  C
  C228     1.0000 0.33880  0.39490  0.99400  Biso   1.000  C
  C229     1.0000 0.20820  0.42680  0.14730  Biso   1.000  C
  C230     1.0000 0.13590  0.41840  0.20080  Biso   1.000  C
  H147     1.0000 0.13490  0.43810  0.24190  Biso   1.000  H
  H148     1.0000 0.08490  0.41980  0.17170  Biso   1.000  H
  H149     1.0000 0.14180  0.39200  0.22290  Biso   1.000  H
  N71      1.0000 0.35390  0.51870  0.29480  Biso   1.000  N
  C231     1.0000 0.33490  0.54780  0.35040  Biso   1.000  C
  H150     1.0000 0.28290  0.56010  0.35030  Biso   1.000  H
  C232     1.0000 0.39380  0.55860  0.40610  Biso   1.000  C
  H151     1.0000 0.38110  0.57800  0.44330  Biso   1.000  H
  C233     1.0000 0.47160  0.54020  0.40630  Biso   1.000  C
  C234     1.0000 0.49060  0.51110  0.35070  Biso   1.000  C
  H152     1.0000 0.54270  0.49880  0.35080  Biso   1.000  H
  C235     1.0000 0.43170  0.50030  0.29500  Biso   1.000  C
  H153     1.0000 0.44440  0.48090  0.25780  Biso   1.000  H
  N72      1.0000 0.65470  0.57620  0.57560  Biso   1.000  N
  C236     1.0000 0.58010  0.59710  0.56840  Biso   1.000  C
  H154     1.0000 0.56960  0.61930  0.60020  Biso   1.000  H
  C237     1.0000 0.52120  0.58500  0.51370  Biso   1.000  C
  H155     1.0000 0.47130  0.59900  0.50890  Biso   1.000  H
  C238     1.0000 0.53700  0.55190  0.46630  Biso   1.000  C
  C239     1.0000 0.61150  0.53090  0.47350  Biso   1.000  C
  H156     1.0000 0.62210  0.50880  0.44170  Biso   1.000  H
  C240     1.0000 0.67040  0.54310  0.52810  Biso   1.000  C
  H157     1.0000 0.72030  0.52910  0.53290  Biso   1.000  H
  H158     1.0000 0.73300  0.73850  0.08570  Biso   1.000  H
  H159     1.0000 0.82510  0.73430  0.05640  Biso   1.000  H
  H160     1.0000 0.78610  0.77720  0.06880  Biso   1.000  H
  Tb9      1.0000 0.88974  0.25000  0.14667  Biso   1.000  Tb
  C241     1.0000 0.75500  0.25000  0.46930  Biso   1.000  C
  C242     1.0000 0.72500  0.25000  0.55260  Biso   1.000  C
  Tb10     1.0000 0.61026  0.75000  0.64667  Biso   1.000  Tb
  C243     1.0000 0.74500  0.75000  0.96930  Biso   1.000  C
  C244     1.0000 0.77500  0.75000  0.05260  Biso   1.000  C
  Tb11     1.0000 0.11026  0.75000  0.85333  Biso   1.000  Tb
  C245     1.0000 0.24500  0.75000  0.53070  Biso   1.000  C
  C246     1.0000 0.27500  0.75000  0.44740  Biso   1.000  C
  Tb12     1.0000 0.38974  0.25000  0.35333  Biso   1.000  Tb
  C247     1.0000 0.25500  0.25000  0.03070  Biso   1.000  C
  C248     1.0000 0.22500  0.25000  0.94740  Biso   1.000  C
