data_image0
_cell_length_a       16.2825
_cell_length_b       33.8405
_cell_length_c       16.9649
_cell_angle_alpha    90
_cell_angle_beta     90
_cell_angle_gamma    90

_symmetry_space_group_name_H-M    "P 1"
_symmetry_int_tables_number       1

loop_
  _symmetry_equiv_pos_as_xyz
  'x, y, z'

loop_
  _atom_site_label
  _atom_site_occupancy
  _atom_site_fract_x
  _atom_site_fract_y
  _atom_site_fract_z
  _atom_site_thermal_displace_type
  _atom_site_B_iso_or_equiv
  _atom_site_type_symbol
  Eu1      1.0000 0.48219  0.55375  0.44508  Biso   1.000  Eu
  Zn1      1.0000 0.73881  0.49087  0.71146  Biso   1.000  Zn
  Zn2      1.0000 0.56340  0.66551  0.17231  Biso   1.000  Zn
  Zn3      1.0000 0.26818  0.65984  0.93129  Biso   1.000  Zn
  O1       1.0000 0.56540  0.51485  0.53250  Biso   1.000  O
  O2       1.0000 0.63950  0.48009  0.61400  Biso   1.000  O
  O3       1.0000 0.59770  0.58822  0.45350  Biso   1.000  O
  O4       1.0000 0.67720  0.63929  0.48340  Biso   1.000  O
  O5       1.0000 0.46300  0.58707  0.33120  Biso   1.000  O
  O6       1.0000 0.48500  0.64148  0.26210  Biso   1.000  O
  O7       1.0000 0.55970  0.51710  0.35800  Biso   1.000  O
  O8       1.0000 0.67140  0.49487  0.29850  Biso   1.000  O
  O9       1.0000 0.61970  0.70824  0.95260  Biso   1.000  O
  O10      1.0000 0.63220  0.68805  0.07720  Biso   1.000  O
  O11      1.0000 0.48510  0.70894  0.84520  Biso   1.000  O
  O12      1.0000 0.36640  0.67651  0.84830  Biso   1.000  O
  O13      1.0000 0.63050  0.70762  0.75580  Biso   1.000  O
  O14      1.0000 0.68600  0.66363  0.67380  Biso   1.000  O
  N1       1.0000 0.74770  0.53903  0.64390  Biso   1.000  N
  N2       1.0000 0.76350  0.59862  0.58990  Biso   1.000  N
  N3       1.0000 0.62200  0.61440  0.19540  Biso   1.000  N
  N4       1.0000 0.69300  0.55866  0.20920  Biso   1.000  N
  N5       1.0000 0.47180  0.67273  0.09410  Biso   1.000  N
  N6       1.0000 0.37030  0.66720  0.00650  Biso   1.000  N
  N7       1.0000 0.72740  0.71701  0.56640  Biso   1.000  N
  N8       1.0000 0.64930  0.48249  0.79520  Biso   1.000  N
  N9       1.0000 0.34690  0.42400  0.07540  Biso   1.000  N
  C1       1.0000 0.62790  0.51216  0.57670  Biso   1.000  C
  C2       1.0000 0.68720  0.54368  0.58700  Biso   1.000  C
  C3       1.0000 0.69830  0.58085  0.55400  Biso   1.000  C
  C4       1.0000 0.65340  0.60439  0.49320  Biso   1.000  C
  C5       1.0000 0.79100  0.57274  0.64330  Biso   1.000  C
  C6       1.0000 0.86340  0.58080  0.69600  Biso   1.000  C
  H1       1.0000 0.91270  0.58160  0.66500  Biso   1.000  H
  H2       1.0000 0.86780  0.56020  0.73470  Biso   1.000  H
  H3       1.0000 0.85600  0.60570  0.72200  Biso   1.000  H
  C7       1.0000 0.50470  0.60730  0.28380  Biso   1.000  C
  C8       1.0000 0.58210  0.59148  0.25000  Biso   1.000  C
  C9       1.0000 0.62620  0.55684  0.25970  Biso   1.000  C
  C10      1.0000 0.61790  0.52102  0.30880  Biso   1.000  C
  C11      1.0000 0.68870  0.59370  0.17320  Biso   1.000  C
  C12      1.0000 0.75130  0.60910  0.11690  Biso   1.000  C
  H4       1.0000 0.79880  0.61780  0.14560  Biso   1.000  H
  H5       1.0000 0.72860  0.63080  0.08800  Biso   1.000  H
  H6       1.0000 0.76690  0.58850  0.08100  Biso   1.000  H
  C13      1.0000 0.58920  0.69510  0.01650  Biso   1.000  C
  C14      1.0000 0.50100  0.68550  0.02140  Biso   1.000  C
  C15      1.0000 0.43770  0.68200  0.96800  Biso   1.000  C
  C16      1.0000 0.42970  0.68982  0.88150  Biso   1.000  C
  C17      1.0000 0.39200  0.66288  0.08160  Biso   1.000  C
  C18      1.0000 0.33450  0.65160  0.14640  Biso   1.000  C
  H7       1.0000 0.32270  0.67440  0.17820  Biso   1.000  H
  H8       1.0000 0.35940  0.63160  0.17850  Biso   1.000  H
  H9       1.0000 0.28440  0.64160  0.12420  Biso   1.000  H
  C19      1.0000 0.66830  0.69888  0.69280  Biso   1.000  C
  C20      1.0000 0.69270  0.72939  0.63600  Biso   1.000  C
  C21      1.0000 0.57480  0.49960  0.79600  Biso   1.000  C
  H10      1.0000 0.56330  0.51900  0.75880  Biso   1.000  H
  C22      1.0000 0.51390  0.48950  0.85020  Biso   1.000  C
  H11      1.0000 0.46300  0.50190  0.84810  Biso   1.000  H
  C23      1.0000 0.52940  0.46100  0.90730  Biso   1.000  C
  C24      1.0000 0.60830  0.44490  0.90770  Biso   1.000  C
  H12      1.0000 0.62250  0.42640  0.94580  Biso   1.000  H
  C25      1.0000 0.66500  0.45610  0.85220  Biso   1.000  C
  H13      1.0000 0.71710  0.44490  0.85430  Biso   1.000  H
  C26      1.0000 0.33500  0.45520  0.02890  Biso   1.000  C
  H14      1.0000 0.28540  0.46860  0.03300  Biso   1.000  H
  C27      1.0000 0.39250  0.46900  0.97410  Biso   1.000  C
  H15      1.0000 0.38160  0.49140  0.94400  Biso   1.000  H
  C28      1.0000 0.46660  0.44870  0.96540  Biso   1.000  C
  C29      1.0000 0.47850  0.41650  0.01490  Biso   1.000  C
  H16      1.0000 0.52800  0.40280  0.01280  Biso   1.000  H
  C30      1.0000 0.41880  0.40450  0.06680  Biso   1.000  C
  H17      1.0000 0.42820  0.38200  0.09720  Biso   1.000  H
  H18      1.0000 0.78230  0.77650  0.42460  Biso   1.000  H
  H19      1.0000 0.74790  0.73380  0.41090  Biso   1.000  H
  H20      1.0000 0.83610  0.73970  0.44600  Biso   1.000  H
  Eu2      1.0000 0.01781  0.44625  0.94508  Biso   1.000  Eu
  Zn4      1.0000 0.76119  0.50913  0.21146  Biso   1.000  Zn
  Zn5      1.0000 0.93660  0.33449  0.67231  Biso   1.000  Zn
  Zn6      1.0000 0.23182  0.34016  0.43129  Biso   1.000  Zn
  O15      1.0000 0.93460  0.48515  0.03250  Biso   1.000  O
  O16      1.0000 0.86050  0.51991  0.11400  Biso   1.000  O
  O17      1.0000 0.90230  0.41178  0.95350  Biso   1.000  O
  O18      1.0000 0.82280  0.36071  0.98340  Biso   1.000  O
  O19      1.0000 0.03700  0.41293  0.83120  Biso   1.000  O
  O20      1.0000 0.01500  0.35852  0.76210  Biso   1.000  O
  O21      1.0000 0.94030  0.48290  0.85800  Biso   1.000  O
  O22      1.0000 0.82860  0.50513  0.79850  Biso   1.000  O
  O23      1.0000 0.88030  0.29176  0.45260  Biso   1.000  O
  O24      1.0000 0.86780  0.31195  0.57720  Biso   1.000  O
  O25      1.0000 0.01490  0.29106  0.34520  Biso   1.000  O
  O26      1.0000 0.13360  0.32349  0.34830  Biso   1.000  O
  O27      1.0000 0.86950  0.29238  0.25580  Biso   1.000  O
  O28      1.0000 0.81400  0.33637  0.17380  Biso   1.000  O
  N10      1.0000 0.75230  0.46097  0.14390  Biso   1.000  N
  N11      1.0000 0.73650  0.40138  0.08990  Biso   1.000  N
  N12      1.0000 0.87800  0.38560  0.69540  Biso   1.000  N
  N13      1.0000 0.80700  0.44134  0.70920  Biso   1.000  N
  N14      1.0000 0.02820  0.32727  0.59410  Biso   1.000  N
  N15      1.0000 0.12970  0.33280  0.50650  Biso   1.000  N
  N16      1.0000 0.77260  0.28299  0.06640  Biso   1.000  N
  N17      1.0000 0.85070  0.51751  0.29520  Biso   1.000  N
  N18      1.0000 0.15310  0.57600  0.57540  Biso   1.000  N
  C31      1.0000 0.87210  0.48784  0.07670  Biso   1.000  C
  C32      1.0000 0.81280  0.45632  0.08700  Biso   1.000  C
  C33      1.0000 0.80170  0.41915  0.05400  Biso   1.000  C
  C34      1.0000 0.84660  0.39561  0.99320  Biso   1.000  C
  C35      1.0000 0.70900  0.42726  0.14330  Biso   1.000  C
  C36      1.0000 0.63660  0.41920  0.19600  Biso   1.000  C
  H21      1.0000 0.58730  0.41840  0.16500  Biso   1.000  H
  H22      1.0000 0.63220  0.43980  0.23470  Biso   1.000  H
  H23      1.0000 0.64400  0.39430  0.22200  Biso   1.000  H
  C37      1.0000 0.99530  0.39270  0.78380  Biso   1.000  C
  C38      1.0000 0.91790  0.40852  0.75000  Biso   1.000  C
  C39      1.0000 0.87380  0.44316  0.75970  Biso   1.000  C
  C40      1.0000 0.88210  0.47898  0.80880  Biso   1.000  C
  C41      1.0000 0.81130  0.40630  0.67320  Biso   1.000  C
  C42      1.0000 0.74870  0.39090  0.61690  Biso   1.000  C
  H24      1.0000 0.70120  0.38220  0.64560  Biso   1.000  H
  H25      1.0000 0.77140  0.36920  0.58800  Biso   1.000  H
  H26      1.0000 0.73310  0.41150  0.58100  Biso   1.000  H
  C43      1.0000 0.91080  0.30490  0.51650  Biso   1.000  C
  C44      1.0000 0.99900  0.31450  0.52140  Biso   1.000  C
  C45      1.0000 0.06230  0.31800  0.46800  Biso   1.000  C
  C46      1.0000 0.07030  0.31018  0.38150  Biso   1.000  C
  C47      1.0000 0.10800  0.33712  0.58160  Biso   1.000  C
  C48      1.0000 0.16550  0.34840  0.64640  Biso   1.000  C
  H27      1.0000 0.17730  0.32560  0.67820  Biso   1.000  H
  H28      1.0000 0.14060  0.36840  0.67850  Biso   1.000  H
  H29      1.0000 0.21560  0.35840  0.62420  Biso   1.000  H
  C49      1.0000 0.83170  0.30112  0.19280  Biso   1.000  C
  C50      1.0000 0.80730  0.27061  0.13600  Biso   1.000  C
  C51      1.0000 0.92520  0.50040  0.29600  Biso   1.000  C
  H30      1.0000 0.93670  0.48100  0.25880  Biso   1.000  H
  C52      1.0000 0.98610  0.51050  0.35020  Biso   1.000  C
  H31      1.0000 0.03700  0.49810  0.34810  Biso   1.000  H
  C53      1.0000 0.97060  0.53900  0.40730  Biso   1.000  C
  C54      1.0000 0.89170  0.55510  0.40770  Biso   1.000  C
  H32      1.0000 0.87750  0.57360  0.44580  Biso   1.000  H
  C55      1.0000 0.83500  0.54390  0.35220  Biso   1.000  C
  H33      1.0000 0.78290  0.55510  0.35430  Biso   1.000  H
  C56      1.0000 0.16500  0.54480  0.52890  Biso   1.000  C
  H34      1.0000 0.21460  0.53140  0.53300  Biso   1.000  H
  C57      1.0000 0.10750  0.53100  0.47410  Biso   1.000  C
  H35      1.0000 0.11840  0.50860  0.44400  Biso   1.000  H
  C58      1.0000 0.03340  0.55130  0.46540  Biso   1.000  C
  C59      1.0000 0.02150  0.58350  0.51490  Biso   1.000  C
  H36      1.0000 0.97200  0.59720  0.51280  Biso   1.000  H
  C60      1.0000 0.08120  0.59550  0.56680  Biso   1.000  C
  H37      1.0000 0.07180  0.61800  0.59720  Biso   1.000  H
  H38      1.0000 0.71770  0.22350  0.92460  Biso   1.000  H
  H39      1.0000 0.75210  0.26620  0.91090  Biso   1.000  H
  H40      1.0000 0.66390  0.26030  0.94600  Biso   1.000  H
  Eu3      1.0000 0.51781  0.05375  0.55492  Biso   1.000  Eu
  Zn7      1.0000 0.26119  0.99087  0.28854  Biso   1.000  Zn
  Zn8      1.0000 0.43660  0.16551  0.82769  Biso   1.000  Zn
  Zn9      1.0000 0.73182  0.15984  0.06871  Biso   1.000  Zn
  O29      1.0000 0.43460  0.01485  0.46750  Biso   1.000  O
  O30      1.0000 0.36050  0.98009  0.38600  Biso   1.000  O
  O31      1.0000 0.40230  0.08822  0.54650  Biso   1.000  O
  O32      1.0000 0.32280  0.13929  0.51660  Biso   1.000  O
  O33      1.0000 0.53700  0.08707  0.66880  Biso   1.000  O
  O34      1.0000 0.51500  0.14148  0.73790  Biso   1.000  O
  O35      1.0000 0.44030  0.01710  0.64200  Biso   1.000  O
  O36      1.0000 0.32860  0.99487  0.70150  Biso   1.000  O
  O37      1.0000 0.38030  0.20824  0.04740  Biso   1.000  O
  O38      1.0000 0.36780  0.18805  0.92280  Biso   1.000  O
  O39      1.0000 0.51490  0.20894  0.15480  Biso   1.000  O
  O40      1.0000 0.63360  0.17651  0.15170  Biso   1.000  O
  O41      1.0000 0.36950  0.20762  0.24420  Biso   1.000  O
  O42      1.0000 0.31400  0.16363  0.32620  Biso   1.000  O
  N19      1.0000 0.25230  0.03903  0.35610  Biso   1.000  N
  N20      1.0000 0.23650  0.09862  0.41010  Biso   1.000  N
  N21      1.0000 0.37800  0.11440  0.80460  Biso   1.000  N
  N22      1.0000 0.30700  0.05866  0.79080  Biso   1.000  N
  N23      1.0000 0.52820  0.17273  0.90590  Biso   1.000  N
  N24      1.0000 0.62970  0.16720  0.99350  Biso   1.000  N
  N25      1.0000 0.27260  0.21701  0.43360  Biso   1.000  N
  N26      1.0000 0.35070  0.98249  0.20480  Biso   1.000  N
  N27      1.0000 0.65310  0.92400  0.92460  Biso   1.000  N
  C61      1.0000 0.37210  0.01216  0.42330  Biso   1.000  C
  C62      1.0000 0.31280  0.04368  0.41300  Biso   1.000  C
  C63      1.0000 0.30170  0.08085  0.44600  Biso   1.000  C
  C64      1.0000 0.34660  0.10439  0.50680  Biso   1.000  C
  C65      1.0000 0.20900  0.07274  0.35670  Biso   1.000  C
  C66      1.0000 0.13660  0.08080  0.30400  Biso   1.000  C
  H41      1.0000 0.08730  0.08160  0.33500  Biso   1.000  H
  H42      1.0000 0.13220  0.06020  0.26530  Biso   1.000  H
  H43      1.0000 0.14400  0.10570  0.27800  Biso   1.000  H
  C67      1.0000 0.49530  0.10730  0.71620  Biso   1.000  C
  C68      1.0000 0.41790  0.09148  0.75000  Biso   1.000  C
  C69      1.0000 0.37380  0.05684  0.74030  Biso   1.000  C
  C70      1.0000 0.38210  0.02102  0.69120  Biso   1.000  C
  C71      1.0000 0.31130  0.09370  0.82680  Biso   1.000  C
  C72      1.0000 0.24870  0.10910  0.88310  Biso   1.000  C
  H44      1.0000 0.20120  0.11780  0.85440  Biso   1.000  H
  H45      1.0000 0.27140  0.13080  0.91200  Biso   1.000  H
  H46      1.0000 0.23310  0.08850  0.91900  Biso   1.000  H
  C73      1.0000 0.41080  0.19510  0.98350  Biso   1.000  C
  C74      1.0000 0.49900  0.18550  0.97860  Biso   1.000  C
  C75      1.0000 0.56230  0.18200  0.03200  Biso   1.000  C
  C76      1.0000 0.57030  0.18982  0.11850  Biso   1.000  C
  C77      1.0000 0.60800  0.16288  0.91840  Biso   1.000  C
  C78      1.0000 0.66550  0.15160  0.85360  Biso   1.000  C
  H47      1.0000 0.67730  0.17440  0.82180  Biso   1.000  H
  H48      1.0000 0.64060  0.13160  0.82150  Biso   1.000  H
  H49      1.0000 0.71560  0.14160  0.87580  Biso   1.000  H
  C79      1.0000 0.33170  0.19888  0.30720  Biso   1.000  C
  C80      1.0000 0.30730  0.22939  0.36400  Biso   1.000  C
  C81      1.0000 0.42520  0.99960  0.20400  Biso   1.000  C
  H50      1.0000 0.43670  0.01900  0.24120  Biso   1.000  H
  C82      1.0000 0.48610  0.98950  0.14980  Biso   1.000  C
  H51      1.0000 0.53700  0.00190  0.15190  Biso   1.000  H
  C83      1.0000 0.47060  0.96100  0.09270  Biso   1.000  C
  C84      1.0000 0.39170  0.94490  0.09230  Biso   1.000  C
  H52      1.0000 0.37750  0.92640  0.05420  Biso   1.000  H
  C85      1.0000 0.33500  0.95610  0.14780  Biso   1.000  C
  H53      1.0000 0.28290  0.94490  0.14570  Biso   1.000  H
  C86      1.0000 0.66500  0.95520  0.97110  Biso   1.000  C
  H54      1.0000 0.71460  0.96860  0.96700  Biso   1.000  H
  C87      1.0000 0.60750  0.96900  0.02590  Biso   1.000  C
  H55      1.0000 0.61840  0.99140  0.05600  Biso   1.000  H
  C88      1.0000 0.53340  0.94870  0.03460  Biso   1.000  C
  C89      1.0000 0.52150  0.91650  0.98510  Biso   1.000  C
  H56      1.0000 0.47200  0.90280  0.98720  Biso   1.000  H
  C90      1.0000 0.58120  0.90450  0.93320  Biso   1.000  C
  H57      1.0000 0.57180  0.88200  0.90280  Biso   1.000  H
  H58      1.0000 0.21770  0.27650  0.57540  Biso   1.000  H
  H59      1.0000 0.25210  0.23380  0.58910  Biso   1.000  H
  H60      1.0000 0.16390  0.23970  0.55400  Biso   1.000  H
  Eu4      1.0000 0.98219  0.94625  0.05492  Biso   1.000  Eu
  Zn10     1.0000 0.23881  0.00913  0.78854  Biso   1.000  Zn
  Zn11     1.0000 0.06340  0.83449  0.32769  Biso   1.000  Zn
  Zn12     1.0000 0.76818  0.84016  0.56871  Biso   1.000  Zn
  O43      1.0000 0.06540  0.98515  0.96750  Biso   1.000  O
  O44      1.0000 0.13950  0.01991  0.88600  Biso   1.000  O
  O45      1.0000 0.09770  0.91178  0.04650  Biso   1.000  O
  O46      1.0000 0.17720  0.86071  0.01660  Biso   1.000  O
  O47      1.0000 0.96300  0.91293  0.16880  Biso   1.000  O
  O48      1.0000 0.98500  0.85852  0.23790  Biso   1.000  O
  O49      1.0000 0.05970  0.98290  0.14200  Biso   1.000  O
  O50      1.0000 0.17140  0.00513  0.20150  Biso   1.000  O
  O51      1.0000 0.11970  0.79176  0.54740  Biso   1.000  O
  O52      1.0000 0.13220  0.81195  0.42280  Biso   1.000  O
  O53      1.0000 0.98510  0.79106  0.65480  Biso   1.000  O
  O54      1.0000 0.86640  0.82349  0.65170  Biso   1.000  O
  O55      1.0000 0.13050  0.79238  0.74420  Biso   1.000  O
  O56      1.0000 0.18600  0.83637  0.82620  Biso   1.000  O
  N28      1.0000 0.24770  0.96097  0.85610  Biso   1.000  N
  N29      1.0000 0.26350  0.90138  0.91010  Biso   1.000  N
  N30      1.0000 0.12200  0.88560  0.30460  Biso   1.000  N
  N31      1.0000 0.19300  0.94134  0.29080  Biso   1.000  N
  N32      1.0000 0.97180  0.82727  0.40590  Biso   1.000  N
  N33      1.0000 0.87030  0.83280  0.49350  Biso   1.000  N
  N34      1.0000 0.22740  0.78299  0.93360  Biso   1.000  N
  N35      1.0000 0.14930  0.01751  0.70480  Biso   1.000  N
  N36      1.0000 0.84690  0.07600  0.42460  Biso   1.000  N
  C91      1.0000 0.12790  0.98784  0.92330  Biso   1.000  C
  C92      1.0000 0.18720  0.95632  0.91300  Biso   1.000  C
  C93      1.0000 0.19830  0.91915  0.94600  Biso   1.000  C
  C94      1.0000 0.15340  0.89561  0.00680  Biso   1.000  C
  C95      1.0000 0.29100  0.92726  0.85670  Biso   1.000  C
  C96      1.0000 0.36340  0.91920  0.80400  Biso   1.000  C
  H61      1.0000 0.41270  0.91840  0.83500  Biso   1.000  H
  H62      1.0000 0.36780  0.93980  0.76530  Biso   1.000  H
  H63      1.0000 0.35600  0.89430  0.77800  Biso   1.000  H
  C97      1.0000 0.00470  0.89270  0.21620  Biso   1.000  C
  C98      1.0000 0.08210  0.90852  0.25000  Biso   1.000  C
  C99      1.0000 0.12620  0.94316  0.24030  Biso   1.000  C
  C100     1.0000 0.11790  0.97898  0.19120  Biso   1.000  C
  C101     1.0000 0.18870  0.90630  0.32680  Biso   1.000  C
  C102     1.0000 0.25130  0.89090  0.38310  Biso   1.000  C
  H64      1.0000 0.29880  0.88220  0.35440  Biso   1.000  H
  H65      1.0000 0.22860  0.86920  0.41200  Biso   1.000  H
  H66      1.0000 0.26690  0.91150  0.41900  Biso   1.000  H
  C103     1.0000 0.08920  0.80490  0.48350  Biso   1.000  C
  C104     1.0000 0.00100  0.81450  0.47860  Biso   1.000  C
  C105     1.0000 0.93770  0.81800  0.53200  Biso   1.000  C
  C106     1.0000 0.92970  0.81018  0.61850  Biso   1.000  C
  C107     1.0000 0.89200  0.83712  0.41840  Biso   1.000  C
  C108     1.0000 0.83450  0.84840  0.35360  Biso   1.000  C
  H67      1.0000 0.82270  0.82560  0.32180  Biso   1.000  H
  H68      1.0000 0.85940  0.86840  0.32150  Biso   1.000  H
  H69      1.0000 0.78440  0.85840  0.37580  Biso   1.000  H
  C109     1.0000 0.16830  0.80112  0.80720  Biso   1.000  C
  C110     1.0000 0.19270  0.77061  0.86400  Biso   1.000  C
  C111     1.0000 0.07480  0.00040  0.70400  Biso   1.000  C
  H70      1.0000 0.06330  0.98100  0.74120  Biso   1.000  H
  C112     1.0000 0.01390  0.01050  0.64980  Biso   1.000  C
  H71      1.0000 0.96300  0.99810  0.65190  Biso   1.000  H
  C113     1.0000 0.02940  0.03900  0.59270  Biso   1.000  C
  C114     1.0000 0.10830  0.05510  0.59230  Biso   1.000  C
  H72      1.0000 0.12250  0.07360  0.55420  Biso   1.000  H
  C115     1.0000 0.16500  0.04390  0.64780  Biso   1.000  C
  H73      1.0000 0.21710  0.05510  0.64570  Biso   1.000  H
  C116     1.0000 0.83500  0.04480  0.47110  Biso   1.000  C
  H74      1.0000 0.78540  0.03140  0.46700  Biso   1.000  H
  C117     1.0000 0.89250  0.03100  0.52590  Biso   1.000  C
  H75      1.0000 0.88160  0.00860  0.55600  Biso   1.000  H
  C118     1.0000 0.96660  0.05130  0.53460  Biso   1.000  C
  C119     1.0000 0.97850  0.08350  0.48510  Biso   1.000  C
  H76      1.0000 0.02800  0.09720  0.48720  Biso   1.000  H
  C120     1.0000 0.91880  0.09550  0.43320  Biso   1.000  C
  H77      1.0000 0.92820  0.11800  0.40280  Biso   1.000  H
  H78      1.0000 0.28230  0.72350  0.07540  Biso   1.000  H
  H79      1.0000 0.24790  0.76620  0.08910  Biso   1.000  H
  H80      1.0000 0.33610  0.76030  0.05400  Biso   1.000  H
  Eu5      1.0000 0.51781  0.44625  0.55492  Biso   1.000  Eu
  Zn13     1.0000 0.26119  0.50913  0.28854  Biso   1.000  Zn
  Zn14     1.0000 0.43660  0.33449  0.82769  Biso   1.000  Zn
  Zn15     1.0000 0.73182  0.34016  0.06871  Biso   1.000  Zn
  O57      1.0000 0.43460  0.48515  0.46750  Biso   1.000  O
  O58      1.0000 0.36050  0.51991  0.38600  Biso   1.000  O
  O59      1.0000 0.40230  0.41178  0.54650  Biso   1.000  O
  O60      1.0000 0.32280  0.36071  0.51660  Biso   1.000  O
  O61      1.0000 0.53700  0.41293  0.66880  Biso   1.000  O
  O62      1.0000 0.51500  0.35852  0.73790  Biso   1.000  O
  O63      1.0000 0.44030  0.48290  0.64200  Biso   1.000  O
  O64      1.0000 0.32860  0.50513  0.70150  Biso   1.000  O
  O65      1.0000 0.38030  0.29176  0.04740  Biso   1.000  O
  O66      1.0000 0.36780  0.31195  0.92280  Biso   1.000  O
  O67      1.0000 0.51490  0.29106  0.15480  Biso   1.000  O
  O68      1.0000 0.63360  0.32349  0.15170  Biso   1.000  O
  O69      1.0000 0.36950  0.29238  0.24420  Biso   1.000  O
  O70      1.0000 0.31400  0.33637  0.32620  Biso   1.000  O
  N37      1.0000 0.25230  0.46097  0.35610  Biso   1.000  N
  N38      1.0000 0.23650  0.40138  0.41010  Biso   1.000  N
  N39      1.0000 0.37800  0.38560  0.80460  Biso   1.000  N
  N40      1.0000 0.30700  0.44134  0.79080  Biso   1.000  N
  N41      1.0000 0.52820  0.32727  0.90590  Biso   1.000  N
  N42      1.0000 0.62970  0.33280  0.99350  Biso   1.000  N
  N43      1.0000 0.27260  0.28299  0.43360  Biso   1.000  N
  N44      1.0000 0.35070  0.51751  0.20480  Biso   1.000  N
  N45      1.0000 0.65310  0.57600  0.92460  Biso   1.000  N
  C121     1.0000 0.37210  0.48784  0.42330  Biso   1.000  C
  C122     1.0000 0.31280  0.45632  0.41300  Biso   1.000  C
  C123     1.0000 0.30170  0.41915  0.44600  Biso   1.000  C
  C124     1.0000 0.34660  0.39561  0.50680  Biso   1.000  C
  C125     1.0000 0.20900  0.42726  0.35670  Biso   1.000  C
  C126     1.0000 0.13660  0.41920  0.30400  Biso   1.000  C
  H81      1.0000 0.08730  0.41840  0.33500  Biso   1.000  H
  H82      1.0000 0.13220  0.43980  0.26530  Biso   1.000  H
  H83      1.0000 0.14400  0.39430  0.27800  Biso   1.000  H
  C127     1.0000 0.49530  0.39270  0.71620  Biso   1.000  C
  C128     1.0000 0.41790  0.40852  0.75000  Biso   1.000  C
  C129     1.0000 0.37380  0.44316  0.74030  Biso   1.000  C
  C130     1.0000 0.38210  0.47898  0.69120  Biso   1.000  C
  C131     1.0000 0.31130  0.40630  0.82680  Biso   1.000  C
  C132     1.0000 0.24870  0.39090  0.88310  Biso   1.000  C
  H84      1.0000 0.20120  0.38220  0.85440  Biso   1.000  H
  H85      1.0000 0.27140  0.36920  0.91200  Biso   1.000  H
  H86      1.0000 0.23310  0.41150  0.91900  Biso   1.000  H
  C133     1.0000 0.41080  0.30490  0.98350  Biso   1.000  C
  C134     1.0000 0.49900  0.31450  0.97860  Biso   1.000  C
  C135     1.0000 0.56230  0.31800  0.03200  Biso   1.000  C
  C136     1.0000 0.57030  0.31018  0.11850  Biso   1.000  C
  C137     1.0000 0.60800  0.33712  0.91840  Biso   1.000  C
  C138     1.0000 0.66550  0.34840  0.85360  Biso   1.000  C
  H87      1.0000 0.67730  0.32560  0.82180  Biso   1.000  H
  H88      1.0000 0.64060  0.36840  0.82150  Biso   1.000  H
  H89      1.0000 0.71560  0.35840  0.87580  Biso   1.000  H
  C139     1.0000 0.33170  0.30112  0.30720  Biso   1.000  C
  C140     1.0000 0.30730  0.27061  0.36400  Biso   1.000  C
  C141     1.0000 0.42520  0.50040  0.20400  Biso   1.000  C
  H90      1.0000 0.43670  0.48100  0.24120  Biso   1.000  H
  C142     1.0000 0.48610  0.51050  0.14980  Biso   1.000  C
  H91      1.0000 0.53700  0.49810  0.15190  Biso   1.000  H
  C143     1.0000 0.47060  0.53900  0.09270  Biso   1.000  C
  C144     1.0000 0.39170  0.55510  0.09230  Biso   1.000  C
  H92      1.0000 0.37750  0.57360  0.05420  Biso   1.000  H
  C145     1.0000 0.33500  0.54390  0.14780  Biso   1.000  C
  H93      1.0000 0.28290  0.55510  0.14570  Biso   1.000  H
  C146     1.0000 0.66500  0.54480  0.97110  Biso   1.000  C
  H94      1.0000 0.71460  0.53140  0.96700  Biso   1.000  H
  C147     1.0000 0.60750  0.53100  0.02590  Biso   1.000  C
  H95      1.0000 0.61840  0.50860  0.05600  Biso   1.000  H
  C148     1.0000 0.53340  0.55130  0.03460  Biso   1.000  C
  C149     1.0000 0.52150  0.58350  0.98510  Biso   1.000  C
  H96      1.0000 0.47200  0.59720  0.98720  Biso   1.000  H
  C150     1.0000 0.58120  0.59550  0.93320  Biso   1.000  C
  H97      1.0000 0.57180  0.61800  0.90280  Biso   1.000  H
  H98      1.0000 0.21770  0.22350  0.57540  Biso   1.000  H
  H99      1.0000 0.25210  0.26620  0.58910  Biso   1.000  H
  H100     1.0000 0.16390  0.26030  0.55400  Biso   1.000  H
  Eu6      1.0000 0.98219  0.55375  0.05492  Biso   1.000  Eu
  Zn16     1.0000 0.23881  0.49087  0.78854  Biso   1.000  Zn
  Zn17     1.0000 0.06340  0.66551  0.32769  Biso   1.000  Zn
  Zn18     1.0000 0.76818  0.65984  0.56871  Biso   1.000  Zn
  O71      1.0000 0.06540  0.51485  0.96750  Biso   1.000  O
  O72      1.0000 0.13950  0.48009  0.88600  Biso   1.000  O
  O73      1.0000 0.09770  0.58822  0.04650  Biso   1.000  O
  O74      1.0000 0.17720  0.63929  0.01660  Biso   1.000  O
  O75      1.0000 0.96300  0.58707  0.16880  Biso   1.000  O
  O76      1.0000 0.98500  0.64148  0.23790  Biso   1.000  O
  O77      1.0000 0.05970  0.51710  0.14200  Biso   1.000  O
  O78      1.0000 0.17140  0.49487  0.20150  Biso   1.000  O
  O79      1.0000 0.11970  0.70824  0.54740  Biso   1.000  O
  O80      1.0000 0.13220  0.68805  0.42280  Biso   1.000  O
  O81      1.0000 0.98510  0.70894  0.65480  Biso   1.000  O
  O82      1.0000 0.86640  0.67651  0.65170  Biso   1.000  O
  O83      1.0000 0.13050  0.70762  0.74420  Biso   1.000  O
  O84      1.0000 0.18600  0.66363  0.82620  Biso   1.000  O
  N46      1.0000 0.24770  0.53903  0.85610  Biso   1.000  N
  N47      1.0000 0.26350  0.59862  0.91010  Biso   1.000  N
  N48      1.0000 0.12200  0.61440  0.30460  Biso   1.000  N
  N49      1.0000 0.19300  0.55866  0.29080  Biso   1.000  N
  N50      1.0000 0.97180  0.67273  0.40590  Biso   1.000  N
  N51      1.0000 0.87030  0.66720  0.49350  Biso   1.000  N
  N52      1.0000 0.22740  0.71701  0.93360  Biso   1.000  N
  N53      1.0000 0.14930  0.48249  0.70480  Biso   1.000  N
  N54      1.0000 0.84690  0.42400  0.42460  Biso   1.000  N
  C151     1.0000 0.12790  0.51216  0.92330  Biso   1.000  C
  C152     1.0000 0.18720  0.54368  0.91300  Biso   1.000  C
  C153     1.0000 0.19830  0.58085  0.94600  Biso   1.000  C
  C154     1.0000 0.15340  0.60439  0.00680  Biso   1.000  C
  C155     1.0000 0.29100  0.57274  0.85670  Biso   1.000  C
  C156     1.0000 0.36340  0.58080  0.80400  Biso   1.000  C
  H101     1.0000 0.41270  0.58160  0.83500  Biso   1.000  H
  H102     1.0000 0.36780  0.56020  0.76530  Biso   1.000  H
  H103     1.0000 0.35600  0.60570  0.77800  Biso   1.000  H
  C157     1.0000 0.00470  0.60730  0.21620  Biso   1.000  C
  C158     1.0000 0.08210  0.59148  0.25000  Biso   1.000  C
  C159     1.0000 0.12620  0.55684  0.24030  Biso   1.000  C
  C160     1.0000 0.11790  0.52102  0.19120  Biso   1.000  C
  C161     1.0000 0.18870  0.59370  0.32680  Biso   1.000  C
  C162     1.0000 0.25130  0.60910  0.38310  Biso   1.000  C
  H104     1.0000 0.29880  0.61780  0.35440  Biso   1.000  H
  H105     1.0000 0.22860  0.63080  0.41200  Biso   1.000  H
  H106     1.0000 0.26690  0.58850  0.41900  Biso   1.000  H
  C163     1.0000 0.08920  0.69510  0.48350  Biso   1.000  C
  C164     1.0000 0.00100  0.68550  0.47860  Biso   1.000  C
  C165     1.0000 0.93770  0.68200  0.53200  Biso   1.000  C
  C166     1.0000 0.92970  0.68982  0.61850  Biso   1.000  C
  C167     1.0000 0.89200  0.66288  0.41840  Biso   1.000  C
  C168     1.0000 0.83450  0.65160  0.35360  Biso   1.000  C
  H107     1.0000 0.82270  0.67440  0.32180  Biso   1.000  H
  H108     1.0000 0.85940  0.63160  0.32150  Biso   1.000  H
  H109     1.0000 0.78440  0.64160  0.37580  Biso   1.000  H
  C169     1.0000 0.16830  0.69888  0.80720  Biso   1.000  C
  C170     1.0000 0.19270  0.72939  0.86400  Biso   1.000  C
  C171     1.0000 0.07480  0.49960  0.70400  Biso   1.000  C
  H110     1.0000 0.06330  0.51900  0.74120  Biso   1.000  H
  C172     1.0000 0.01390  0.48950  0.64980  Biso   1.000  C
  H111     1.0000 0.96300  0.50190  0.65190  Biso   1.000  H
  C173     1.0000 0.02940  0.46100  0.59270  Biso   1.000  C
  C174     1.0000 0.10830  0.44490  0.59230  Biso   1.000  C
  H112     1.0000 0.12250  0.42640  0.55420  Biso   1.000  H
  C175     1.0000 0.16500  0.45610  0.64780  Biso   1.000  C
  H113     1.0000 0.21710  0.44490  0.64570  Biso   1.000  H
  C176     1.0000 0.83500  0.45520  0.47110  Biso   1.000  C
  H114     1.0000 0.78540  0.46860  0.46700  Biso   1.000  H
  C177     1.0000 0.89250  0.46900  0.52590  Biso   1.000  C
  H115     1.0000 0.88160  0.49140  0.55600  Biso   1.000  H
  C178     1.0000 0.96660  0.44870  0.53460  Biso   1.000  C
  C179     1.0000 0.97850  0.41650  0.48510  Biso   1.000  C
  H116     1.0000 0.02800  0.40280  0.48720  Biso   1.000  H
  C180     1.0000 0.91880  0.40450  0.43320  Biso   1.000  C
  H117     1.0000 0.92820  0.38200  0.40280  Biso   1.000  H
  H118     1.0000 0.28230  0.77650  0.07540  Biso   1.000  H
  H119     1.0000 0.24790  0.73380  0.08910  Biso   1.000  H
  H120     1.0000 0.33610  0.73970  0.05400  Biso   1.000  H
  Eu7      1.0000 0.48219  0.94625  0.44508  Biso   1.000  Eu
  Zn19     1.0000 0.73881  0.00913  0.71146  Biso   1.000  Zn
  Zn20     1.0000 0.56340  0.83449  0.17231  Biso   1.000  Zn
  Zn21     1.0000 0.26818  0.84016  0.93129  Biso   1.000  Zn
  O85      1.0000 0.56540  0.98515  0.53250  Biso   1.000  O
  O86      1.0000 0.63950  0.01991  0.61400  Biso   1.000  O
  O87      1.0000 0.59770  0.91178  0.45350  Biso   1.000  O
  O88      1.0000 0.67720  0.86071  0.48340  Biso   1.000  O
  O89      1.0000 0.46300  0.91293  0.33120  Biso   1.000  O
  O90      1.0000 0.48500  0.85852  0.26210  Biso   1.000  O
  O91      1.0000 0.55970  0.98290  0.35800  Biso   1.000  O
  O92      1.0000 0.67140  0.00513  0.29850  Biso   1.000  O
  O93      1.0000 0.61970  0.79176  0.95260  Biso   1.000  O
  O94      1.0000 0.63220  0.81195  0.07720  Biso   1.000  O
  O95      1.0000 0.48510  0.79106  0.84520  Biso   1.000  O
  O96      1.0000 0.36640  0.82349  0.84830  Biso   1.000  O
  O97      1.0000 0.63050  0.79238  0.75580  Biso   1.000  O
  O98      1.0000 0.68600  0.83637  0.67380  Biso   1.000  O
  N55      1.0000 0.74770  0.96097  0.64390  Biso   1.000  N
  N56      1.0000 0.76350  0.90138  0.58990  Biso   1.000  N
  N57      1.0000 0.62200  0.88560  0.19540  Biso   1.000  N
  N58      1.0000 0.69300  0.94134  0.20920  Biso   1.000  N
  N59      1.0000 0.47180  0.82727  0.09410  Biso   1.000  N
  N60      1.0000 0.37030  0.83280  0.00650  Biso   1.000  N
  N61      1.0000 0.72740  0.78299  0.56640  Biso   1.000  N
  N62      1.0000 0.64930  0.01751  0.79520  Biso   1.000  N
  N63      1.0000 0.34690  0.07600  0.07540  Biso   1.000  N
  C181     1.0000 0.62790  0.98784  0.57670  Biso   1.000  C
  C182     1.0000 0.68720  0.95632  0.58700  Biso   1.000  C
  C183     1.0000 0.69830  0.91915  0.55400  Biso   1.000  C
  C184     1.0000 0.65340  0.89561  0.49320  Biso   1.000  C
  C185     1.0000 0.79100  0.92726  0.64330  Biso   1.000  C
  C186     1.0000 0.86340  0.91920  0.69600  Biso   1.000  C
  H121     1.0000 0.91270  0.91840  0.66500  Biso   1.000  H
  H122     1.0000 0.86780  0.93980  0.73470  Biso   1.000  H
  H123     1.0000 0.85600  0.89430  0.72200  Biso   1.000  H
  C187     1.0000 0.50470  0.89270  0.28380  Biso   1.000  C
  C188     1.0000 0.58210  0.90852  0.25000  Biso   1.000  C
  C189     1.0000 0.62620  0.94316  0.25970  Biso   1.000  C
  C190     1.0000 0.61790  0.97898  0.30880  Biso   1.000  C
  C191     1.0000 0.68870  0.90630  0.17320  Biso   1.000  C
  C192     1.0000 0.75130  0.89090  0.11690  Biso   1.000  C
  H124     1.0000 0.79880  0.88220  0.14560  Biso   1.000  H
  H125     1.0000 0.72860  0.86920  0.08800  Biso   1.000  H
  H126     1.0000 0.76690  0.91150  0.08100  Biso   1.000  H
  C193     1.0000 0.58920  0.80490  0.01650  Biso   1.000  C
  C194     1.0000 0.50100  0.81450  0.02140  Biso   1.000  C
  C195     1.0000 0.43770  0.81800  0.96800  Biso   1.000  C
  C196     1.0000 0.42970  0.81018  0.88150  Biso   1.000  C
  C197     1.0000 0.39200  0.83712  0.08160  Biso   1.000  C
  C198     1.0000 0.33450  0.84840  0.14640  Biso   1.000  C
  H127     1.0000 0.32270  0.82560  0.17820  Biso   1.000  H
  H128     1.0000 0.35940  0.86840  0.17850  Biso   1.000  H
  H129     1.0000 0.28440  0.85840  0.12420  Biso   1.000  H
  C199     1.0000 0.66830  0.80112  0.69280  Biso   1.000  C
  C200     1.0000 0.69270  0.77061  0.63600  Biso   1.000  C
  C201     1.0000 0.57480  0.00040  0.79600  Biso   1.000  C
  H130     1.0000 0.56330  0.98100  0.75880  Biso   1.000  H
  C202     1.0000 0.51390  0.01050  0.85020  Biso   1.000  C
  H131     1.0000 0.46300  0.99810  0.84810  Biso   1.000  H
  C203     1.0000 0.52940  0.03900  0.90730  Biso   1.000  C
  C204     1.0000 0.60830  0.05510  0.90770  Biso   1.000  C
  H132     1.0000 0.62250  0.07360  0.94580  Biso   1.000  H
  C205     1.0000 0.66500  0.04390  0.85220  Biso   1.000  C
  H133     1.0000 0.71710  0.05510  0.85430  Biso   1.000  H
  C206     1.0000 0.33500  0.04480  0.02890  Biso   1.000  C
  H134     1.0000 0.28540  0.03140  0.03300  Biso   1.000  H
  C207     1.0000 0.39250  0.03100  0.97410  Biso   1.000  C
  H135     1.0000 0.38160  0.00860  0.94400  Biso   1.000  H
  C208     1.0000 0.46660  0.05130  0.96540  Biso   1.000  C
  C209     1.0000 0.47850  0.08350  0.01490  Biso   1.000  C
  H136     1.0000 0.52800  0.09720  0.01280  Biso   1.000  H
  C210     1.0000 0.41880  0.09550  0.06680  Biso   1.000  C
  H137     1.0000 0.42820  0.11800  0.09720  Biso   1.000  H
  H138     1.0000 0.78230  0.72350  0.42460  Biso   1.000  H
  H139     1.0000 0.74790  0.76620  0.41090  Biso   1.000  H
  H140     1.0000 0.83610  0.76030  0.44600  Biso   1.000  H
  Eu8      1.0000 0.01781  0.05375  0.94508  Biso   1.000  Eu
  Zn22     1.0000 0.76119  0.99087  0.21146  Biso   1.000  Zn
  Zn23     1.0000 0.93660  0.16551  0.67231  Biso   1.000  Zn
  Zn24     1.0000 0.23182  0.15984  0.43129  Biso   1.000  Zn
  O99      1.0000 0.93460  0.01485  0.03250  Biso   1.000  O
  O100     1.0000 0.86050  0.98009  0.11400  Biso   1.000  O
  O101     1.0000 0.90230  0.08822  0.95350  Biso   1.000  O
  O102     1.0000 0.82280  0.13929  0.98340  Biso   1.000  O
  O103     1.0000 0.03700  0.08707  0.83120  Biso   1.000  O
  O104     1.0000 0.01500  0.14148  0.76210  Biso   1.000  O
  O105     1.0000 0.94030  0.01710  0.85800  Biso   1.000  O
  O106     1.0000 0.82860  0.99487  0.79850  Biso   1.000  O
  O107     1.0000 0.88030  0.20824  0.45260  Biso   1.000  O
  O108     1.0000 0.86780  0.18805  0.57720  Biso   1.000  O
  O109     1.0000 0.01490  0.20894  0.34520  Biso   1.000  O
  O110     1.0000 0.13360  0.17651  0.34830  Biso   1.000  O
  O111     1.0000 0.86950  0.20762  0.25580  Biso   1.000  O
  O112     1.0000 0.81400  0.16363  0.17380  Biso   1.000  O
  N64      1.0000 0.75230  0.03903  0.14390  Biso   1.000  N
  N65      1.0000 0.73650  0.09862  0.08990  Biso   1.000  N
  N66      1.0000 0.87800  0.11440  0.69540  Biso   1.000  N
  N67      1.0000 0.80700  0.05866  0.70920  Biso   1.000  N
  N68      1.0000 0.02820  0.17273  0.59410  Biso   1.000  N
  N69      1.0000 0.12970  0.16720  0.50650  Biso   1.000  N
  N70      1.0000 0.77260  0.21701  0.06640  Biso   1.000  N
  N71      1.0000 0.85070  0.98249  0.29520  Biso   1.000  N
  N72      1.0000 0.15310  0.92400  0.57540  Biso   1.000  N
  C211     1.0000 0.87210  0.01216  0.07670  Biso   1.000  C
  C212     1.0000 0.81280  0.04368  0.08700  Biso   1.000  C
  C213     1.0000 0.80170  0.08085  0.05400  Biso   1.000  C
  C214     1.0000 0.84660  0.10439  0.99320  Biso   1.000  C
  C215     1.0000 0.70900  0.07274  0.14330  Biso   1.000  C
  C216     1.0000 0.63660  0.08080  0.19600  Biso   1.000  C
  H141     1.0000 0.58730  0.08160  0.16500  Biso   1.000  H
  H142     1.0000 0.63220  0.06020  0.23470  Biso   1.000  H
  H143     1.0000 0.64400  0.10570  0.22200  Biso   1.000  H
  C217     1.0000 0.99530  0.10730  0.78380  Biso   1.000  C
  C218     1.0000 0.91790  0.09148  0.75000  Biso   1.000  C
  C219     1.0000 0.87380  0.05684  0.75970  Biso   1.000  C
  C220     1.0000 0.88210  0.02102  0.80880  Biso   1.000  C
  C221     1.0000 0.81130  0.09370  0.67320  Biso   1.000  C
  C222     1.0000 0.74870  0.10910  0.61690  Biso   1.000  C
  H144     1.0000 0.70120  0.11780  0.64560  Biso   1.000  H
  H145     1.0000 0.77140  0.13080  0.58800  Biso   1.000  H
  H146     1.0000 0.73310  0.08850  0.58100  Biso   1.000  H
  C223     1.0000 0.91080  0.19510  0.51650  Biso   1.000  C
  C224     1.0000 0.99900  0.18550  0.52140  Biso   1.000  C
  C225     1.0000 0.06230  0.18200  0.46800  Biso   1.000  C
  C226     1.0000 0.07030  0.18982  0.38150  Biso   1.000  C
  C227     1.0000 0.10800  0.16288  0.58160  Biso   1.000  C
  C228     1.0000 0.16550  0.15160  0.64640  Biso   1.000  C
  H147     1.0000 0.17730  0.17440  0.67820  Biso   1.000  H
  H148     1.0000 0.14060  0.13160  0.67850  Biso   1.000  H
  H149     1.0000 0.21560  0.14160  0.62420  Biso   1.000  H
  C229     1.0000 0.83170  0.19888  0.19280  Biso   1.000  C
  C230     1.0000 0.80730  0.22939  0.13600  Biso   1.000  C
  C231     1.0000 0.92520  0.99960  0.29600  Biso   1.000  C
  H150     1.0000 0.93670  0.01900  0.25880  Biso   1.000  H
  C232     1.0000 0.98610  0.98950  0.35020  Biso   1.000  C
  H151     1.0000 0.03700  0.00190  0.34810  Biso   1.000  H
  C233     1.0000 0.97060  0.96100  0.40730  Biso   1.000  C
  C234     1.0000 0.89170  0.94490  0.40770  Biso   1.000  C
  H152     1.0000 0.87750  0.92640  0.44580  Biso   1.000  H
  C235     1.0000 0.83500  0.95610  0.35220  Biso   1.000  C
  H153     1.0000 0.78290  0.94490  0.35430  Biso   1.000  H
  C236     1.0000 0.16500  0.95520  0.52890  Biso   1.000  C
  H154     1.0000 0.21460  0.96860  0.53300  Biso   1.000  H
  C237     1.0000 0.10750  0.96900  0.47410  Biso   1.000  C
  H155     1.0000 0.11840  0.99140  0.44400  Biso   1.000  H
  C238     1.0000 0.03340  0.94870  0.46540  Biso   1.000  C
  C239     1.0000 0.02150  0.91650  0.51490  Biso   1.000  C
  H156     1.0000 0.97200  0.90280  0.51280  Biso   1.000  H
  C240     1.0000 0.08120  0.90450  0.56680  Biso   1.000  C
  H157     1.0000 0.07180  0.88200  0.59720  Biso   1.000  H
  H158     1.0000 0.71770  0.27650  0.92460  Biso   1.000  H
  H159     1.0000 0.75210  0.23380  0.91090  Biso   1.000  H
  H160     1.0000 0.66390  0.23970  0.94600  Biso   1.000  H
  Eu9      1.0000 0.59508  0.75000  0.84997  Biso   1.000  Eu
  C241     1.0000 0.74620  0.75000  0.52570  Biso   1.000  C
  C242     1.0000 0.78120  0.75000  0.44460  Biso   1.000  C
  Eu10     1.0000 0.90492  0.25000  0.34997  Biso   1.000  Eu
  C243     1.0000 0.75380  0.25000  0.02570  Biso   1.000  C
  C244     1.0000 0.71880  0.25000  0.94460  Biso   1.000  C
  Eu11     1.0000 0.40492  0.25000  0.15003  Biso   1.000  Eu
  C245     1.0000 0.25380  0.25000  0.47430  Biso   1.000  C
  C246     1.0000 0.21880  0.25000  0.55540  Biso   1.000  C
  Eu12     1.0000 0.09508  0.75000  0.65003  Biso   1.000  Eu
  C247     1.0000 0.24620  0.75000  0.97430  Biso   1.000  C
  C248     1.0000 0.28120  0.75000  0.05540  Biso   1.000  C
