data_image0
_cell_length_a       22.5959
_cell_length_b       19.8166
_cell_length_c       19.817
_cell_angle_alpha    90
_cell_angle_beta     90
_cell_angle_gamma    90

_symmetry_space_group_name_H-M    "P 1"
_symmetry_int_tables_number       1

loop_
  _symmetry_equiv_pos_as_xyz
  'x, y, z'

loop_
  _atom_site_label
  _atom_site_occupancy
  _atom_site_fract_x
  _atom_site_fract_y
  _atom_site_fract_z
  _atom_site_thermal_displace_type
  _atom_site_B_iso_or_equiv
  _atom_site_type_symbol
  Cu1      1.0000 0.80451  0.23051  0.76506  Biso   1.000  Cu
  O1       1.0000 0.77500  0.13880  0.73760  Biso   1.000  O
  O2       1.0000 0.68860  0.17220  0.72040  Biso   1.000  O
  O3       1.0000 0.56050  0.05810  0.56640  Biso   1.000  O
  O4       1.0000 0.81420  0.24400  0.67240  Biso   1.000  O
  O5       1.0000 0.72790  0.28310  0.64370  Biso   1.000  O
  C1       1.0000 0.70280  0.06150  0.70400  Biso   1.000  C
  C2       1.0000 0.65530  0.05970  0.65620  Biso   1.000  C
  H1       1.0000 0.64160  0.10160  0.63890  Biso   1.000  H
  H2       1.0000 0.77300  0.95890  0.80300  Biso   1.000  H
  H3       1.0000 0.77150  0.03960  0.80500  Biso   1.000  H
  H4       1.0000 0.81290  0.99850  0.75170  Biso   1.000  H
  C3       1.0000 0.72360  0.13080  0.72010  Biso   1.000  C
  H5       1.0000 0.77570  0.31390  0.02810  Biso   1.000  H
  H6       1.0000 0.79140  0.28790  0.95370  Biso   1.000  H
  H7       1.0000 0.81570  0.24790  0.01820  Biso   1.000  H
  C4       1.0000 0.79580  0.29340  0.56030  Biso   1.000  C
  C5       1.0000 0.84850  0.33950  0.56220  Biso   1.000  C
  C6       1.0000 0.85900  0.35810  0.49100  Biso   1.000  C
  C7       1.0000 0.77940  0.27340  0.62890  Biso   1.000  C
  Cu2      1.0000 0.30451  0.73051  0.26506  Biso   1.000  Cu
  O6       1.0000 0.27500  0.63880  0.23760  Biso   1.000  O
  O7       1.0000 0.18860  0.67220  0.22040  Biso   1.000  O
  O8       1.0000 0.06050  0.55810  0.06640  Biso   1.000  O
  O9       1.0000 0.31420  0.74400  0.17240  Biso   1.000  O
  O10      1.0000 0.22790  0.78310  0.14370  Biso   1.000  O
  C8       1.0000 0.20280  0.56150  0.20400  Biso   1.000  C
  C9       1.0000 0.15530  0.55970  0.15620  Biso   1.000  C
  H8       1.0000 0.14160  0.60160  0.13890  Biso   1.000  H
  H9       1.0000 0.27300  0.45890  0.30300  Biso   1.000  H
  H10      1.0000 0.27150  0.53960  0.30500  Biso   1.000  H
  H11      1.0000 0.31290  0.49850  0.25170  Biso   1.000  H
  C10      1.0000 0.22360  0.63080  0.22010  Biso   1.000  C
  H12      1.0000 0.27570  0.81390  0.52810  Biso   1.000  H
  H13      1.0000 0.29140  0.78790  0.45370  Biso   1.000  H
  H14      1.0000 0.31570  0.74790  0.51820  Biso   1.000  H
  C11      1.0000 0.29580  0.79340  0.06030  Biso   1.000  C
  C12      1.0000 0.34850  0.83950  0.06220  Biso   1.000  C
  C13      1.0000 0.35900  0.85810  0.99100  Biso   1.000  C
  C14      1.0000 0.27940  0.77340  0.12890  Biso   1.000  C
  Cu3      1.0000 0.19549  0.76949  0.76506  Biso   1.000  Cu
  O11      1.0000 0.22500  0.86120  0.73760  Biso   1.000  O
  O12      1.0000 0.31140  0.82780  0.72040  Biso   1.000  O
  O13      1.0000 0.43950  0.94190  0.56640  Biso   1.000  O
  O14      1.0000 0.18580  0.75600  0.67240  Biso   1.000  O
  O15      1.0000 0.27210  0.71690  0.64370  Biso   1.000  O
  C15      1.0000 0.29720  0.93850  0.70400  Biso   1.000  C
  C16      1.0000 0.34470  0.94030  0.65620  Biso   1.000  C
  H15      1.0000 0.35840  0.89840  0.63890  Biso   1.000  H
  H16      1.0000 0.22700  0.04110  0.80300  Biso   1.000  H
  H17      1.0000 0.22850  0.96040  0.80500  Biso   1.000  H
  H18      1.0000 0.18710  0.00150  0.75170  Biso   1.000  H
  C17      1.0000 0.27640  0.86920  0.72010  Biso   1.000  C
  H19      1.0000 0.22430  0.68610  0.02810  Biso   1.000  H
  H20      1.0000 0.20860  0.71210  0.95370  Biso   1.000  H
  H21      1.0000 0.18430  0.75210  0.01820  Biso   1.000  H
  C18      1.0000 0.20420  0.70660  0.56030  Biso   1.000  C
  C19      1.0000 0.15150  0.66050  0.56220  Biso   1.000  C
  C20      1.0000 0.14100  0.64190  0.49100  Biso   1.000  C
  C21      1.0000 0.22060  0.72660  0.62890  Biso   1.000  C
  Cu4      1.0000 0.69549  0.26949  0.26506  Biso   1.000  Cu
  O16      1.0000 0.72500  0.36120  0.23760  Biso   1.000  O
  O17      1.0000 0.81140  0.32780  0.22040  Biso   1.000  O
  O18      1.0000 0.93950  0.44190  0.06640  Biso   1.000  O
  O19      1.0000 0.68580  0.25600  0.17240  Biso   1.000  O
  O20      1.0000 0.77210  0.21690  0.14370  Biso   1.000  O
  C22      1.0000 0.79720  0.43850  0.20400  Biso   1.000  C
  C23      1.0000 0.84470  0.44030  0.15620  Biso   1.000  C
  H22      1.0000 0.85840  0.39840  0.13890  Biso   1.000  H
  H23      1.0000 0.72700  0.54110  0.30300  Biso   1.000  H
  H24      1.0000 0.72850  0.46040  0.30500  Biso   1.000  H
  H25      1.0000 0.68710  0.50150  0.25170  Biso   1.000  H
  C24      1.0000 0.77640  0.36920  0.22010  Biso   1.000  C
  H26      1.0000 0.72430  0.18610  0.52810  Biso   1.000  H
  H27      1.0000 0.70860  0.21210  0.45370  Biso   1.000  H
  H28      1.0000 0.68430  0.25210  0.51820  Biso   1.000  H
  C25      1.0000 0.70420  0.20660  0.06030  Biso   1.000  C
  C26      1.0000 0.65150  0.16050  0.06220  Biso   1.000  C
  C27      1.0000 0.64100  0.14190  0.99100  Biso   1.000  C
  C28      1.0000 0.72060  0.22660  0.12890  Biso   1.000  C
  Cu5      1.0000 0.19549  0.23051  0.23494  Biso   1.000  Cu
  O21      1.0000 0.22500  0.13880  0.26240  Biso   1.000  O
  O22      1.0000 0.31140  0.17220  0.27960  Biso   1.000  O
  O23      1.0000 0.43950  0.05810  0.43360  Biso   1.000  O
  O24      1.0000 0.18580  0.24400  0.32760  Biso   1.000  O
  O25      1.0000 0.27210  0.28310  0.35630  Biso   1.000  O
  C29      1.0000 0.29720  0.06150  0.29600  Biso   1.000  C
  C30      1.0000 0.34470  0.05970  0.34380  Biso   1.000  C
  H29      1.0000 0.35840  0.10160  0.36110  Biso   1.000  H
  H30      1.0000 0.22700  0.95890  0.19700  Biso   1.000  H
  H31      1.0000 0.22850  0.03960  0.19500  Biso   1.000  H
  H32      1.0000 0.18710  0.99850  0.24830  Biso   1.000  H
  C31      1.0000 0.27640  0.13080  0.27990  Biso   1.000  C
  H33      1.0000 0.22430  0.31390  0.97190  Biso   1.000  H
  H34      1.0000 0.20860  0.28790  0.04630  Biso   1.000  H
  H35      1.0000 0.18430  0.24790  0.98180  Biso   1.000  H
  C32      1.0000 0.20420  0.29340  0.43970  Biso   1.000  C
  C33      1.0000 0.15150  0.33950  0.43780  Biso   1.000  C
  C34      1.0000 0.14100  0.35810  0.50900  Biso   1.000  C
  C35      1.0000 0.22060  0.27340  0.37110  Biso   1.000  C
  Cu6      1.0000 0.69549  0.73051  0.73494  Biso   1.000  Cu
  O26      1.0000 0.72500  0.63880  0.76240  Biso   1.000  O
  O27      1.0000 0.81140  0.67220  0.77960  Biso   1.000  O
  O28      1.0000 0.93950  0.55810  0.93360  Biso   1.000  O
  O29      1.0000 0.68580  0.74400  0.82760  Biso   1.000  O
  O30      1.0000 0.77210  0.78310  0.85630  Biso   1.000  O
  C36      1.0000 0.79720  0.56150  0.79600  Biso   1.000  C
  C37      1.0000 0.84470  0.55970  0.84380  Biso   1.000  C
  H36      1.0000 0.85840  0.60160  0.86110  Biso   1.000  H
  H37      1.0000 0.72700  0.45890  0.69700  Biso   1.000  H
  H38      1.0000 0.72850  0.53960  0.69500  Biso   1.000  H
  H39      1.0000 0.68710  0.49850  0.74830  Biso   1.000  H
  C38      1.0000 0.77640  0.63080  0.77990  Biso   1.000  C
  H40      1.0000 0.72430  0.81390  0.47190  Biso   1.000  H
  H41      1.0000 0.70860  0.78790  0.54630  Biso   1.000  H
  H42      1.0000 0.68430  0.74790  0.48180  Biso   1.000  H
  C39      1.0000 0.70420  0.79340  0.93970  Biso   1.000  C
  C40      1.0000 0.65150  0.83950  0.93780  Biso   1.000  C
  C41      1.0000 0.64100  0.85810  0.00900  Biso   1.000  C
  C42      1.0000 0.72060  0.77340  0.87110  Biso   1.000  C
  Cu7      1.0000 0.80451  0.76949  0.23494  Biso   1.000  Cu
  O31      1.0000 0.77500  0.86120  0.26240  Biso   1.000  O
  O32      1.0000 0.68860  0.82780  0.27960  Biso   1.000  O
  O33      1.0000 0.56050  0.94190  0.43360  Biso   1.000  O
  O34      1.0000 0.81420  0.75600  0.32760  Biso   1.000  O
  O35      1.0000 0.72790  0.71690  0.35630  Biso   1.000  O
  C43      1.0000 0.70280  0.93850  0.29600  Biso   1.000  C
  C44      1.0000 0.65530  0.94030  0.34380  Biso   1.000  C
  H43      1.0000 0.64160  0.89840  0.36110  Biso   1.000  H
  H44      1.0000 0.77300  0.04110  0.19700  Biso   1.000  H
  H45      1.0000 0.77150  0.96040  0.19500  Biso   1.000  H
  H46      1.0000 0.81290  0.00150  0.24830  Biso   1.000  H
  C45      1.0000 0.72360  0.86920  0.27990  Biso   1.000  C
  H47      1.0000 0.77570  0.68610  0.97190  Biso   1.000  H
  H48      1.0000 0.79140  0.71210  0.04630  Biso   1.000  H
  H49      1.0000 0.81570  0.75210  0.98180  Biso   1.000  H
  C46      1.0000 0.79580  0.70660  0.43970  Biso   1.000  C
  C47      1.0000 0.84850  0.66050  0.43780  Biso   1.000  C
  C48      1.0000 0.85900  0.64190  0.50900  Biso   1.000  C
  C49      1.0000 0.77940  0.72660  0.37110  Biso   1.000  C
  Cu8      1.0000 0.30451  0.26949  0.73494  Biso   1.000  Cu
  O36      1.0000 0.27500  0.36120  0.76240  Biso   1.000  O
  O37      1.0000 0.18860  0.32780  0.77960  Biso   1.000  O
  O38      1.0000 0.06050  0.44190  0.93360  Biso   1.000  O
  O39      1.0000 0.31420  0.25600  0.82760  Biso   1.000  O
  O40      1.0000 0.22790  0.21690  0.85630  Biso   1.000  O
  C50      1.0000 0.20280  0.43850  0.79600  Biso   1.000  C
  C51      1.0000 0.15530  0.44030  0.84380  Biso   1.000  C
  H50      1.0000 0.14160  0.39840  0.86110  Biso   1.000  H
  H51      1.0000 0.27300  0.54110  0.69700  Biso   1.000  H
  H52      1.0000 0.27150  0.46040  0.69500  Biso   1.000  H
  H53      1.0000 0.31290  0.50150  0.74830  Biso   1.000  H
  C52      1.0000 0.22360  0.36920  0.77990  Biso   1.000  C
  H54      1.0000 0.27570  0.18610  0.47190  Biso   1.000  H
  H55      1.0000 0.29140  0.21210  0.54630  Biso   1.000  H
  H56      1.0000 0.31570  0.25210  0.48180  Biso   1.000  H
  C53      1.0000 0.29580  0.20660  0.93970  Biso   1.000  C
  C54      1.0000 0.34850  0.16050  0.93780  Biso   1.000  C
  C55      1.0000 0.35900  0.14190  0.00900  Biso   1.000  C
  C56      1.0000 0.27940  0.22660  0.87110  Biso   1.000  C
  Cu9      1.0000 0.19549  0.76949  0.23494  Biso   1.000  Cu
  O41      1.0000 0.22500  0.86120  0.26240  Biso   1.000  O
  O42      1.0000 0.31140  0.82780  0.27960  Biso   1.000  O
  O43      1.0000 0.43950  0.94190  0.43360  Biso   1.000  O
  O44      1.0000 0.18580  0.75600  0.32760  Biso   1.000  O
  O45      1.0000 0.27210  0.71690  0.35630  Biso   1.000  O
  C57      1.0000 0.29720  0.93850  0.29600  Biso   1.000  C
  C58      1.0000 0.34470  0.94030  0.34380  Biso   1.000  C
  H57      1.0000 0.35840  0.89840  0.36110  Biso   1.000  H
  H58      1.0000 0.22700  0.04110  0.19700  Biso   1.000  H
  H59      1.0000 0.22850  0.96040  0.19500  Biso   1.000  H
  H60      1.0000 0.18710  0.00150  0.24830  Biso   1.000  H
  C59      1.0000 0.27640  0.86920  0.27990  Biso   1.000  C
  H61      1.0000 0.22430  0.68610  0.97190  Biso   1.000  H
  H62      1.0000 0.20860  0.71210  0.04630  Biso   1.000  H
  H63      1.0000 0.18430  0.75210  0.98180  Biso   1.000  H
  C60      1.0000 0.20420  0.70660  0.43970  Biso   1.000  C
  C61      1.0000 0.15150  0.66050  0.43780  Biso   1.000  C
  C62      1.0000 0.14100  0.64190  0.50900  Biso   1.000  C
  C63      1.0000 0.22060  0.72660  0.37110  Biso   1.000  C
  Cu10     1.0000 0.69549  0.26949  0.73494  Biso   1.000  Cu
  O46      1.0000 0.72500  0.36120  0.76240  Biso   1.000  O
  O47      1.0000 0.81140  0.32780  0.77960  Biso   1.000  O
  O48      1.0000 0.93950  0.44190  0.93360  Biso   1.000  O
  O49      1.0000 0.68580  0.25600  0.82760  Biso   1.000  O
  O50      1.0000 0.77210  0.21690  0.85630  Biso   1.000  O
  C64      1.0000 0.79720  0.43850  0.79600  Biso   1.000  C
  C65      1.0000 0.84470  0.44030  0.84380  Biso   1.000  C
  H64      1.0000 0.85840  0.39840  0.86110  Biso   1.000  H
  H65      1.0000 0.72700  0.54110  0.69700  Biso   1.000  H
  H66      1.0000 0.72850  0.46040  0.69500  Biso   1.000  H
  H67      1.0000 0.68710  0.50150  0.74830  Biso   1.000  H
  C66      1.0000 0.77640  0.36920  0.77990  Biso   1.000  C
  H68      1.0000 0.72430  0.18610  0.47190  Biso   1.000  H
  H69      1.0000 0.70860  0.21210  0.54630  Biso   1.000  H
  H70      1.0000 0.68430  0.25210  0.48180  Biso   1.000  H
  C67      1.0000 0.70420  0.20660  0.93970  Biso   1.000  C
  C68      1.0000 0.65150  0.16050  0.93780  Biso   1.000  C
  C69      1.0000 0.64100  0.14190  0.00900  Biso   1.000  C
  C70      1.0000 0.72060  0.22660  0.87110  Biso   1.000  C
  Cu11     1.0000 0.80451  0.23051  0.23494  Biso   1.000  Cu
  O51      1.0000 0.77500  0.13880  0.26240  Biso   1.000  O
  O52      1.0000 0.68860  0.17220  0.27960  Biso   1.000  O
  O53      1.0000 0.56050  0.05810  0.43360  Biso   1.000  O
  O54      1.0000 0.81420  0.24400  0.32760  Biso   1.000  O
  O55      1.0000 0.72790  0.28310  0.35630  Biso   1.000  O
  C71      1.0000 0.70280  0.06150  0.29600  Biso   1.000  C
  C72      1.0000 0.65530  0.05970  0.34380  Biso   1.000  C
  H71      1.0000 0.64160  0.10160  0.36110  Biso   1.000  H
  H72      1.0000 0.77300  0.95890  0.19700  Biso   1.000  H
  H73      1.0000 0.77150  0.03960  0.19500  Biso   1.000  H
  H74      1.0000 0.81290  0.99850  0.24830  Biso   1.000  H
  C73      1.0000 0.72360  0.13080  0.27990  Biso   1.000  C
  H75      1.0000 0.77570  0.31390  0.97190  Biso   1.000  H
  H76      1.0000 0.79140  0.28790  0.04630  Biso   1.000  H
  H77      1.0000 0.81570  0.24790  0.98180  Biso   1.000  H
  C74      1.0000 0.79580  0.29340  0.43970  Biso   1.000  C
  C75      1.0000 0.84850  0.33950  0.43780  Biso   1.000  C
  C76      1.0000 0.85900  0.35810  0.50900  Biso   1.000  C
  C77      1.0000 0.77940  0.27340  0.37110  Biso   1.000  C
  Cu12     1.0000 0.30451  0.73051  0.73494  Biso   1.000  Cu
  O56      1.0000 0.27500  0.63880  0.76240  Biso   1.000  O
  O57      1.0000 0.18860  0.67220  0.77960  Biso   1.000  O
  O58      1.0000 0.06050  0.55810  0.93360  Biso   1.000  O
  O59      1.0000 0.31420  0.74400  0.82760  Biso   1.000  O
  O60      1.0000 0.22790  0.78310  0.85630  Biso   1.000  O
  C78      1.0000 0.20280  0.56150  0.79600  Biso   1.000  C
  C79      1.0000 0.15530  0.55970  0.84380  Biso   1.000  C
  H78      1.0000 0.14160  0.60160  0.86110  Biso   1.000  H
  H79      1.0000 0.27300  0.45890  0.69700  Biso   1.000  H
  H80      1.0000 0.27150  0.53960  0.69500  Biso   1.000  H
  H81      1.0000 0.31290  0.49850  0.74830  Biso   1.000  H
  C80      1.0000 0.22360  0.63080  0.77990  Biso   1.000  C
  H82      1.0000 0.27570  0.81390  0.47190  Biso   1.000  H
  H83      1.0000 0.29140  0.78790  0.54630  Biso   1.000  H
  H84      1.0000 0.31570  0.74790  0.48180  Biso   1.000  H
  C81      1.0000 0.29580  0.79340  0.93970  Biso   1.000  C
  C82      1.0000 0.34850  0.83950  0.93780  Biso   1.000  C
  C83      1.0000 0.35900  0.85810  0.00900  Biso   1.000  C
  C84      1.0000 0.27940  0.77340  0.87110  Biso   1.000  C
  Cu13     1.0000 0.80451  0.76949  0.76506  Biso   1.000  Cu
  O61      1.0000 0.77500  0.86120  0.73760  Biso   1.000  O
  O62      1.0000 0.68860  0.82780  0.72040  Biso   1.000  O
  O63      1.0000 0.56050  0.94190  0.56640  Biso   1.000  O
  O64      1.0000 0.81420  0.75600  0.67240  Biso   1.000  O
  O65      1.0000 0.72790  0.71690  0.64370  Biso   1.000  O
  C85      1.0000 0.70280  0.93850  0.70400  Biso   1.000  C
  C86      1.0000 0.65530  0.94030  0.65620  Biso   1.000  C
  H85      1.0000 0.64160  0.89840  0.63890  Biso   1.000  H
  H86      1.0000 0.77300  0.04110  0.80300  Biso   1.000  H
  H87      1.0000 0.77150  0.96040  0.80500  Biso   1.000  H
  H88      1.0000 0.81290  0.00150  0.75170  Biso   1.000  H
  C87      1.0000 0.72360  0.86920  0.72010  Biso   1.000  C
  H89      1.0000 0.77570  0.68610  0.02810  Biso   1.000  H
  H90      1.0000 0.79140  0.71210  0.95370  Biso   1.000  H
  H91      1.0000 0.81570  0.75210  0.01820  Biso   1.000  H
  C88      1.0000 0.79580  0.70660  0.56030  Biso   1.000  C
  C89      1.0000 0.84850  0.66050  0.56220  Biso   1.000  C
  C90      1.0000 0.85900  0.64190  0.49100  Biso   1.000  C
  C91      1.0000 0.77940  0.72660  0.62890  Biso   1.000  C
  Cu14     1.0000 0.30451  0.26949  0.26506  Biso   1.000  Cu
  O66      1.0000 0.27500  0.36120  0.23760  Biso   1.000  O
  O67      1.0000 0.18860  0.32780  0.22040  Biso   1.000  O
  O68      1.0000 0.06050  0.44190  0.06640  Biso   1.000  O
  O69      1.0000 0.31420  0.25600  0.17240  Biso   1.000  O
  O70      1.0000 0.22790  0.21690  0.14370  Biso   1.000  O
  C92      1.0000 0.20280  0.43850  0.20400  Biso   1.000  C
  C93      1.0000 0.15530  0.44030  0.15620  Biso   1.000  C
  H92      1.0000 0.14160  0.39840  0.13890  Biso   1.000  H
  H93      1.0000 0.27300  0.54110  0.30300  Biso   1.000  H
  H94      1.0000 0.27150  0.46040  0.30500  Biso   1.000  H
  H95      1.0000 0.31290  0.50150  0.25170  Biso   1.000  H
  C94      1.0000 0.22360  0.36920  0.22010  Biso   1.000  C
  H96      1.0000 0.27570  0.18610  0.52810  Biso   1.000  H
  H97      1.0000 0.29140  0.21210  0.45370  Biso   1.000  H
  H98      1.0000 0.31570  0.25210  0.51820  Biso   1.000  H
  C95      1.0000 0.29580  0.20660  0.06030  Biso   1.000  C
  C96      1.0000 0.34850  0.16050  0.06220  Biso   1.000  C
  C97      1.0000 0.35900  0.14190  0.99100  Biso   1.000  C
  C98      1.0000 0.27940  0.22660  0.12890  Biso   1.000  C
  Cu15     1.0000 0.19549  0.23051  0.76506  Biso   1.000  Cu
  O71      1.0000 0.22500  0.13880  0.73760  Biso   1.000  O
  O72      1.0000 0.31140  0.17220  0.72040  Biso   1.000  O
  O73      1.0000 0.43950  0.05810  0.56640  Biso   1.000  O
  O74      1.0000 0.18580  0.24400  0.67240  Biso   1.000  O
  O75      1.0000 0.27210  0.28310  0.64370  Biso   1.000  O
  C99      1.0000 0.29720  0.06150  0.70400  Biso   1.000  C
  C100     1.0000 0.34470  0.05970  0.65620  Biso   1.000  C
  H99      1.0000 0.35840  0.10160  0.63890  Biso   1.000  H
  H100     1.0000 0.22700  0.95890  0.80300  Biso   1.000  H
  H101     1.0000 0.22850  0.03960  0.80500  Biso   1.000  H
  H102     1.0000 0.18710  0.99850  0.75170  Biso   1.000  H
  C101     1.0000 0.27640  0.13080  0.72010  Biso   1.000  C
  H103     1.0000 0.22430  0.31390  0.02810  Biso   1.000  H
  H104     1.0000 0.20860  0.28790  0.95370  Biso   1.000  H
  H105     1.0000 0.18430  0.24790  0.01820  Biso   1.000  H
  C102     1.0000 0.20420  0.29340  0.56030  Biso   1.000  C
  C103     1.0000 0.15150  0.33950  0.56220  Biso   1.000  C
  C104     1.0000 0.14100  0.35810  0.49100  Biso   1.000  C
  C105     1.0000 0.22060  0.27340  0.62890  Biso   1.000  C
  Cu16     1.0000 0.69549  0.73051  0.26506  Biso   1.000  Cu
  O76      1.0000 0.72500  0.63880  0.23760  Biso   1.000  O
  O77      1.0000 0.81140  0.67220  0.22040  Biso   1.000  O
  O78      1.0000 0.93950  0.55810  0.06640  Biso   1.000  O
  O79      1.0000 0.68580  0.74400  0.17240  Biso   1.000  O
  O80      1.0000 0.77210  0.78310  0.14370  Biso   1.000  O
  C106     1.0000 0.79720  0.56150  0.20400  Biso   1.000  C
  C107     1.0000 0.84470  0.55970  0.15620  Biso   1.000  C
  H106     1.0000 0.85840  0.60160  0.13890  Biso   1.000  H
  H107     1.0000 0.72700  0.45890  0.30300  Biso   1.000  H
  H108     1.0000 0.72850  0.53960  0.30500  Biso   1.000  H
  H109     1.0000 0.68710  0.49850  0.25170  Biso   1.000  H
  C108     1.0000 0.77640  0.63080  0.22010  Biso   1.000  C
  H110     1.0000 0.72430  0.81390  0.52810  Biso   1.000  H
  H111     1.0000 0.70860  0.78790  0.45370  Biso   1.000  H
  H112     1.0000 0.68430  0.74790  0.51820  Biso   1.000  H
  C109     1.0000 0.70420  0.79340  0.06030  Biso   1.000  C
  C110     1.0000 0.65150  0.83950  0.06220  Biso   1.000  C
  C111     1.0000 0.64100  0.85810  0.99100  Biso   1.000  C
  C112     1.0000 0.72060  0.77340  0.12890  Biso   1.000  C
  Cu17     1.0000 0.50000  0.06685  0.50000  Biso   1.000  Cu
  Cu18     1.0000 0.00000  0.56685  0.00000  Biso   1.000  Cu
  Cu19     1.0000 0.50000  0.93315  0.50000  Biso   1.000  Cu
  Cu20     1.0000 0.00000  0.43315  0.00000  Biso   1.000  Cu
  C113     1.0000 0.62700  0.00000  0.63270  Biso   1.000  C
  C114     1.0000 0.58310  0.00000  0.58610  Biso   1.000  C
  C115     1.0000 0.72690  0.00000  0.72710  Biso   1.000  C
  C116     1.0000 0.77500  0.00000  0.77570  Biso   1.000  C
  C117     1.0000 0.12700  0.50000  0.13270  Biso   1.000  C
  C118     1.0000 0.08310  0.50000  0.08610  Biso   1.000  C
  C119     1.0000 0.22690  0.50000  0.22710  Biso   1.000  C
  C120     1.0000 0.27500  0.50000  0.27570  Biso   1.000  C
  C121     1.0000 0.37300  0.00000  0.63270  Biso   1.000  C
  C122     1.0000 0.41690  0.00000  0.58610  Biso   1.000  C
  C123     1.0000 0.27310  0.00000  0.72710  Biso   1.000  C
  C124     1.0000 0.22500  0.00000  0.77570  Biso   1.000  C
  C125     1.0000 0.87300  0.50000  0.13270  Biso   1.000  C
  C126     1.0000 0.91690  0.50000  0.08610  Biso   1.000  C
  C127     1.0000 0.77310  0.50000  0.22710  Biso   1.000  C
  C128     1.0000 0.72500  0.50000  0.27570  Biso   1.000  C
  C129     1.0000 0.37300  0.00000  0.36730  Biso   1.000  C
  C130     1.0000 0.41690  0.00000  0.41390  Biso   1.000  C
  C131     1.0000 0.27310  0.00000  0.27290  Biso   1.000  C
  C132     1.0000 0.22500  0.00000  0.22430  Biso   1.000  C
  C133     1.0000 0.87300  0.50000  0.86730  Biso   1.000  C
  C134     1.0000 0.91690  0.50000  0.91390  Biso   1.000  C
  C135     1.0000 0.77310  0.50000  0.77290  Biso   1.000  C
  C136     1.0000 0.72500  0.50000  0.72430  Biso   1.000  C
  C137     1.0000 0.62700  0.00000  0.36730  Biso   1.000  C
  C138     1.0000 0.58310  0.00000  0.41390  Biso   1.000  C
  C139     1.0000 0.72690  0.00000  0.27290  Biso   1.000  C
  C140     1.0000 0.77500  0.00000  0.22430  Biso   1.000  C
  C141     1.0000 0.12700  0.50000  0.86730  Biso   1.000  C
  C142     1.0000 0.08310  0.50000  0.91390  Biso   1.000  C
  C143     1.0000 0.22690  0.50000  0.77290  Biso   1.000  C
  C144     1.0000 0.27500  0.50000  0.72430  Biso   1.000  C
  C145     1.0000 0.71760  0.22610  0.50000  Biso   1.000  C
  C146     1.0000 0.77670  0.27260  0.50000  Biso   1.000  C
  C147     1.0000 0.21760  0.72610  0.00000  Biso   1.000  C
  C148     1.0000 0.27670  0.77260  0.00000  Biso   1.000  C
  C149     1.0000 0.28240  0.77390  0.50000  Biso   1.000  C
  C150     1.0000 0.22330  0.72740  0.50000  Biso   1.000  C
  C151     1.0000 0.78240  0.27390  0.00000  Biso   1.000  C
  C152     1.0000 0.72330  0.22740  0.00000  Biso   1.000  C
  C153     1.0000 0.28240  0.22610  0.50000  Biso   1.000  C
  C154     1.0000 0.22330  0.27260  0.50000  Biso   1.000  C
  C155     1.0000 0.78240  0.72610  0.00000  Biso   1.000  C
  C156     1.0000 0.72330  0.77260  0.00000  Biso   1.000  C
  C157     1.0000 0.71760  0.77390  0.50000  Biso   1.000  C
  C158     1.0000 0.77670  0.72740  0.50000  Biso   1.000  C
  C159     1.0000 0.21760  0.27390  0.00000  Biso   1.000  C
  C160     1.0000 0.27670  0.22740  0.00000  Biso   1.000  C
