data_image0
_cell_length_a       8.712
_cell_length_b       9.859
_cell_length_c       23.176
_cell_angle_alpha    90
_cell_angle_beta     90
_cell_angle_gamma    90

_symmetry_space_group_name_H-M    "P 1"
_symmetry_int_tables_number       1

loop_
  _symmetry_equiv_pos_as_xyz
  'x, y, z'

loop_
  _atom_site_label
  _atom_site_occupancy
  _atom_site_fract_x
  _atom_site_fract_y
  _atom_site_fract_z
  _atom_site_thermal_displace_type
  _atom_site_B_iso_or_equiv
  _atom_site_type_symbol
  Gd1      1.0000 0.04409  0.12998  0.25469  Biso   1.000  Gd
  P1       1.0000 0.01760  0.38950  0.36425  Biso   1.000  P
  P2       1.0000 0.70470  0.35240  0.22320  Biso   1.000  P
  P3       1.0000 0.78630  0.89010  0.33130  Biso   1.000  P
  O1       1.0000 0.07130  0.26050  0.33470  Biso   1.000  O
  O2       1.0000 0.86710  0.37500  0.39650  Biso   1.000  O
  O3       1.0000 0.01970  0.51130  0.32520  Biso   1.000  O
  O4       1.0000 0.84650  0.26360  0.22820  Biso   1.000  O
  O5       1.0000 0.73940  0.50130  0.23240  Biso   1.000  O
  O6       1.0000 0.61730  0.32320  0.16730  Biso   1.000  O
  O7       1.0000 0.89230  0.00310  0.31270  Biso   1.000  O
  O8       1.0000 0.78260  0.76680  0.29270  Biso   1.000  O
  O9       1.0000 0.62530  0.95060  0.34330  Biso   1.000  O
  H1       1.0000 0.56080  0.90930  0.32450  Biso   1.000  H
  N1       1.0000 0.32520  0.41010  0.40390  Biso   1.000  N
  H2       1.0000 0.38010  0.44020  0.43480  Biso   1.000  H
  N2       1.0000 0.60460  0.35120  0.33910  Biso   1.000  N
  H3       1.0000 0.70840  0.35740  0.34260  Biso   1.000  H
  N3       1.0000 0.83700  0.92740  0.45020  Biso   1.000  N
  N4       1.0000 0.09900  0.41170  0.05280  Biso   1.000  N
  C1       1.0000 0.15920  0.42190  0.42010  Biso   1.000  C
  H4       1.0000 0.14200  0.51280  0.43470  Biso   1.000  H
  H5       1.0000 0.13980  0.35950  0.45160  Biso   1.000  H
  C2       1.0000 0.36920  0.49650  0.35460  Biso   1.000  C
  H6       1.0000 0.33650  0.58900  0.36160  Biso   1.000  H
  H7       1.0000 0.31850  0.46450  0.31990  Biso   1.000  H
  C3       1.0000 0.54000  0.49280  0.34610  Biso   1.000  C
  H8       1.0000 0.58880  0.53560  0.37900  Biso   1.000  H
  H9       1.0000 0.56570  0.54560  0.31210  Biso   1.000  H
  C4       1.0000 0.54920  0.26330  0.38670  Biso   1.000  C
  H10      1.0000 0.59530  0.29350  0.42260  Biso   1.000  H
  H11      1.0000 0.58330  0.17110  0.37970  Biso   1.000  H
  C5       1.0000 0.37440  0.26350  0.39350  Biso   1.000  C
  H12      1.0000 0.32610  0.22840  0.35890  Biso   1.000  H
  H13      1.0000 0.34450  0.20710  0.42590  Biso   1.000  H
  C6       1.0000 0.57080  0.29550  0.27990  Biso   1.000  C
  H14      1.0000 0.46760  0.32200  0.26900  Biso   1.000  H
  H15      1.0000 0.57350  0.19720  0.28170  Biso   1.000  H
  C7       1.0000 0.85340  0.82470  0.40040  Biso   1.000  C
  H16      1.0000 0.79570  0.74350  0.40990  Biso   1.000  H
  H17      1.0000 0.96050  0.79920  0.39680  Biso   1.000  H
  C8       1.0000 0.87630  0.85620  0.50500  Biso   1.000  C
  H18      1.0000 0.98580  0.83860  0.50680  Biso   1.000  H
  H19      1.0000 0.82230  0.77030  0.50730  Biso   1.000  H
  C9       1.0000 0.82600  0.04800  0.44430  Biso   1.000  C
  H20      1.0000 0.71580  0.03700  0.44530  Biso   1.000  H
  H21      1.0000 0.85280  0.09090  0.40790  Biso   1.000  H
  C10      1.0000 0.09000  0.55900  0.05490  Biso   1.000  C
  H22      1.0000 0.12550  0.60400  0.08960  Biso   1.000  H
  H23      1.0000 0.97950  0.54710  0.05810  Biso   1.000  H
  Gd2      1.0000 0.04409  0.87002  0.74531  Biso   1.000  Gd
  P4       1.0000 0.01760  0.61050  0.63575  Biso   1.000  P
  P5       1.0000 0.70470  0.64760  0.77680  Biso   1.000  P
  P6       1.0000 0.78630  0.10990  0.66870  Biso   1.000  P
  O10      1.0000 0.07130  0.73950  0.66530  Biso   1.000  O
  O11      1.0000 0.86710  0.62500  0.60350  Biso   1.000  O
  O12      1.0000 0.01970  0.48870  0.67480  Biso   1.000  O
  O13      1.0000 0.84650  0.73640  0.77180  Biso   1.000  O
  O14      1.0000 0.73940  0.49870  0.76760  Biso   1.000  O
  O15      1.0000 0.61730  0.67680  0.83270  Biso   1.000  O
  O16      1.0000 0.89230  0.99690  0.68730  Biso   1.000  O
  O17      1.0000 0.78260  0.23320  0.70730  Biso   1.000  O
  O18      1.0000 0.62530  0.04940  0.65670  Biso   1.000  O
  H24      1.0000 0.56080  0.09070  0.67550  Biso   1.000  H
  N5       1.0000 0.32520  0.58990  0.59610  Biso   1.000  N
  H25      1.0000 0.38010  0.55980  0.56520  Biso   1.000  H
  N6       1.0000 0.60460  0.64880  0.66090  Biso   1.000  N
  H26      1.0000 0.70840  0.64260  0.65740  Biso   1.000  H
  N7       1.0000 0.83700  0.07260  0.54980  Biso   1.000  N
  N8       1.0000 0.09900  0.58830  0.94720  Biso   1.000  N
  C11      1.0000 0.15920  0.57810  0.57990  Biso   1.000  C
  H27      1.0000 0.14200  0.48720  0.56530  Biso   1.000  H
  H28      1.0000 0.13980  0.64050  0.54840  Biso   1.000  H
  C12      1.0000 0.36920  0.50350  0.64540  Biso   1.000  C
  H29      1.0000 0.33650  0.41100  0.63840  Biso   1.000  H
  H30      1.0000 0.31850  0.53550  0.68010  Biso   1.000  H
  C13      1.0000 0.54000  0.50720  0.65390  Biso   1.000  C
  H31      1.0000 0.58880  0.46440  0.62100  Biso   1.000  H
  H32      1.0000 0.56570  0.45440  0.68790  Biso   1.000  H
  C14      1.0000 0.54920  0.73670  0.61330  Biso   1.000  C
  H33      1.0000 0.59530  0.70650  0.57740  Biso   1.000  H
  H34      1.0000 0.58330  0.82890  0.62030  Biso   1.000  H
  C15      1.0000 0.37440  0.73650  0.60650  Biso   1.000  C
  H35      1.0000 0.32610  0.77160  0.64110  Biso   1.000  H
  H36      1.0000 0.34450  0.79290  0.57410  Biso   1.000  H
  C16      1.0000 0.57080  0.70450  0.72010  Biso   1.000  C
  H37      1.0000 0.46760  0.67800  0.73100  Biso   1.000  H
  H38      1.0000 0.57350  0.80280  0.71830  Biso   1.000  H
  C17      1.0000 0.85340  0.17530  0.59960  Biso   1.000  C
  H39      1.0000 0.79570  0.25650  0.59010  Biso   1.000  H
  H40      1.0000 0.96050  0.20080  0.60320  Biso   1.000  H
  C18      1.0000 0.87630  0.14380  0.49500  Biso   1.000  C
  H41      1.0000 0.98580  0.16140  0.49320  Biso   1.000  H
  H42      1.0000 0.82230  0.22970  0.49270  Biso   1.000  H
  C19      1.0000 0.82600  0.95200  0.55570  Biso   1.000  C
  H43      1.0000 0.71580  0.96300  0.55470  Biso   1.000  H
  H44      1.0000 0.85280  0.90910  0.59210  Biso   1.000  H
  C20      1.0000 0.09000  0.44100  0.94510  Biso   1.000  C
  H45      1.0000 0.12550  0.39600  0.91040  Biso   1.000  H
  H46      1.0000 0.97950  0.45290  0.94190  Biso   1.000  H
  Gd3      1.0000 0.95591  0.37002  0.75469  Biso   1.000  Gd
  P7       1.0000 0.98240  0.11050  0.86425  Biso   1.000  P
  P8       1.0000 0.29530  0.14760  0.72320  Biso   1.000  P
  P9       1.0000 0.21370  0.60990  0.83130  Biso   1.000  P
  O19      1.0000 0.92870  0.23950  0.83470  Biso   1.000  O
  O20      1.0000 0.13290  0.12500  0.89650  Biso   1.000  O
  O21      1.0000 0.98030  0.98870  0.82520  Biso   1.000  O
  O22      1.0000 0.15350  0.23640  0.72820  Biso   1.000  O
  O23      1.0000 0.26060  0.99870  0.73240  Biso   1.000  O
  O24      1.0000 0.38270  0.17680  0.66730  Biso   1.000  O
  O25      1.0000 0.10770  0.49690  0.81270  Biso   1.000  O
  O26      1.0000 0.21740  0.73320  0.79270  Biso   1.000  O
  O27      1.0000 0.37470  0.54940  0.84330  Biso   1.000  O
  H47      1.0000 0.43920  0.59070  0.82450  Biso   1.000  H
  N9       1.0000 0.67480  0.08990  0.90390  Biso   1.000  N
  H48      1.0000 0.61990  0.05980  0.93480  Biso   1.000  H
  N10      1.0000 0.39540  0.14880  0.83910  Biso   1.000  N
  H49      1.0000 0.29160  0.14260  0.84260  Biso   1.000  H
  N11      1.0000 0.16300  0.57260  0.95020  Biso   1.000  N
  N12      1.0000 0.90100  0.08830  0.55280  Biso   1.000  N
  C21      1.0000 0.84080  0.07810  0.92010  Biso   1.000  C
  H50      1.0000 0.85800  0.98720  0.93470  Biso   1.000  H
  H51      1.0000 0.86020  0.14050  0.95160  Biso   1.000  H
  C22      1.0000 0.63080  0.00350  0.85460  Biso   1.000  C
  H52      1.0000 0.66350  0.91100  0.86160  Biso   1.000  H
  H53      1.0000 0.68150  0.03550  0.81990  Biso   1.000  H
  C23      1.0000 0.46000  0.00720  0.84610  Biso   1.000  C
  H54      1.0000 0.41120  0.96440  0.87900  Biso   1.000  H
  H55      1.0000 0.43430  0.95440  0.81210  Biso   1.000  H
  C24      1.0000 0.45080  0.23670  0.88670  Biso   1.000  C
  H56      1.0000 0.40470  0.20650  0.92260  Biso   1.000  H
  H57      1.0000 0.41670  0.32890  0.87970  Biso   1.000  H
  C25      1.0000 0.62560  0.23650  0.89350  Biso   1.000  C
  H58      1.0000 0.67390  0.27160  0.85890  Biso   1.000  H
  H59      1.0000 0.65550  0.29290  0.92590  Biso   1.000  H
  C26      1.0000 0.42920  0.20450  0.77990  Biso   1.000  C
  H60      1.0000 0.53240  0.17800  0.76900  Biso   1.000  H
  H61      1.0000 0.42650  0.30280  0.78170  Biso   1.000  H
  C27      1.0000 0.14660  0.67530  0.90040  Biso   1.000  C
  H62      1.0000 0.20430  0.75650  0.90990  Biso   1.000  H
  H63      1.0000 0.03950  0.70080  0.89680  Biso   1.000  H
  C28      1.0000 0.12370  0.64380  0.00500  Biso   1.000  C
  H64      1.0000 0.01420  0.66140  0.00680  Biso   1.000  H
  H65      1.0000 0.17770  0.72970  0.00730  Biso   1.000  H
  C29      1.0000 0.17400  0.45200  0.94430  Biso   1.000  C
  H66      1.0000 0.28420  0.46300  0.94530  Biso   1.000  H
  H67      1.0000 0.14720  0.40910  0.90790  Biso   1.000  H
  C30      1.0000 0.91000  0.94100  0.55490  Biso   1.000  C
  H68      1.0000 0.87450  0.89600  0.58960  Biso   1.000  H
  H69      1.0000 0.02050  0.95290  0.55810  Biso   1.000  H
  Gd4      1.0000 0.95591  0.62998  0.24531  Biso   1.000  Gd
  P10      1.0000 0.98240  0.88950  0.13575  Biso   1.000  P
  P11      1.0000 0.29530  0.85240  0.27680  Biso   1.000  P
  P12      1.0000 0.21370  0.39010  0.16870  Biso   1.000  P
  O28      1.0000 0.92870  0.76050  0.16530  Biso   1.000  O
  O29      1.0000 0.13290  0.87500  0.10350  Biso   1.000  O
  O30      1.0000 0.98030  0.01130  0.17480  Biso   1.000  O
  O31      1.0000 0.15350  0.76360  0.27180  Biso   1.000  O
  O32      1.0000 0.26060  0.00130  0.26760  Biso   1.000  O
  O33      1.0000 0.38270  0.82320  0.33270  Biso   1.000  O
  O34      1.0000 0.10770  0.50310  0.18730  Biso   1.000  O
  O35      1.0000 0.21740  0.26680  0.20730  Biso   1.000  O
  O36      1.0000 0.37470  0.45060  0.15670  Biso   1.000  O
  H70      1.0000 0.43920  0.40930  0.17550  Biso   1.000  H
  N13      1.0000 0.67480  0.91010  0.09610  Biso   1.000  N
  H71      1.0000 0.61990  0.94020  0.06520  Biso   1.000  H
  N14      1.0000 0.39540  0.85120  0.16090  Biso   1.000  N
  H72      1.0000 0.29160  0.85740  0.15740  Biso   1.000  H
  N15      1.0000 0.16300  0.42740  0.04980  Biso   1.000  N
  N16      1.0000 0.90100  0.91170  0.44720  Biso   1.000  N
  C31      1.0000 0.84080  0.92190  0.07990  Biso   1.000  C
  H73      1.0000 0.85800  0.01280  0.06530  Biso   1.000  H
  H74      1.0000 0.86020  0.85950  0.04840  Biso   1.000  H
  C32      1.0000 0.63080  0.99650  0.14540  Biso   1.000  C
  H75      1.0000 0.66350  0.08900  0.13840  Biso   1.000  H
  H76      1.0000 0.68150  0.96450  0.18010  Biso   1.000  H
  C33      1.0000 0.46000  0.99280  0.15390  Biso   1.000  C
  H77      1.0000 0.41120  0.03560  0.12100  Biso   1.000  H
  H78      1.0000 0.43430  0.04560  0.18790  Biso   1.000  H
  C34      1.0000 0.45080  0.76330  0.11330  Biso   1.000  C
  H79      1.0000 0.40470  0.79350  0.07740  Biso   1.000  H
  H80      1.0000 0.41670  0.67110  0.12030  Biso   1.000  H
  C35      1.0000 0.62560  0.76350  0.10650  Biso   1.000  C
  H81      1.0000 0.67390  0.72840  0.14110  Biso   1.000  H
  H82      1.0000 0.65550  0.70710  0.07410  Biso   1.000  H
  C36      1.0000 0.42920  0.79550  0.22010  Biso   1.000  C
  H83      1.0000 0.53240  0.82200  0.23100  Biso   1.000  H
  H84      1.0000 0.42650  0.69720  0.21830  Biso   1.000  H
  C37      1.0000 0.14660  0.32470  0.09960  Biso   1.000  C
  H85      1.0000 0.20430  0.24350  0.09010  Biso   1.000  H
  H86      1.0000 0.03950  0.29920  0.10320  Biso   1.000  H
  C38      1.0000 0.12370  0.35620  0.99500  Biso   1.000  C
  H87      1.0000 0.01420  0.33860  0.99320  Biso   1.000  H
  H88      1.0000 0.17770  0.27030  0.99270  Biso   1.000  H
  C39      1.0000 0.17400  0.54800  0.05570  Biso   1.000  C
  H89      1.0000 0.28420  0.53700  0.05470  Biso   1.000  H
  H90      1.0000 0.14720  0.59090  0.09210  Biso   1.000  H
  C40      1.0000 0.91000  0.05900  0.44510  Biso   1.000  C
  H91      1.0000 0.87450  0.10400  0.41040  Biso   1.000  H
  H92      1.0000 0.02050  0.04710  0.44190  Biso   1.000  H
