data_image0
_cell_length_a       9.547
_cell_length_b       11.499
_cell_length_c       11.592
_cell_angle_alpha    108.941
_cell_angle_beta     111.851
_cell_angle_gamma    92.174

_symmetry_space_group_name_H-M    "P 1"
_symmetry_int_tables_number       1

loop_
  _symmetry_equiv_pos_as_xyz
  'x, y, z'

loop_
  _atom_site_label
  _atom_site_occupancy
  _atom_site_fract_x
  _atom_site_fract_y
  _atom_site_fract_z
  _atom_site_thermal_displace_type
  _atom_site_B_iso_or_equiv
  _atom_site_type_symbol
  Nd1      1.0000 0.71452  0.97750  0.52573  Biso   1.000  Nd
  O1       1.0000 0.50980  0.06540  0.40940  Biso   1.000  O
  O2       1.0000 0.26050  0.11290  0.29650  Biso   1.000  O
  O3       1.0000 0.41810  0.03370  0.15940  Biso   1.000  O
  O4       1.0000 0.54920  0.79210  0.36140  Biso   1.000  O
  O5       1.0000 0.27420  0.83380  0.30000  Biso   1.000  O
  O6       1.0000 0.33640  0.62690  0.31440  Biso   1.000  O
  O7       1.0000 0.98670  0.06460  0.66890  Biso   1.000  O
  O8       1.0000 0.19610  0.95720  0.61350  Biso   1.000  O
  O9       1.0000 0.24270  0.16360  0.83040  Biso   1.000  O
  O10      1.0000 0.91260  0.83760  0.54090  Biso   1.000  O
  O11      1.0000 0.87020  0.81310  0.45360  Biso   1.000  O
  P1       1.0000 0.42050  0.10576  0.29406  Biso   1.000  P
  P2       1.0000 0.38010  0.74013  0.28632  Biso   1.000  P
  P3       1.0000 0.13930  0.03980  0.72460  Biso   1.000  P
  P4       1.0000 0.05550  0.94090  0.64020  Biso   1.000  P
  N1       1.0000 0.52270  0.37110  0.44270  Biso   1.000  N
  H1       1.0000 0.56800  0.35480  0.51870  Biso   1.000  H
  N2       1.0000 0.41070  0.57390  0.06290  Biso   1.000  N
  H2       1.0000 0.36450  0.51010  0.07400  Biso   1.000  H
  N3       1.0000 0.03100  0.95630  0.88030  Biso   1.000  N
  H3       1.0000 0.93290  0.93370  0.81720  Biso   1.000  H
  C1       1.0000 0.51620  0.26210  0.32860  Biso   1.000  C
  H4       1.0000 0.62120  0.25630  0.33950  Biso   1.000  H
  H5       1.0000 0.46740  0.28140  0.24880  Biso   1.000  H
  C2       1.0000 0.34080  0.68480  0.10880  Biso   1.000  C
  H6       1.0000 0.23060  0.66320  0.05760  Biso   1.000  H
  H7       1.0000 0.37900  0.75250  0.08960  Biso   1.000  H
  C3       1.0000 0.36790  0.40050  0.43140  Biso   1.000  C
  H8       1.0000 0.30690  0.33030  0.43000  Biso   1.000  H
  H9       1.0000 0.31600  0.41330  0.34810  Biso   1.000  H
  C4       1.0000 0.61940  0.48350  0.45320  Biso   1.000  C
  H10      1.0000 0.57480  0.49910  0.37070  Biso   1.000  H
  H11      1.0000 0.72140  0.46620  0.46470  Biso   1.000  H
  C5       1.0000 0.36920  0.53440  0.91570  Biso   1.000  C
  H12      1.0000 0.41420  0.60050  0.89840  Biso   1.000  H
  H13      1.0000 0.25860  0.52160  0.86870  Biso   1.000  H
  C6       1.0000 0.57460  0.58520  0.13660  Biso   1.000  C
  H14      1.0000 0.59680  0.60460  0.23030  Biso   1.000  H
  H15      1.0000 0.62930  0.65350  0.12940  Biso   1.000  H
  C7       1.0000 0.13800  0.92830  0.80990  Biso   1.000  C
  H16      1.0000 0.10470  0.84350  0.74490  Biso   1.000  H
  H17      1.0000 0.24090  0.93480  0.87430  Biso   1.000  H
  C8       1.0000 0.04910  0.88110  0.96710  Biso   1.000  C
  H18      1.0000 0.02750  0.79280  0.91280  Biso   1.000  H
  H19      1.0000 0.15430  0.90140  0.03290  Biso   1.000  H
  C9       1.0000 0.05690  0.09350  0.96340  Biso   1.000  C
  H20      1.0000 0.16220  0.12000  0.02910  Biso   1.000  H
  H21      1.0000 0.04080  0.14170  0.90620  Biso   1.000  H
  Nd2      1.0000 0.28548  0.02250  0.47427  Biso   1.000  Nd
  O12      1.0000 0.49020  0.93460  0.59060  Biso   1.000  O
  O13      1.0000 0.73950  0.88710  0.70350  Biso   1.000  O
  O14      1.0000 0.58190  0.96630  0.84060  Biso   1.000  O
  O15      1.0000 0.45080  0.20790  0.63860  Biso   1.000  O
  O16      1.0000 0.72580  0.16620  0.70000  Biso   1.000  O
  O17      1.0000 0.66360  0.37310  0.68560  Biso   1.000  O
  O18      1.0000 0.01330  0.93540  0.33110  Biso   1.000  O
  O19      1.0000 0.80390  0.04280  0.38650  Biso   1.000  O
  O20      1.0000 0.75730  0.83640  0.16960  Biso   1.000  O
  O21      1.0000 0.08740  0.16240  0.45910  Biso   1.000  O
  O22      1.0000 0.12980  0.18690  0.54640  Biso   1.000  O
  P5       1.0000 0.57950  0.89424  0.70594  Biso   1.000  P
  P6       1.0000 0.61990  0.25987  0.71368  Biso   1.000  P
  P7       1.0000 0.86070  0.96020  0.27540  Biso   1.000  P
  P8       1.0000 0.94450  0.05910  0.35980  Biso   1.000  P
  N4       1.0000 0.47730  0.62890  0.55730  Biso   1.000  N
  H22      1.0000 0.43200  0.64520  0.48130  Biso   1.000  H
  N5       1.0000 0.58930  0.42610  0.93710  Biso   1.000  N
  H23      1.0000 0.63550  0.48990  0.92600  Biso   1.000  H
  N6       1.0000 0.96900  0.04370  0.11970  Biso   1.000  N
  H24      1.0000 0.06710  0.06630  0.18280  Biso   1.000  H
  C10      1.0000 0.48380  0.73790  0.67140  Biso   1.000  C
  H25      1.0000 0.37880  0.74370  0.66050  Biso   1.000  H
  H26      1.0000 0.53260  0.71860  0.75120  Biso   1.000  H
  C11      1.0000 0.65920  0.31520  0.89120  Biso   1.000  C
  H27      1.0000 0.76940  0.33680  0.94240  Biso   1.000  H
  H28      1.0000 0.62100  0.24750  0.91040  Biso   1.000  H
  C12      1.0000 0.63210  0.59950  0.56860  Biso   1.000  C
  H29      1.0000 0.69310  0.66970  0.57000  Biso   1.000  H
  H30      1.0000 0.68400  0.58670  0.65190  Biso   1.000  H
  C13      1.0000 0.38060  0.51650  0.54680  Biso   1.000  C
  H31      1.0000 0.42520  0.50090  0.62930  Biso   1.000  H
  H32      1.0000 0.27860  0.53380  0.53530  Biso   1.000  H
  C14      1.0000 0.63080  0.46560  0.08430  Biso   1.000  C
  H33      1.0000 0.58580  0.39950  0.10160  Biso   1.000  H
  H34      1.0000 0.74140  0.47840  0.13130  Biso   1.000  H
  C15      1.0000 0.42540  0.41480  0.86340  Biso   1.000  C
  H35      1.0000 0.40320  0.39540  0.76970  Biso   1.000  H
  H36      1.0000 0.37070  0.34650  0.87060  Biso   1.000  H
  C16      1.0000 0.86200  0.07170  0.19010  Biso   1.000  C
  H37      1.0000 0.89530  0.15650  0.25510  Biso   1.000  H
  H38      1.0000 0.75910  0.06520  0.12570  Biso   1.000  H
  C17      1.0000 0.95090  0.11890  0.03290  Biso   1.000  C
  H39      1.0000 0.97250  0.20720  0.08720  Biso   1.000  H
  H40      1.0000 0.84570  0.09860  0.96710  Biso   1.000  H
  C18      1.0000 0.94310  0.90650  0.03660  Biso   1.000  C
  H41      1.0000 0.83780  0.88000  0.97090  Biso   1.000  H
  H42      1.0000 0.95920  0.85830  0.09380  Biso   1.000  H
