data_image0
_cell_length_a       17.3867
_cell_length_b       17.3867
_cell_length_c       11.3455
_cell_angle_alpha    90
_cell_angle_beta     90
_cell_angle_gamma    120

_symmetry_space_group_name_H-M    "P 1"
_symmetry_int_tables_number       1

loop_
  _symmetry_equiv_pos_as_xyz
  'x, y, z'

loop_
  _atom_site_label
  _atom_site_occupancy
  _atom_site_fract_x
  _atom_site_fract_y
  _atom_site_fract_z
  _atom_site_thermal_displace_type
  _atom_site_B_iso_or_equiv
  _atom_site_type_symbol
  O1       1.0000 0.51950  0.31490  0.36790  Biso   1.000  O
  O2       1.0000 0.54240  0.24440  0.22970  Biso   1.000  O
  C1       1.0000 0.48520  0.26470  0.27450  Biso   1.000  C
  C2       1.0000 0.39920  0.23610  0.23610  Biso   1.000  C
  C3       1.0000 0.33780  0.24500  0.30440  Biso   1.000  C
  H1       1.0000 0.35370  0.27080  0.37880  Biso   1.000  H
  C4       1.0000 0.25260  0.21540  0.26160  Biso   1.000  C
  C5       1.0000 0.22880  0.17690  0.15050  Biso   1.000  C
  C6       1.0000 0.29030  0.16800  0.08220  Biso   1.000  C
  H2       1.0000 0.27440  0.14220  0.00780  Biso   1.000  H
  C7       1.0000 0.37550  0.19760  0.12500  Biso   1.000  C
  H3       1.0000 0.41660  0.19160  0.07920  Biso   1.000  H
  O3       1.0000 0.14040  0.14620  0.11580  Biso   1.000  O
  P1       1.0000 0.09100  0.09100  0.00450  Biso   1.000  P
  H4       1.0000 0.21150  0.22140  0.30730  Biso   1.000  H
  N1       1.0000 0.09100  0.00000  0.99550  Biso   1.000  N
  C8       1.0000 0.50200  0.23010  0.26550  Biso   1.000  C
  C9       1.0000 0.40330  0.16520  0.21730  Biso   1.000  C
  C10      1.0000 0.34210  0.09650  0.28810  Biso   1.000  C
  C11      1.0000 0.25660  0.04010  0.24690  Biso   1.000  C
  C12      1.0000 0.23230  0.05240  0.13480  Biso   1.000  C
  C13      1.0000 0.29340  0.12100  0.06400  Biso   1.000  C
  C14      1.0000 0.37890  0.17740  0.10520  Biso   1.000  C
  H5       1.0000 0.35840  0.08830  0.36310  Biso   1.000  H
  H6       1.0000 0.21570  0.99420  0.29430  Biso   1.000  H
  H7       1.0000 0.27710  0.12930  0.98900  Biso   1.000  H
  H8       1.0000 0.41980  0.22340  0.05780  Biso   1.000  H
  O4       1.0000 0.52210  0.20910  0.35310  Biso   1.000  O
  O5       1.0000 0.54540  0.28770  0.19980  Biso   1.000  O
  O6       1.0000 0.14430  0.99210  0.10070  Biso   1.000  O
  O7       1.0000 0.68510  0.20460  0.36790  Biso   1.000  O
  O8       1.0000 0.75560  0.29800  0.22970  Biso   1.000  O
  C15      1.0000 0.73530  0.22050  0.27450  Biso   1.000  C
  C16      1.0000 0.76390  0.16310  0.23610  Biso   1.000  C
  C17      1.0000 0.75500  0.09280  0.30440  Biso   1.000  C
  H9       1.0000 0.72920  0.08290  0.37880  Biso   1.000  H
  C18      1.0000 0.78460  0.03720  0.26160  Biso   1.000  C
  C19      1.0000 0.82310  0.05190  0.15050  Biso   1.000  C
  C20      1.0000 0.83200  0.12230  0.08220  Biso   1.000  C
  H10      1.0000 0.85780  0.13220  0.00780  Biso   1.000  H
  C21      1.0000 0.80240  0.17790  0.12500  Biso   1.000  C
  H11      1.0000 0.80840  0.22500  0.07920  Biso   1.000  H
  O9       1.0000 0.85380  0.99420  0.11580  Biso   1.000  O
  P2       1.0000 0.90900  0.00000  0.00450  Biso   1.000  P
  H12      1.0000 0.77860  0.99010  0.30730  Biso   1.000  H
  N2       1.0000 0.00000  0.09100  0.99550  Biso   1.000  N
  C22      1.0000 0.76990  0.27190  0.26550  Biso   1.000  C
  C23      1.0000 0.83480  0.23810  0.21730  Biso   1.000  C
  C24      1.0000 0.90350  0.24560  0.28810  Biso   1.000  C
  C25      1.0000 0.95990  0.21650  0.24690  Biso   1.000  C
  C26      1.0000 0.94760  0.17990  0.13480  Biso   1.000  C
  C27      1.0000 0.87900  0.17240  0.06400  Biso   1.000  C
  C28      1.0000 0.82260  0.20150  0.10520  Biso   1.000  C
  H13      1.0000 0.91170  0.27010  0.36310  Biso   1.000  H
  H14      1.0000 0.00580  0.22150  0.29430  Biso   1.000  H
  H15      1.0000 0.87070  0.14780  0.98900  Biso   1.000  H
  H16      1.0000 0.77660  0.19640  0.05780  Biso   1.000  H
  O10      1.0000 0.79090  0.31300  0.35310  Biso   1.000  O
  O11      1.0000 0.71230  0.25770  0.19980  Biso   1.000  O
  O12      1.0000 0.00790  0.15220  0.10070  Biso   1.000  O
  O13      1.0000 0.79540  0.48050  0.36790  Biso   1.000  O
  O14      1.0000 0.70200  0.45760  0.22970  Biso   1.000  O
  C29      1.0000 0.77950  0.51480  0.27450  Biso   1.000  C
  C30      1.0000 0.83690  0.60080  0.23610  Biso   1.000  C
  C31      1.0000 0.90720  0.66220  0.30440  Biso   1.000  C
  H17      1.0000 0.91710  0.64630  0.37880  Biso   1.000  H
  C32      1.0000 0.96280  0.74740  0.26160  Biso   1.000  C
  C33      1.0000 0.94810  0.77120  0.15050  Biso   1.000  C
  C34      1.0000 0.87770  0.70970  0.08220  Biso   1.000  C
  H18      1.0000 0.86780  0.72560  0.00780  Biso   1.000  H
  C35      1.0000 0.82210  0.62450  0.12500  Biso   1.000  C
  H19      1.0000 0.77500  0.58340  0.07920  Biso   1.000  H
  O15      1.0000 0.00580  0.85960  0.11580  Biso   1.000  O
  P3       1.0000 0.00000  0.90900  0.00450  Biso   1.000  P
  H20      1.0000 0.00990  0.78850  0.30730  Biso   1.000  H
  N3       1.0000 0.90900  0.90900  0.99550  Biso   1.000  N
  C36      1.0000 0.72810  0.49800  0.26550  Biso   1.000  C
  C37      1.0000 0.76190  0.59670  0.21730  Biso   1.000  C
  C38      1.0000 0.75440  0.65790  0.28810  Biso   1.000  C
  C39      1.0000 0.78350  0.74340  0.24690  Biso   1.000  C
  C40      1.0000 0.82010  0.76770  0.13480  Biso   1.000  C
  C41      1.0000 0.82760  0.70660  0.06400  Biso   1.000  C
  C42      1.0000 0.79850  0.62110  0.10520  Biso   1.000  C
  H21      1.0000 0.72990  0.64160  0.36310  Biso   1.000  H
  H22      1.0000 0.77850  0.78430  0.29430  Biso   1.000  H
  H23      1.0000 0.85220  0.72290  0.98900  Biso   1.000  H
  H24      1.0000 0.80360  0.58020  0.05780  Biso   1.000  H
  O16      1.0000 0.68700  0.47790  0.35310  Biso   1.000  O
  O17      1.0000 0.74230  0.45460  0.19980  Biso   1.000  O
  O18      1.0000 0.84780  0.85570  0.10070  Biso   1.000  O
  O19      1.0000 0.31490  0.51950  0.13210  Biso   1.000  O
  O20      1.0000 0.24440  0.54240  0.27030  Biso   1.000  O
  C43      1.0000 0.26470  0.48520  0.22550  Biso   1.000  C
  C44      1.0000 0.23610  0.39920  0.26390  Biso   1.000  C
  C45      1.0000 0.24500  0.33780  0.19560  Biso   1.000  C
  H25      1.0000 0.27080  0.35370  0.12120  Biso   1.000  H
  C46      1.0000 0.21540  0.25260  0.23840  Biso   1.000  C
  C47      1.0000 0.17690  0.22880  0.34950  Biso   1.000  C
  C48      1.0000 0.16800  0.29030  0.41780  Biso   1.000  C
  H26      1.0000 0.14220  0.27440  0.49220  Biso   1.000  H
  C49      1.0000 0.19760  0.37550  0.37500  Biso   1.000  C
  H27      1.0000 0.19160  0.41660  0.42080  Biso   1.000  H
  O21      1.0000 0.14620  0.14040  0.38420  Biso   1.000  O
  P4       1.0000 0.09100  0.09100  0.49550  Biso   1.000  P
  H28      1.0000 0.22140  0.21150  0.19270  Biso   1.000  H
  N4       1.0000 0.00000  0.09100  0.50450  Biso   1.000  N
  C50      1.0000 0.23010  0.50200  0.23450  Biso   1.000  C
  C51      1.0000 0.16520  0.40330  0.28270  Biso   1.000  C
  C52      1.0000 0.09650  0.34210  0.21190  Biso   1.000  C
  C53      1.0000 0.04010  0.25660  0.25310  Biso   1.000  C
  C54      1.0000 0.05240  0.23230  0.36520  Biso   1.000  C
  C55      1.0000 0.12100  0.29340  0.43600  Biso   1.000  C
  C56      1.0000 0.17740  0.37890  0.39480  Biso   1.000  C
  H29      1.0000 0.08830  0.35840  0.13690  Biso   1.000  H
  H30      1.0000 0.99420  0.21570  0.20570  Biso   1.000  H
  H31      1.0000 0.12930  0.27710  0.51100  Biso   1.000  H
  H32      1.0000 0.22340  0.41980  0.44220  Biso   1.000  H
  O22      1.0000 0.20910  0.52210  0.14690  Biso   1.000  O
  O23      1.0000 0.28770  0.54540  0.30020  Biso   1.000  O
  O24      1.0000 0.99210  0.14430  0.39930  Biso   1.000  O
  O25      1.0000 0.20460  0.68510  0.13210  Biso   1.000  O
  O26      1.0000 0.29800  0.75560  0.27030  Biso   1.000  O
  C57      1.0000 0.22050  0.73530  0.22550  Biso   1.000  C
  C58      1.0000 0.16310  0.76390  0.26390  Biso   1.000  C
  C59      1.0000 0.09280  0.75500  0.19560  Biso   1.000  C
  H33      1.0000 0.08290  0.72920  0.12120  Biso   1.000  H
  C60      1.0000 0.03720  0.78460  0.23840  Biso   1.000  C
  C61      1.0000 0.05190  0.82310  0.34950  Biso   1.000  C
  C62      1.0000 0.12230  0.83200  0.41780  Biso   1.000  C
  H34      1.0000 0.13220  0.85780  0.49220  Biso   1.000  H
  C63      1.0000 0.17790  0.80240  0.37500  Biso   1.000  C
  H35      1.0000 0.22500  0.80840  0.42080  Biso   1.000  H
  O27      1.0000 0.99420  0.85380  0.38420  Biso   1.000  O
  P5       1.0000 0.00000  0.90900  0.49550  Biso   1.000  P
  H36      1.0000 0.99010  0.77860  0.19270  Biso   1.000  H
  N5       1.0000 0.09100  0.00000  0.50450  Biso   1.000  N
  C64      1.0000 0.27190  0.76990  0.23450  Biso   1.000  C
  C65      1.0000 0.23810  0.83480  0.28270  Biso   1.000  C
  C66      1.0000 0.24560  0.90350  0.21190  Biso   1.000  C
  C67      1.0000 0.21650  0.95990  0.25310  Biso   1.000  C
  C68      1.0000 0.17990  0.94760  0.36520  Biso   1.000  C
  C69      1.0000 0.17240  0.87900  0.43600  Biso   1.000  C
  C70      1.0000 0.20150  0.82260  0.39480  Biso   1.000  C
  H37      1.0000 0.27010  0.91170  0.13690  Biso   1.000  H
  H38      1.0000 0.22150  0.00580  0.20570  Biso   1.000  H
  H39      1.0000 0.14780  0.87070  0.51100  Biso   1.000  H
  H40      1.0000 0.19640  0.77660  0.44220  Biso   1.000  H
  O28      1.0000 0.31300  0.79090  0.14690  Biso   1.000  O
  O29      1.0000 0.25770  0.71230  0.30020  Biso   1.000  O
  O30      1.0000 0.15220  0.00790  0.39930  Biso   1.000  O
  O31      1.0000 0.48050  0.79540  0.13210  Biso   1.000  O
  O32      1.0000 0.45760  0.70200  0.27030  Biso   1.000  O
  C71      1.0000 0.51480  0.77950  0.22550  Biso   1.000  C
  C72      1.0000 0.60080  0.83690  0.26390  Biso   1.000  C
  C73      1.0000 0.66220  0.90720  0.19560  Biso   1.000  C
  H41      1.0000 0.64630  0.91710  0.12120  Biso   1.000  H
  C74      1.0000 0.74740  0.96280  0.23840  Biso   1.000  C
  C75      1.0000 0.77120  0.94810  0.34950  Biso   1.000  C
  C76      1.0000 0.70970  0.87770  0.41780  Biso   1.000  C
  H42      1.0000 0.72560  0.86780  0.49220  Biso   1.000  H
  C77      1.0000 0.62450  0.82210  0.37500  Biso   1.000  C
  H43      1.0000 0.58340  0.77500  0.42080  Biso   1.000  H
  O33      1.0000 0.85960  0.00580  0.38420  Biso   1.000  O
  P6       1.0000 0.90900  0.00000  0.49550  Biso   1.000  P
  H44      1.0000 0.78850  0.00990  0.19270  Biso   1.000  H
  N6       1.0000 0.90900  0.90900  0.50450  Biso   1.000  N
  C78      1.0000 0.49800  0.72810  0.23450  Biso   1.000  C
  C79      1.0000 0.59670  0.76190  0.28270  Biso   1.000  C
  C80      1.0000 0.65790  0.75440  0.21190  Biso   1.000  C
  C81      1.0000 0.74340  0.78350  0.25310  Biso   1.000  C
  C82      1.0000 0.76770  0.82010  0.36520  Biso   1.000  C
  C83      1.0000 0.70660  0.82760  0.43600  Biso   1.000  C
  C84      1.0000 0.62110  0.79850  0.39480  Biso   1.000  C
  H45      1.0000 0.64160  0.72990  0.13690  Biso   1.000  H
  H46      1.0000 0.78430  0.77850  0.20570  Biso   1.000  H
  H47      1.0000 0.72290  0.85220  0.51100  Biso   1.000  H
  H48      1.0000 0.58020  0.80360  0.44220  Biso   1.000  H
  O34      1.0000 0.47790  0.68700  0.14690  Biso   1.000  O
  O35      1.0000 0.45460  0.74230  0.30020  Biso   1.000  O
  O36      1.0000 0.85570  0.84780  0.39930  Biso   1.000  O
  O37      1.0000 0.48050  0.68510  0.63210  Biso   1.000  O
  O38      1.0000 0.45760  0.75560  0.77030  Biso   1.000  O
  C85      1.0000 0.51480  0.73530  0.72550  Biso   1.000  C
  C86      1.0000 0.60080  0.76390  0.76390  Biso   1.000  C
  C87      1.0000 0.66220  0.75500  0.69560  Biso   1.000  C
  H49      1.0000 0.64630  0.72920  0.62120  Biso   1.000  H
  C88      1.0000 0.74740  0.78460  0.73840  Biso   1.000  C
  C89      1.0000 0.77120  0.82310  0.84950  Biso   1.000  C
  C90      1.0000 0.70970  0.83200  0.91780  Biso   1.000  C
  H50      1.0000 0.72560  0.85780  0.99220  Biso   1.000  H
  C91      1.0000 0.62450  0.80240  0.87500  Biso   1.000  C
  H51      1.0000 0.58340  0.80840  0.92080  Biso   1.000  H
  O39      1.0000 0.85960  0.85380  0.88420  Biso   1.000  O
  H52      1.0000 0.78850  0.77860  0.69270  Biso   1.000  H
  C92      1.0000 0.49800  0.76990  0.73450  Biso   1.000  C
  C93      1.0000 0.59670  0.83480  0.78270  Biso   1.000  C
  C94      1.0000 0.65790  0.90350  0.71190  Biso   1.000  C
  C95      1.0000 0.74340  0.95990  0.75310  Biso   1.000  C
  C96      1.0000 0.76770  0.94760  0.86520  Biso   1.000  C
  C97      1.0000 0.70660  0.87900  0.93600  Biso   1.000  C
  C98      1.0000 0.62110  0.82260  0.89480  Biso   1.000  C
  H53      1.0000 0.64160  0.91170  0.63690  Biso   1.000  H
  H54      1.0000 0.78430  0.00580  0.70570  Biso   1.000  H
  H55      1.0000 0.72290  0.87070  0.01100  Biso   1.000  H
  H56      1.0000 0.58020  0.77660  0.94220  Biso   1.000  H
  O40      1.0000 0.47790  0.79090  0.64690  Biso   1.000  O
  O41      1.0000 0.45460  0.71230  0.80020  Biso   1.000  O
  O42      1.0000 0.85570  0.00790  0.89930  Biso   1.000  O
  O43      1.0000 0.31490  0.79540  0.63210  Biso   1.000  O
  O44      1.0000 0.24440  0.70200  0.77030  Biso   1.000  O
  C99      1.0000 0.26470  0.77950  0.72550  Biso   1.000  C
  C100     1.0000 0.23610  0.83690  0.76390  Biso   1.000  C
  C101     1.0000 0.24500  0.90720  0.69560  Biso   1.000  C
  H57      1.0000 0.27080  0.91710  0.62120  Biso   1.000  H
  C102     1.0000 0.21540  0.96280  0.73840  Biso   1.000  C
  C103     1.0000 0.17690  0.94810  0.84950  Biso   1.000  C
  C104     1.0000 0.16800  0.87770  0.91780  Biso   1.000  C
  H58      1.0000 0.14220  0.86780  0.99220  Biso   1.000  H
  C105     1.0000 0.19760  0.82210  0.87500  Biso   1.000  C
  H59      1.0000 0.19160  0.77500  0.92080  Biso   1.000  H
  O45      1.0000 0.14620  0.00580  0.88420  Biso   1.000  O
  H60      1.0000 0.22140  0.00990  0.69270  Biso   1.000  H
  C106     1.0000 0.23010  0.72810  0.73450  Biso   1.000  C
  C107     1.0000 0.16520  0.76190  0.78270  Biso   1.000  C
  C108     1.0000 0.09650  0.75440  0.71190  Biso   1.000  C
  C109     1.0000 0.04010  0.78350  0.75310  Biso   1.000  C
  C110     1.0000 0.05240  0.82010  0.86520  Biso   1.000  C
  C111     1.0000 0.12100  0.82760  0.93600  Biso   1.000  C
  C112     1.0000 0.17740  0.79850  0.89480  Biso   1.000  C
  H61      1.0000 0.08830  0.72990  0.63690  Biso   1.000  H
  H62      1.0000 0.99420  0.77850  0.70570  Biso   1.000  H
  H63      1.0000 0.12930  0.85220  0.01100  Biso   1.000  H
  H64      1.0000 0.22340  0.80360  0.94220  Biso   1.000  H
  O46      1.0000 0.20910  0.68700  0.64690  Biso   1.000  O
  O47      1.0000 0.28770  0.74230  0.80020  Biso   1.000  O
  O48      1.0000 0.99210  0.84780  0.89930  Biso   1.000  O
  O49      1.0000 0.20460  0.51950  0.63210  Biso   1.000  O
  O50      1.0000 0.29800  0.54240  0.77030  Biso   1.000  O
  C113     1.0000 0.22050  0.48520  0.72550  Biso   1.000  C
  C114     1.0000 0.16310  0.39920  0.76390  Biso   1.000  C
  C115     1.0000 0.09280  0.33780  0.69560  Biso   1.000  C
  H65      1.0000 0.08290  0.35370  0.62120  Biso   1.000  H
  C116     1.0000 0.03720  0.25260  0.73840  Biso   1.000  C
  C117     1.0000 0.05190  0.22880  0.84950  Biso   1.000  C
  C118     1.0000 0.12230  0.29030  0.91780  Biso   1.000  C
  H66      1.0000 0.13220  0.27440  0.99220  Biso   1.000  H
  C119     1.0000 0.17790  0.37550  0.87500  Biso   1.000  C
  H67      1.0000 0.22500  0.41660  0.92080  Biso   1.000  H
  O51      1.0000 0.99420  0.14040  0.88420  Biso   1.000  O
  H68      1.0000 0.99010  0.21150  0.69270  Biso   1.000  H
  C120     1.0000 0.27190  0.50200  0.73450  Biso   1.000  C
  C121     1.0000 0.23810  0.40330  0.78270  Biso   1.000  C
  C122     1.0000 0.24560  0.34210  0.71190  Biso   1.000  C
  C123     1.0000 0.21650  0.25660  0.75310  Biso   1.000  C
  C124     1.0000 0.17990  0.23230  0.86520  Biso   1.000  C
  C125     1.0000 0.17240  0.29340  0.93600  Biso   1.000  C
  C126     1.0000 0.20150  0.37890  0.89480  Biso   1.000  C
  H69      1.0000 0.27010  0.35840  0.63690  Biso   1.000  H
  H70      1.0000 0.22150  0.21570  0.70570  Biso   1.000  H
  H71      1.0000 0.14780  0.27710  0.01100  Biso   1.000  H
  H72      1.0000 0.19640  0.41980  0.94220  Biso   1.000  H
  O52      1.0000 0.31300  0.52210  0.64690  Biso   1.000  O
  O53      1.0000 0.25770  0.54540  0.80020  Biso   1.000  O
  O54      1.0000 0.15220  0.14430  0.89930  Biso   1.000  O
  O55      1.0000 0.68510  0.48050  0.86790  Biso   1.000  O
  O56      1.0000 0.75560  0.45760  0.72970  Biso   1.000  O
  C127     1.0000 0.73530  0.51480  0.77450  Biso   1.000  C
  C128     1.0000 0.76390  0.60080  0.73610  Biso   1.000  C
  C129     1.0000 0.75500  0.66220  0.80440  Biso   1.000  C
  H73      1.0000 0.72920  0.64630  0.87880  Biso   1.000  H
  C130     1.0000 0.78460  0.74740  0.76160  Biso   1.000  C
  C131     1.0000 0.82310  0.77120  0.65050  Biso   1.000  C
  C132     1.0000 0.83200  0.70970  0.58220  Biso   1.000  C
  H74      1.0000 0.85780  0.72560  0.50780  Biso   1.000  H
  C133     1.0000 0.80240  0.62450  0.62500  Biso   1.000  C
  H75      1.0000 0.80840  0.58340  0.57920  Biso   1.000  H
  O57      1.0000 0.85380  0.85960  0.61580  Biso   1.000  O
  H76      1.0000 0.77860  0.78850  0.80730  Biso   1.000  H
  C134     1.0000 0.76990  0.49800  0.76550  Biso   1.000  C
  C135     1.0000 0.83480  0.59670  0.71730  Biso   1.000  C
  C136     1.0000 0.90350  0.65790  0.78810  Biso   1.000  C
  C137     1.0000 0.95990  0.74340  0.74690  Biso   1.000  C
  C138     1.0000 0.94760  0.76770  0.63480  Biso   1.000  C
  C139     1.0000 0.87900  0.70660  0.56400  Biso   1.000  C
  C140     1.0000 0.82260  0.62110  0.60520  Biso   1.000  C
  H77      1.0000 0.91170  0.64160  0.86310  Biso   1.000  H
  H78      1.0000 0.00580  0.78430  0.79430  Biso   1.000  H
  H79      1.0000 0.87070  0.72290  0.48900  Biso   1.000  H
  H80      1.0000 0.77660  0.58020  0.55780  Biso   1.000  H
  O58      1.0000 0.79090  0.47790  0.85310  Biso   1.000  O
  O59      1.0000 0.71230  0.45460  0.69980  Biso   1.000  O
  O60      1.0000 0.00790  0.85570  0.60070  Biso   1.000  O
  O61      1.0000 0.79540  0.31490  0.86790  Biso   1.000  O
  O62      1.0000 0.70200  0.24440  0.72970  Biso   1.000  O
  C141     1.0000 0.77950  0.26470  0.77450  Biso   1.000  C
  C142     1.0000 0.83690  0.23610  0.73610  Biso   1.000  C
  C143     1.0000 0.90720  0.24500  0.80440  Biso   1.000  C
  H81      1.0000 0.91710  0.27080  0.87880  Biso   1.000  H
  C144     1.0000 0.96280  0.21540  0.76160  Biso   1.000  C
  C145     1.0000 0.94810  0.17690  0.65050  Biso   1.000  C
  C146     1.0000 0.87770  0.16800  0.58220  Biso   1.000  C
  H82      1.0000 0.86780  0.14220  0.50780  Biso   1.000  H
  C147     1.0000 0.82210  0.19760  0.62500  Biso   1.000  C
  H83      1.0000 0.77500  0.19160  0.57920  Biso   1.000  H
  O63      1.0000 0.00580  0.14620  0.61580  Biso   1.000  O
  H84      1.0000 0.00990  0.22140  0.80730  Biso   1.000  H
  C148     1.0000 0.72810  0.23010  0.76550  Biso   1.000  C
  C149     1.0000 0.76190  0.16520  0.71730  Biso   1.000  C
  C150     1.0000 0.75440  0.09650  0.78810  Biso   1.000  C
  C151     1.0000 0.78350  0.04010  0.74690  Biso   1.000  C
  C152     1.0000 0.82010  0.05240  0.63480  Biso   1.000  C
  C153     1.0000 0.82760  0.12100  0.56400  Biso   1.000  C
  C154     1.0000 0.79850  0.17740  0.60520  Biso   1.000  C
  H85      1.0000 0.72990  0.08830  0.86310  Biso   1.000  H
  H86      1.0000 0.77850  0.99420  0.79430  Biso   1.000  H
  H87      1.0000 0.85220  0.12930  0.48900  Biso   1.000  H
  H88      1.0000 0.80360  0.22340  0.55780  Biso   1.000  H
  O64      1.0000 0.68700  0.20910  0.85310  Biso   1.000  O
  O65      1.0000 0.74230  0.28770  0.69980  Biso   1.000  O
  O66      1.0000 0.84780  0.99210  0.60070  Biso   1.000  O
  O67      1.0000 0.51950  0.20460  0.86790  Biso   1.000  O
  O68      1.0000 0.54240  0.29800  0.72970  Biso   1.000  O
  C155     1.0000 0.48520  0.22050  0.77450  Biso   1.000  C
  C156     1.0000 0.39920  0.16310  0.73610  Biso   1.000  C
  C157     1.0000 0.33780  0.09280  0.80440  Biso   1.000  C
  H89      1.0000 0.35370  0.08290  0.87880  Biso   1.000  H
  C158     1.0000 0.25260  0.03720  0.76160  Biso   1.000  C
  C159     1.0000 0.22880  0.05190  0.65050  Biso   1.000  C
  C160     1.0000 0.29030  0.12230  0.58220  Biso   1.000  C
  H90      1.0000 0.27440  0.13220  0.50780  Biso   1.000  H
  C161     1.0000 0.37550  0.17790  0.62500  Biso   1.000  C
  H91      1.0000 0.41660  0.22500  0.57920  Biso   1.000  H
  O69      1.0000 0.14040  0.99420  0.61580  Biso   1.000  O
  H92      1.0000 0.21150  0.99010  0.80730  Biso   1.000  H
  C162     1.0000 0.50200  0.27190  0.76550  Biso   1.000  C
  C163     1.0000 0.40330  0.23810  0.71730  Biso   1.000  C
  C164     1.0000 0.34210  0.24560  0.78810  Biso   1.000  C
  C165     1.0000 0.25660  0.21650  0.74690  Biso   1.000  C
  C166     1.0000 0.23230  0.17990  0.63480  Biso   1.000  C
  C167     1.0000 0.29340  0.17240  0.56400  Biso   1.000  C
  C168     1.0000 0.37890  0.20150  0.60520  Biso   1.000  C
  H93      1.0000 0.35840  0.27010  0.86310  Biso   1.000  H
  H94      1.0000 0.21570  0.22150  0.79430  Biso   1.000  H
  H95      1.0000 0.27710  0.14780  0.48900  Biso   1.000  H
  H96      1.0000 0.41980  0.19640  0.55780  Biso   1.000  H
  O70      1.0000 0.52210  0.31300  0.85310  Biso   1.000  O
  O71      1.0000 0.54540  0.25770  0.69980  Biso   1.000  O
  O72      1.0000 0.14430  0.15220  0.60070  Biso   1.000  O
  Cd1      1.0000 0.66667  0.33333  0.33660  Biso   1.000  Cd
  Cd2      1.0000 0.33333  0.66667  0.16340  Biso   1.000  Cd
  Cd3      1.0000 0.33333  0.66667  0.66340  Biso   1.000  Cd
  Cd4      1.0000 0.66667  0.33333  0.83660  Biso   1.000  Cd
