data_image0
_cell_length_a       19.38
_cell_length_b       19.38
_cell_length_c       35.04
_cell_angle_alpha    90
_cell_angle_beta     90
_cell_angle_gamma    90

_symmetry_space_group_name_H-M    "P 1"
_symmetry_int_tables_number       1

loop_
  _symmetry_equiv_pos_as_xyz
  'x, y, z'

loop_
  _atom_site_label
  _atom_site_occupancy
  _atom_site_fract_x
  _atom_site_fract_y
  _atom_site_fract_z
  _atom_site_thermal_displace_type
  _atom_site_B_iso_or_equiv
  _atom_site_type_symbol
  O1       1.0000 0.31679  0.21554  0.20309  Biso   1.000  O
  O2       1.0000 0.23214  0.12856  0.24795  Biso   1.000  O
  C1       1.0000 0.36990  0.23794  0.21995  Biso   1.000  C
  C2       1.0000 0.43689  0.22670  0.19985  Biso   1.000  C
  C3       1.0000 0.43752  0.19718  0.16429  Biso   1.000  C
  H1       1.0000 0.39480  0.18640  0.15240  Biso   1.000  H
  C4       1.0000 0.45620  0.12630  0.04390  Biso   1.000  C
  H2       1.0000 0.42380  0.13840  0.02470  Biso   1.000  H
  C5       1.0000 0.45350  0.16340  0.07850  Biso   1.000  C
  H3       1.0000 0.41960  0.19810  0.08260  Biso   1.000  H
  C6       1.0000 0.55660  0.09960  0.09641  Biso   1.000  C
  C7       1.0000 0.55600  0.06270  0.06296  Biso   1.000  C
  H4       1.0000 0.59360  0.09380  0.11390  Biso   1.000  H
  H5       1.0000 0.59070  0.02950  0.05750  Biso   1.000  H
  O3       1.0000 0.81679  0.71554  0.70309  Biso   1.000  O
  O4       1.0000 0.73214  0.62856  0.74795  Biso   1.000  O
  C8       1.0000 0.86990  0.73794  0.71995  Biso   1.000  C
  C9       1.0000 0.93689  0.72670  0.69985  Biso   1.000  C
  C10      1.0000 0.93752  0.69718  0.66429  Biso   1.000  C
  H6       1.0000 0.89480  0.68640  0.65240  Biso   1.000  H
  C11      1.0000 0.95620  0.62630  0.54390  Biso   1.000  C
  H7       1.0000 0.92380  0.63840  0.52470  Biso   1.000  H
  C12      1.0000 0.95350  0.66340  0.57850  Biso   1.000  C
  H8       1.0000 0.91960  0.69810  0.58260  Biso   1.000  H
  C13      1.0000 0.05660  0.59960  0.59641  Biso   1.000  C
  C14      1.0000 0.05600  0.56270  0.56296  Biso   1.000  C
  H9       1.0000 0.09360  0.59380  0.61390  Biso   1.000  H
  H10      1.0000 0.09070  0.52950  0.55750  Biso   1.000  H
  O5       1.0000 0.68321  0.78446  0.20309  Biso   1.000  O
  O6       1.0000 0.76786  0.87144  0.24795  Biso   1.000  O
  C15      1.0000 0.63010  0.76206  0.21995  Biso   1.000  C
  C16      1.0000 0.56311  0.77330  0.19985  Biso   1.000  C
  C17      1.0000 0.56248  0.80282  0.16429  Biso   1.000  C
  H11      1.0000 0.60520  0.81360  0.15240  Biso   1.000  H
  C18      1.0000 0.54380  0.87370  0.04390  Biso   1.000  C
  H12      1.0000 0.57620  0.86160  0.02470  Biso   1.000  H
  C19      1.0000 0.54650  0.83660  0.07850  Biso   1.000  C
  H13      1.0000 0.58040  0.80190  0.08260  Biso   1.000  H
  C20      1.0000 0.44340  0.90040  0.09641  Biso   1.000  C
  C21      1.0000 0.44400  0.93730  0.06296  Biso   1.000  C
  H14      1.0000 0.40640  0.90620  0.11390  Biso   1.000  H
  H15      1.0000 0.40930  0.97050  0.05750  Biso   1.000  H
  O7       1.0000 0.18321  0.28446  0.70309  Biso   1.000  O
  O8       1.0000 0.26786  0.37144  0.74795  Biso   1.000  O
  C22      1.0000 0.13010  0.26206  0.71995  Biso   1.000  C
  C23      1.0000 0.06311  0.27330  0.69985  Biso   1.000  C
  C24      1.0000 0.06248  0.30282  0.66429  Biso   1.000  C
  H16      1.0000 0.10520  0.31360  0.65240  Biso   1.000  H
  C25      1.0000 0.04380  0.37370  0.54390  Biso   1.000  C
  H17      1.0000 0.07620  0.36160  0.52470  Biso   1.000  H
  C26      1.0000 0.04650  0.33660  0.57850  Biso   1.000  C
  H18      1.0000 0.08040  0.30190  0.58260  Biso   1.000  H
  C27      1.0000 0.94340  0.40040  0.59641  Biso   1.000  C
  C28      1.0000 0.94400  0.43730  0.56296  Biso   1.000  C
  H19      1.0000 0.90640  0.40620  0.61390  Biso   1.000  H
  H20      1.0000 0.90930  0.47050  0.55750  Biso   1.000  H
  O9       1.0000 0.78446  0.31679  0.20309  Biso   1.000  O
  O10      1.0000 0.87144  0.23214  0.24795  Biso   1.000  O
  C29      1.0000 0.76206  0.36990  0.21995  Biso   1.000  C
  C30      1.0000 0.77330  0.43689  0.19985  Biso   1.000  C
  C31      1.0000 0.80282  0.43752  0.16429  Biso   1.000  C
  H21      1.0000 0.81360  0.39480  0.15240  Biso   1.000  H
  C32      1.0000 0.87370  0.45620  0.04390  Biso   1.000  C
  H22      1.0000 0.86160  0.42380  0.02470  Biso   1.000  H
  C33      1.0000 0.83660  0.45350  0.07850  Biso   1.000  C
  H23      1.0000 0.80190  0.41960  0.08260  Biso   1.000  H
  C34      1.0000 0.90040  0.55660  0.09641  Biso   1.000  C
  C35      1.0000 0.93730  0.55600  0.06296  Biso   1.000  C
  H24      1.0000 0.90620  0.59360  0.11390  Biso   1.000  H
  H25      1.0000 0.97050  0.59070  0.05750  Biso   1.000  H
  O11      1.0000 0.28446  0.81679  0.70309  Biso   1.000  O
  O12      1.0000 0.37144  0.73214  0.74795  Biso   1.000  O
  C36      1.0000 0.26206  0.86990  0.71995  Biso   1.000  C
  C37      1.0000 0.27330  0.93689  0.69985  Biso   1.000  C
  C38      1.0000 0.30282  0.93752  0.66429  Biso   1.000  C
  H26      1.0000 0.31360  0.89480  0.65240  Biso   1.000  H
  C39      1.0000 0.37370  0.95620  0.54390  Biso   1.000  C
  H27      1.0000 0.36160  0.92380  0.52470  Biso   1.000  H
  C40      1.0000 0.33660  0.95350  0.57850  Biso   1.000  C
  H28      1.0000 0.30190  0.91960  0.58260  Biso   1.000  H
  C41      1.0000 0.40040  0.05660  0.59641  Biso   1.000  C
  C42      1.0000 0.43730  0.05600  0.56296  Biso   1.000  C
  H29      1.0000 0.40620  0.09360  0.61390  Biso   1.000  H
  H30      1.0000 0.47050  0.09070  0.55750  Biso   1.000  H
  O13      1.0000 0.21554  0.68321  0.20309  Biso   1.000  O
  O14      1.0000 0.12856  0.76786  0.24795  Biso   1.000  O
  C43      1.0000 0.23794  0.63010  0.21995  Biso   1.000  C
  C44      1.0000 0.22670  0.56311  0.19985  Biso   1.000  C
  C45      1.0000 0.19718  0.56248  0.16429  Biso   1.000  C
  H31      1.0000 0.18640  0.60520  0.15240  Biso   1.000  H
  C46      1.0000 0.12630  0.54380  0.04390  Biso   1.000  C
  H32      1.0000 0.13840  0.57620  0.02470  Biso   1.000  H
  C47      1.0000 0.16340  0.54650  0.07850  Biso   1.000  C
  H33      1.0000 0.19810  0.58040  0.08260  Biso   1.000  H
  C48      1.0000 0.09960  0.44340  0.09641  Biso   1.000  C
  C49      1.0000 0.06270  0.44400  0.06296  Biso   1.000  C
  H34      1.0000 0.09380  0.40640  0.11390  Biso   1.000  H
  H35      1.0000 0.02950  0.40930  0.05750  Biso   1.000  H
  O15      1.0000 0.71554  0.18321  0.70309  Biso   1.000  O
  O16      1.0000 0.62856  0.26786  0.74795  Biso   1.000  O
  C50      1.0000 0.73794  0.13010  0.71995  Biso   1.000  C
  C51      1.0000 0.72670  0.06311  0.69985  Biso   1.000  C
  C52      1.0000 0.69718  0.06248  0.66429  Biso   1.000  C
  H36      1.0000 0.68640  0.10520  0.65240  Biso   1.000  H
  C53      1.0000 0.62630  0.04380  0.54390  Biso   1.000  C
  H37      1.0000 0.63840  0.07620  0.52470  Biso   1.000  H
  C54      1.0000 0.66340  0.04650  0.57850  Biso   1.000  C
  H38      1.0000 0.69810  0.08040  0.58260  Biso   1.000  H
  C55      1.0000 0.59960  0.94340  0.59641  Biso   1.000  C
  C56      1.0000 0.56270  0.94400  0.56296  Biso   1.000  C
  H39      1.0000 0.59380  0.90640  0.61390  Biso   1.000  H
  H40      1.0000 0.52950  0.90930  0.55750  Biso   1.000  H
  O17      1.0000 0.68321  0.21554  0.79691  Biso   1.000  O
  O18      1.0000 0.76786  0.12856  0.75205  Biso   1.000  O
  C57      1.0000 0.63010  0.23794  0.78005  Biso   1.000  C
  C58      1.0000 0.56311  0.22670  0.80015  Biso   1.000  C
  C59      1.0000 0.56248  0.19718  0.83571  Biso   1.000  C
  H41      1.0000 0.60520  0.18640  0.84760  Biso   1.000  H
  C60      1.0000 0.54380  0.12630  0.95610  Biso   1.000  C
  H42      1.0000 0.57620  0.13840  0.97530  Biso   1.000  H
  C61      1.0000 0.54650  0.16340  0.92150  Biso   1.000  C
  H43      1.0000 0.58040  0.19810  0.91740  Biso   1.000  H
  C62      1.0000 0.44340  0.09960  0.90359  Biso   1.000  C
  C63      1.0000 0.44400  0.06270  0.93704  Biso   1.000  C
  H44      1.0000 0.40640  0.09380  0.88610  Biso   1.000  H
  H45      1.0000 0.40930  0.02950  0.94250  Biso   1.000  H
  O19      1.0000 0.18321  0.71554  0.29691  Biso   1.000  O
  O20      1.0000 0.26786  0.62856  0.25205  Biso   1.000  O
  C64      1.0000 0.13010  0.73794  0.28005  Biso   1.000  C
  C65      1.0000 0.06311  0.72670  0.30015  Biso   1.000  C
  C66      1.0000 0.06248  0.69718  0.33571  Biso   1.000  C
  H46      1.0000 0.10520  0.68640  0.34760  Biso   1.000  H
  C67      1.0000 0.04380  0.62630  0.45610  Biso   1.000  C
  H47      1.0000 0.07620  0.63840  0.47530  Biso   1.000  H
  C68      1.0000 0.04650  0.66340  0.42150  Biso   1.000  C
  H48      1.0000 0.08040  0.69810  0.41740  Biso   1.000  H
  C69      1.0000 0.94340  0.59960  0.40359  Biso   1.000  C
  C70      1.0000 0.94400  0.56270  0.43704  Biso   1.000  C
  H49      1.0000 0.90640  0.59380  0.38610  Biso   1.000  H
  H50      1.0000 0.90930  0.52950  0.44250  Biso   1.000  H
  O21      1.0000 0.31679  0.78446  0.79691  Biso   1.000  O
  O22      1.0000 0.23214  0.87144  0.75205  Biso   1.000  O
  C71      1.0000 0.36990  0.76206  0.78005  Biso   1.000  C
  C72      1.0000 0.43689  0.77330  0.80015  Biso   1.000  C
  C73      1.0000 0.43752  0.80282  0.83571  Biso   1.000  C
  H51      1.0000 0.39480  0.81360  0.84760  Biso   1.000  H
  C74      1.0000 0.45620  0.87370  0.95610  Biso   1.000  C
  H52      1.0000 0.42380  0.86160  0.97530  Biso   1.000  H
  C75      1.0000 0.45350  0.83660  0.92150  Biso   1.000  C
  H53      1.0000 0.41960  0.80190  0.91740  Biso   1.000  H
  C76      1.0000 0.55660  0.90040  0.90359  Biso   1.000  C
  C77      1.0000 0.55600  0.93730  0.93704  Biso   1.000  C
  H54      1.0000 0.59360  0.90620  0.88610  Biso   1.000  H
  H55      1.0000 0.59070  0.97050  0.94250  Biso   1.000  H
  O23      1.0000 0.81679  0.28446  0.29691  Biso   1.000  O
  O24      1.0000 0.73214  0.37144  0.25205  Biso   1.000  O
  C78      1.0000 0.86990  0.26206  0.28005  Biso   1.000  C
  C79      1.0000 0.93689  0.27330  0.30015  Biso   1.000  C
  C80      1.0000 0.93752  0.30282  0.33571  Biso   1.000  C
  H56      1.0000 0.89480  0.31360  0.34760  Biso   1.000  H
  C81      1.0000 0.95620  0.37370  0.45610  Biso   1.000  C
  H57      1.0000 0.92380  0.36160  0.47530  Biso   1.000  H
  C82      1.0000 0.95350  0.33660  0.42150  Biso   1.000  C
  H58      1.0000 0.91960  0.30190  0.41740  Biso   1.000  H
  C83      1.0000 0.05660  0.40040  0.40359  Biso   1.000  C
  C84      1.0000 0.05600  0.43730  0.43704  Biso   1.000  C
  H59      1.0000 0.09360  0.40620  0.38610  Biso   1.000  H
  H60      1.0000 0.09070  0.47050  0.44250  Biso   1.000  H
  O25      1.0000 0.21554  0.31679  0.79691  Biso   1.000  O
  O26      1.0000 0.12856  0.23214  0.75205  Biso   1.000  O
  C85      1.0000 0.23794  0.36990  0.78005  Biso   1.000  C
  C86      1.0000 0.22670  0.43689  0.80015  Biso   1.000  C
  C87      1.0000 0.19718  0.43752  0.83571  Biso   1.000  C
  H61      1.0000 0.18640  0.39480  0.84760  Biso   1.000  H
  C88      1.0000 0.12630  0.45620  0.95610  Biso   1.000  C
  H62      1.0000 0.13840  0.42380  0.97530  Biso   1.000  H
  C89      1.0000 0.16340  0.45350  0.92150  Biso   1.000  C
  H63      1.0000 0.19810  0.41960  0.91740  Biso   1.000  H
  C90      1.0000 0.09960  0.55660  0.90359  Biso   1.000  C
  C91      1.0000 0.06270  0.55600  0.93704  Biso   1.000  C
  H64      1.0000 0.09380  0.59360  0.88610  Biso   1.000  H
  H65      1.0000 0.02950  0.59070  0.94250  Biso   1.000  H
  O27      1.0000 0.71554  0.81679  0.29691  Biso   1.000  O
  O28      1.0000 0.62856  0.73214  0.25205  Biso   1.000  O
  C92      1.0000 0.73794  0.86990  0.28005  Biso   1.000  C
  C93      1.0000 0.72670  0.93689  0.30015  Biso   1.000  C
  C94      1.0000 0.69718  0.93752  0.33571  Biso   1.000  C
  H66      1.0000 0.68640  0.89480  0.34760  Biso   1.000  H
  C95      1.0000 0.62630  0.95620  0.45610  Biso   1.000  C
  H67      1.0000 0.63840  0.92380  0.47530  Biso   1.000  H
  C96      1.0000 0.66340  0.95350  0.42150  Biso   1.000  C
  H68      1.0000 0.69810  0.91960  0.41740  Biso   1.000  H
  C97      1.0000 0.59960  0.05660  0.40359  Biso   1.000  C
  C98      1.0000 0.56270  0.05600  0.43704  Biso   1.000  C
  H69      1.0000 0.59380  0.09360  0.38610  Biso   1.000  H
  H70      1.0000 0.52950  0.09070  0.44250  Biso   1.000  H
  O29      1.0000 0.78446  0.68321  0.79691  Biso   1.000  O
  O30      1.0000 0.87144  0.76786  0.75205  Biso   1.000  O
  C99      1.0000 0.76206  0.63010  0.78005  Biso   1.000  C
  C100     1.0000 0.77330  0.56311  0.80015  Biso   1.000  C
  C101     1.0000 0.80282  0.56248  0.83571  Biso   1.000  C
  H71      1.0000 0.81360  0.60520  0.84760  Biso   1.000  H
  C102     1.0000 0.87370  0.54380  0.95610  Biso   1.000  C
  H72      1.0000 0.86160  0.57620  0.97530  Biso   1.000  H
  C103     1.0000 0.83660  0.54650  0.92150  Biso   1.000  C
  H73      1.0000 0.80190  0.58040  0.91740  Biso   1.000  H
  C104     1.0000 0.90040  0.44340  0.90359  Biso   1.000  C
  C105     1.0000 0.93730  0.44400  0.93704  Biso   1.000  C
  H74      1.0000 0.90620  0.40640  0.88610  Biso   1.000  H
  H75      1.0000 0.97050  0.40930  0.94250  Biso   1.000  H
  O31      1.0000 0.28446  0.18321  0.29691  Biso   1.000  O
  O32      1.0000 0.37144  0.26786  0.25205  Biso   1.000  O
  C106     1.0000 0.26206  0.13010  0.28005  Biso   1.000  C
  C107     1.0000 0.27330  0.06311  0.30015  Biso   1.000  C
  C108     1.0000 0.30282  0.06248  0.33571  Biso   1.000  C
  H76      1.0000 0.31360  0.10520  0.34760  Biso   1.000  H
  C109     1.0000 0.37370  0.04380  0.45610  Biso   1.000  C
  H77      1.0000 0.36160  0.07620  0.47530  Biso   1.000  H
  C110     1.0000 0.33660  0.04650  0.42150  Biso   1.000  C
  H78      1.0000 0.30190  0.08040  0.41740  Biso   1.000  H
  C111     1.0000 0.40040  0.94340  0.40359  Biso   1.000  C
  C112     1.0000 0.43730  0.94400  0.43704  Biso   1.000  C
  H79      1.0000 0.40620  0.90640  0.38610  Biso   1.000  H
  H80      1.0000 0.47050  0.90930  0.44250  Biso   1.000  H
  O33      1.0000 0.68321  0.78446  0.79691  Biso   1.000  O
  O34      1.0000 0.76786  0.87144  0.75205  Biso   1.000  O
  C113     1.0000 0.63010  0.76206  0.78005  Biso   1.000  C
  C114     1.0000 0.56311  0.77330  0.80015  Biso   1.000  C
  C115     1.0000 0.56248  0.80282  0.83571  Biso   1.000  C
  H81      1.0000 0.60520  0.81360  0.84760  Biso   1.000  H
  C116     1.0000 0.54380  0.87370  0.95610  Biso   1.000  C
  H82      1.0000 0.57620  0.86160  0.97530  Biso   1.000  H
  C117     1.0000 0.54650  0.83660  0.92150  Biso   1.000  C
  H83      1.0000 0.58040  0.80190  0.91740  Biso   1.000  H
  C118     1.0000 0.44340  0.90040  0.90359  Biso   1.000  C
  C119     1.0000 0.44400  0.93730  0.93704  Biso   1.000  C
  H84      1.0000 0.40640  0.90620  0.88610  Biso   1.000  H
  H85      1.0000 0.40930  0.97050  0.94250  Biso   1.000  H
  O35      1.0000 0.18321  0.28446  0.29691  Biso   1.000  O
  O36      1.0000 0.26786  0.37144  0.25205  Biso   1.000  O
  C120     1.0000 0.13010  0.26206  0.28005  Biso   1.000  C
  C121     1.0000 0.06311  0.27330  0.30015  Biso   1.000  C
  C122     1.0000 0.06248  0.30282  0.33571  Biso   1.000  C
  H86      1.0000 0.10520  0.31360  0.34760  Biso   1.000  H
  C123     1.0000 0.04380  0.37370  0.45610  Biso   1.000  C
  H87      1.0000 0.07620  0.36160  0.47530  Biso   1.000  H
  C124     1.0000 0.04650  0.33660  0.42150  Biso   1.000  C
  H88      1.0000 0.08040  0.30190  0.41740  Biso   1.000  H
  C125     1.0000 0.94340  0.40040  0.40359  Biso   1.000  C
  C126     1.0000 0.94400  0.43730  0.43704  Biso   1.000  C
  H89      1.0000 0.90640  0.40620  0.38610  Biso   1.000  H
  H90      1.0000 0.90930  0.47050  0.44250  Biso   1.000  H
  O37      1.0000 0.31679  0.21554  0.79691  Biso   1.000  O
  O38      1.0000 0.23214  0.12856  0.75205  Biso   1.000  O
  C127     1.0000 0.36990  0.23794  0.78005  Biso   1.000  C
  C128     1.0000 0.43689  0.22670  0.80015  Biso   1.000  C
  C129     1.0000 0.43752  0.19718  0.83571  Biso   1.000  C
  H91      1.0000 0.39480  0.18640  0.84760  Biso   1.000  H
  C130     1.0000 0.45620  0.12630  0.95610  Biso   1.000  C
  H92      1.0000 0.42380  0.13840  0.97530  Biso   1.000  H
  C131     1.0000 0.45350  0.16340  0.92150  Biso   1.000  C
  H93      1.0000 0.41960  0.19810  0.91740  Biso   1.000  H
  C132     1.0000 0.55660  0.09960  0.90359  Biso   1.000  C
  C133     1.0000 0.55600  0.06270  0.93704  Biso   1.000  C
  H94      1.0000 0.59360  0.09380  0.88610  Biso   1.000  H
  H95      1.0000 0.59070  0.02950  0.94250  Biso   1.000  H
  O39      1.0000 0.81679  0.71554  0.29691  Biso   1.000  O
  O40      1.0000 0.73214  0.62856  0.25205  Biso   1.000  O
  C134     1.0000 0.86990  0.73794  0.28005  Biso   1.000  C
  C135     1.0000 0.93689  0.72670  0.30015  Biso   1.000  C
  C136     1.0000 0.93752  0.69718  0.33571  Biso   1.000  C
  H96      1.0000 0.89480  0.68640  0.34760  Biso   1.000  H
  C137     1.0000 0.95620  0.62630  0.45610  Biso   1.000  C
  H97      1.0000 0.92380  0.63840  0.47530  Biso   1.000  H
  C138     1.0000 0.95350  0.66340  0.42150  Biso   1.000  C
  H98      1.0000 0.91960  0.69810  0.41740  Biso   1.000  H
  C139     1.0000 0.05660  0.59960  0.40359  Biso   1.000  C
  C140     1.0000 0.05600  0.56270  0.43704  Biso   1.000  C
  H99      1.0000 0.09360  0.59380  0.38610  Biso   1.000  H
  H100     1.0000 0.09070  0.52950  0.44250  Biso   1.000  H
  O41      1.0000 0.21554  0.68321  0.79691  Biso   1.000  O
  O42      1.0000 0.12856  0.76786  0.75205  Biso   1.000  O
  C141     1.0000 0.23794  0.63010  0.78005  Biso   1.000  C
  C142     1.0000 0.22670  0.56311  0.80015  Biso   1.000  C
  C143     1.0000 0.19718  0.56248  0.83571  Biso   1.000  C
  H101     1.0000 0.18640  0.60520  0.84760  Biso   1.000  H
  C144     1.0000 0.12630  0.54380  0.95610  Biso   1.000  C
  H102     1.0000 0.13840  0.57620  0.97530  Biso   1.000  H
  C145     1.0000 0.16340  0.54650  0.92150  Biso   1.000  C
  H103     1.0000 0.19810  0.58040  0.91740  Biso   1.000  H
  C146     1.0000 0.09960  0.44340  0.90359  Biso   1.000  C
  C147     1.0000 0.06270  0.44400  0.93704  Biso   1.000  C
  H104     1.0000 0.09380  0.40640  0.88610  Biso   1.000  H
  H105     1.0000 0.02950  0.40930  0.94250  Biso   1.000  H
  O43      1.0000 0.71554  0.18321  0.29691  Biso   1.000  O
  O44      1.0000 0.62856  0.26786  0.25205  Biso   1.000  O
  C148     1.0000 0.73794  0.13010  0.28005  Biso   1.000  C
  C149     1.0000 0.72670  0.06311  0.30015  Biso   1.000  C
  C150     1.0000 0.69718  0.06248  0.33571  Biso   1.000  C
  H106     1.0000 0.68640  0.10520  0.34760  Biso   1.000  H
  C151     1.0000 0.62630  0.04380  0.45610  Biso   1.000  C
  H107     1.0000 0.63840  0.07620  0.47530  Biso   1.000  H
  C152     1.0000 0.66340  0.04650  0.42150  Biso   1.000  C
  H108     1.0000 0.69810  0.08040  0.41740  Biso   1.000  H
  C153     1.0000 0.59960  0.94340  0.40359  Biso   1.000  C
  C154     1.0000 0.56270  0.94400  0.43704  Biso   1.000  C
  H109     1.0000 0.59380  0.90640  0.38610  Biso   1.000  H
  H110     1.0000 0.52950  0.90930  0.44250  Biso   1.000  H
  O45      1.0000 0.78446  0.31679  0.79691  Biso   1.000  O
  O46      1.0000 0.87144  0.23214  0.75205  Biso   1.000  O
  C155     1.0000 0.76206  0.36990  0.78005  Biso   1.000  C
  C156     1.0000 0.77330  0.43689  0.80015  Biso   1.000  C
  C157     1.0000 0.80282  0.43752  0.83571  Biso   1.000  C
  H111     1.0000 0.81360  0.39480  0.84760  Biso   1.000  H
  C158     1.0000 0.87370  0.45620  0.95610  Biso   1.000  C
  H112     1.0000 0.86160  0.42380  0.97530  Biso   1.000  H
  C159     1.0000 0.83660  0.45350  0.92150  Biso   1.000  C
  H113     1.0000 0.80190  0.41960  0.91740  Biso   1.000  H
  C160     1.0000 0.90040  0.55660  0.90359  Biso   1.000  C
  C161     1.0000 0.93730  0.55600  0.93704  Biso   1.000  C
  H114     1.0000 0.90620  0.59360  0.88610  Biso   1.000  H
  H115     1.0000 0.97050  0.59070  0.94250  Biso   1.000  H
  O47      1.0000 0.28446  0.81679  0.29691  Biso   1.000  O
  O48      1.0000 0.37144  0.73214  0.25205  Biso   1.000  O
  C162     1.0000 0.26206  0.86990  0.28005  Biso   1.000  C
  C163     1.0000 0.27330  0.93689  0.30015  Biso   1.000  C
  C164     1.0000 0.30282  0.93752  0.33571  Biso   1.000  C
  H116     1.0000 0.31360  0.89480  0.34760  Biso   1.000  H
  C165     1.0000 0.37370  0.95620  0.45610  Biso   1.000  C
  H117     1.0000 0.36160  0.92380  0.47530  Biso   1.000  H
  C166     1.0000 0.33660  0.95350  0.42150  Biso   1.000  C
  H118     1.0000 0.30190  0.91960  0.41740  Biso   1.000  H
  C167     1.0000 0.40040  0.05660  0.40359  Biso   1.000  C
  C168     1.0000 0.43730  0.05600  0.43704  Biso   1.000  C
  H119     1.0000 0.40620  0.09360  0.38610  Biso   1.000  H
  H120     1.0000 0.47050  0.09070  0.44250  Biso   1.000  H
  O49      1.0000 0.31679  0.78446  0.20309  Biso   1.000  O
  O50      1.0000 0.23214  0.87144  0.24795  Biso   1.000  O
  C169     1.0000 0.36990  0.76206  0.21995  Biso   1.000  C
  C170     1.0000 0.43689  0.77330  0.19985  Biso   1.000  C
  C171     1.0000 0.43752  0.80282  0.16429  Biso   1.000  C
  H121     1.0000 0.39480  0.81360  0.15240  Biso   1.000  H
  C172     1.0000 0.45620  0.87370  0.04390  Biso   1.000  C
  H122     1.0000 0.42380  0.86160  0.02470  Biso   1.000  H
  C173     1.0000 0.45350  0.83660  0.07850  Biso   1.000  C
  H123     1.0000 0.41960  0.80190  0.08260  Biso   1.000  H
  C174     1.0000 0.55660  0.90040  0.09641  Biso   1.000  C
  C175     1.0000 0.55600  0.93730  0.06296  Biso   1.000  C
  H124     1.0000 0.59360  0.90620  0.11390  Biso   1.000  H
  H125     1.0000 0.59070  0.97050  0.05750  Biso   1.000  H
  O51      1.0000 0.81679  0.28446  0.70309  Biso   1.000  O
  O52      1.0000 0.73214  0.37144  0.74795  Biso   1.000  O
  C176     1.0000 0.86990  0.26206  0.71995  Biso   1.000  C
  C177     1.0000 0.93689  0.27330  0.69985  Biso   1.000  C
  C178     1.0000 0.93752  0.30282  0.66429  Biso   1.000  C
  H126     1.0000 0.89480  0.31360  0.65240  Biso   1.000  H
  C179     1.0000 0.95620  0.37370  0.54390  Biso   1.000  C
  H127     1.0000 0.92380  0.36160  0.52470  Biso   1.000  H
  C180     1.0000 0.95350  0.33660  0.57850  Biso   1.000  C
  H128     1.0000 0.91960  0.30190  0.58260  Biso   1.000  H
  C181     1.0000 0.05660  0.40040  0.59641  Biso   1.000  C
  C182     1.0000 0.05600  0.43730  0.56296  Biso   1.000  C
  H129     1.0000 0.09360  0.40620  0.61390  Biso   1.000  H
  H130     1.0000 0.09070  0.47050  0.55750  Biso   1.000  H
  O53      1.0000 0.68321  0.21554  0.20309  Biso   1.000  O
  O54      1.0000 0.76786  0.12856  0.24795  Biso   1.000  O
  C183     1.0000 0.63010  0.23794  0.21995  Biso   1.000  C
  C184     1.0000 0.56311  0.22670  0.19985  Biso   1.000  C
  C185     1.0000 0.56248  0.19718  0.16429  Biso   1.000  C
  H131     1.0000 0.60520  0.18640  0.15240  Biso   1.000  H
  C186     1.0000 0.54380  0.12630  0.04390  Biso   1.000  C
  H132     1.0000 0.57620  0.13840  0.02470  Biso   1.000  H
  C187     1.0000 0.54650  0.16340  0.07850  Biso   1.000  C
  H133     1.0000 0.58040  0.19810  0.08260  Biso   1.000  H
  C188     1.0000 0.44340  0.09960  0.09641  Biso   1.000  C
  C189     1.0000 0.44400  0.06270  0.06296  Biso   1.000  C
  H134     1.0000 0.40640  0.09380  0.11390  Biso   1.000  H
  H135     1.0000 0.40930  0.02950  0.05750  Biso   1.000  H
  O55      1.0000 0.18321  0.71554  0.70309  Biso   1.000  O
  O56      1.0000 0.26786  0.62856  0.74795  Biso   1.000  O
  C190     1.0000 0.13010  0.73794  0.71995  Biso   1.000  C
  C191     1.0000 0.06311  0.72670  0.69985  Biso   1.000  C
  C192     1.0000 0.06248  0.69718  0.66429  Biso   1.000  C
  H136     1.0000 0.10520  0.68640  0.65240  Biso   1.000  H
  C193     1.0000 0.04380  0.62630  0.54390  Biso   1.000  C
  H137     1.0000 0.07620  0.63840  0.52470  Biso   1.000  H
  C194     1.0000 0.04650  0.66340  0.57850  Biso   1.000  C
  H138     1.0000 0.08040  0.69810  0.58260  Biso   1.000  H
  C195     1.0000 0.94340  0.59960  0.59641  Biso   1.000  C
  C196     1.0000 0.94400  0.56270  0.56296  Biso   1.000  C
  H139     1.0000 0.90640  0.59380  0.61390  Biso   1.000  H
  H140     1.0000 0.90930  0.52950  0.55750  Biso   1.000  H
  O57      1.0000 0.78446  0.68321  0.20309  Biso   1.000  O
  O58      1.0000 0.87144  0.76786  0.24795  Biso   1.000  O
  C197     1.0000 0.76206  0.63010  0.21995  Biso   1.000  C
  C198     1.0000 0.77330  0.56311  0.19985  Biso   1.000  C
  C199     1.0000 0.80282  0.56248  0.16429  Biso   1.000  C
  H141     1.0000 0.81360  0.60520  0.15240  Biso   1.000  H
  C200     1.0000 0.87370  0.54380  0.04390  Biso   1.000  C
  H142     1.0000 0.86160  0.57620  0.02470  Biso   1.000  H
  C201     1.0000 0.83660  0.54650  0.07850  Biso   1.000  C
  H143     1.0000 0.80190  0.58040  0.08260  Biso   1.000  H
  C202     1.0000 0.90040  0.44340  0.09641  Biso   1.000  C
  C203     1.0000 0.93730  0.44400  0.06296  Biso   1.000  C
  H144     1.0000 0.90620  0.40640  0.11390  Biso   1.000  H
  H145     1.0000 0.97050  0.40930  0.05750  Biso   1.000  H
  O59      1.0000 0.28446  0.18321  0.70309  Biso   1.000  O
  O60      1.0000 0.37144  0.26786  0.74795  Biso   1.000  O
  C204     1.0000 0.26206  0.13010  0.71995  Biso   1.000  C
  C205     1.0000 0.27330  0.06311  0.69985  Biso   1.000  C
  C206     1.0000 0.30282  0.06248  0.66429  Biso   1.000  C
  H146     1.0000 0.31360  0.10520  0.65240  Biso   1.000  H
  C207     1.0000 0.37370  0.04380  0.54390  Biso   1.000  C
  H147     1.0000 0.36160  0.07620  0.52470  Biso   1.000  H
  C208     1.0000 0.33660  0.04650  0.57850  Biso   1.000  C
  H148     1.0000 0.30190  0.08040  0.58260  Biso   1.000  H
  C209     1.0000 0.40040  0.94340  0.59641  Biso   1.000  C
  C210     1.0000 0.43730  0.94400  0.56296  Biso   1.000  C
  H149     1.0000 0.40620  0.90640  0.61390  Biso   1.000  H
  H150     1.0000 0.47050  0.90930  0.55750  Biso   1.000  H
  O61      1.0000 0.21554  0.31679  0.20309  Biso   1.000  O
  O62      1.0000 0.12856  0.23214  0.24795  Biso   1.000  O
  C211     1.0000 0.23794  0.36990  0.21995  Biso   1.000  C
  C212     1.0000 0.22670  0.43689  0.19985  Biso   1.000  C
  C213     1.0000 0.19718  0.43752  0.16429  Biso   1.000  C
  H151     1.0000 0.18640  0.39480  0.15240  Biso   1.000  H
  C214     1.0000 0.12630  0.45620  0.04390  Biso   1.000  C
  H152     1.0000 0.13840  0.42380  0.02470  Biso   1.000  H
  C215     1.0000 0.16340  0.45350  0.07850  Biso   1.000  C
  H153     1.0000 0.19810  0.41960  0.08260  Biso   1.000  H
  C216     1.0000 0.09960  0.55660  0.09641  Biso   1.000  C
  C217     1.0000 0.06270  0.55600  0.06296  Biso   1.000  C
  H154     1.0000 0.09380  0.59360  0.11390  Biso   1.000  H
  H155     1.0000 0.02950  0.59070  0.05750  Biso   1.000  H
  O63      1.0000 0.71554  0.81679  0.70309  Biso   1.000  O
  O64      1.0000 0.62856  0.73214  0.74795  Biso   1.000  O
  C218     1.0000 0.73794  0.86990  0.71995  Biso   1.000  C
  C219     1.0000 0.72670  0.93689  0.69985  Biso   1.000  C
  C220     1.0000 0.69718  0.93752  0.66429  Biso   1.000  C
  H156     1.0000 0.68640  0.89480  0.65240  Biso   1.000  H
  C221     1.0000 0.62630  0.95620  0.54390  Biso   1.000  C
  H157     1.0000 0.63840  0.92380  0.52470  Biso   1.000  H
  C222     1.0000 0.66340  0.95350  0.57850  Biso   1.000  C
  H158     1.0000 0.69810  0.91960  0.58260  Biso   1.000  H
  C223     1.0000 0.59960  0.05660  0.59641  Biso   1.000  C
  C224     1.0000 0.56270  0.05600  0.56296  Biso   1.000  C
  H159     1.0000 0.59380  0.09360  0.61390  Biso   1.000  H
  H160     1.0000 0.52950  0.09070  0.55750  Biso   1.000  H
  Zn1      1.0000 0.21455  0.21455  0.21681  Biso   1.000  Zn
  Zn2      1.0000 0.71455  0.71455  0.71681  Biso   1.000  Zn
  Zn3      1.0000 0.78545  0.78545  0.21681  Biso   1.000  Zn
  Zn4      1.0000 0.28545  0.28545  0.71681  Biso   1.000  Zn
  Zn5      1.0000 0.78545  0.21455  0.21681  Biso   1.000  Zn
  Zn6      1.0000 0.28545  0.71455  0.71681  Biso   1.000  Zn
  Zn7      1.0000 0.21455  0.78545  0.21681  Biso   1.000  Zn
  Zn8      1.0000 0.71455  0.28545  0.71681  Biso   1.000  Zn
  Zn9      1.0000 0.78545  0.21455  0.78319  Biso   1.000  Zn
  Zn10     1.0000 0.28545  0.71455  0.28319  Biso   1.000  Zn
  Zn11     1.0000 0.21455  0.78545  0.78319  Biso   1.000  Zn
  Zn12     1.0000 0.71455  0.28545  0.28319  Biso   1.000  Zn
  Zn13     1.0000 0.21455  0.21455  0.78319  Biso   1.000  Zn
  Zn14     1.0000 0.71455  0.71455  0.28319  Biso   1.000  Zn
  Zn15     1.0000 0.78545  0.78545  0.78319  Biso   1.000  Zn
  Zn16     1.0000 0.28545  0.28545  0.28319  Biso   1.000  Zn
  C225     1.0000 0.50000  0.07620  0.03597  Biso   1.000  C
  C226     1.0000 0.50000  0.24080  0.21730  Biso   1.000  C
  H161     1.0000 0.50000  0.26080  0.24210  Biso   1.000  H
  C227     1.0000 0.50000  0.14840  0.10538  Biso   1.000  C
  C228     1.0000 0.50000  0.18220  0.14473  Biso   1.000  C
  C229     1.0000 0.00000  0.57620  0.53597  Biso   1.000  C
  C230     1.0000 0.00000  0.74080  0.71730  Biso   1.000  C
  H162     1.0000 0.00000  0.76080  0.74210  Biso   1.000  H
  C231     1.0000 0.00000  0.64840  0.60538  Biso   1.000  C
  C232     1.0000 0.00000  0.68220  0.64473  Biso   1.000  C
  C233     1.0000 0.50000  0.92380  0.03597  Biso   1.000  C
  C234     1.0000 0.50000  0.75920  0.21730  Biso   1.000  C
  H163     1.0000 0.50000  0.73920  0.24210  Biso   1.000  H
  C235     1.0000 0.50000  0.85160  0.10538  Biso   1.000  C
  C236     1.0000 0.50000  0.81780  0.14473  Biso   1.000  C
  C237     1.0000 0.00000  0.42380  0.53597  Biso   1.000  C
  C238     1.0000 0.00000  0.25920  0.71730  Biso   1.000  C
  H164     1.0000 0.00000  0.23920  0.74210  Biso   1.000  H
  C239     1.0000 0.00000  0.35160  0.60538  Biso   1.000  C
  C240     1.0000 0.00000  0.31780  0.64473  Biso   1.000  C
  C241     1.0000 0.92380  0.50000  0.03597  Biso   1.000  C
  C242     1.0000 0.75920  0.50000  0.21730  Biso   1.000  C
  H165     1.0000 0.73920  0.50000  0.24210  Biso   1.000  H
  C243     1.0000 0.85160  0.50000  0.10538  Biso   1.000  C
  C244     1.0000 0.81780  0.50000  0.14473  Biso   1.000  C
  C245     1.0000 0.42380  0.00000  0.53597  Biso   1.000  C
  C246     1.0000 0.25920  0.00000  0.71730  Biso   1.000  C
  H166     1.0000 0.23920  0.00000  0.74210  Biso   1.000  H
  C247     1.0000 0.35160  0.00000  0.60538  Biso   1.000  C
  C248     1.0000 0.31780  0.00000  0.64473  Biso   1.000  C
  C249     1.0000 0.07620  0.50000  0.03597  Biso   1.000  C
  C250     1.0000 0.24080  0.50000  0.21730  Biso   1.000  C
  H167     1.0000 0.26080  0.50000  0.24210  Biso   1.000  H
  C251     1.0000 0.14840  0.50000  0.10538  Biso   1.000  C
  C252     1.0000 0.18220  0.50000  0.14473  Biso   1.000  C
  C253     1.0000 0.57620  0.00000  0.53597  Biso   1.000  C
  C254     1.0000 0.74080  0.00000  0.71730  Biso   1.000  C
  H168     1.0000 0.76080  0.00000  0.74210  Biso   1.000  H
  C255     1.0000 0.64840  0.00000  0.60538  Biso   1.000  C
  C256     1.0000 0.68220  0.00000  0.64473  Biso   1.000  C
  C257     1.0000 0.50000  0.07620  0.96403  Biso   1.000  C
  C258     1.0000 0.50000  0.24080  0.78270  Biso   1.000  C
  H169     1.0000 0.50000  0.26080  0.75790  Biso   1.000  H
  C259     1.0000 0.50000  0.14840  0.89462  Biso   1.000  C
  C260     1.0000 0.50000  0.18220  0.85527  Biso   1.000  C
  C261     1.0000 0.00000  0.57620  0.46403  Biso   1.000  C
  C262     1.0000 0.00000  0.74080  0.28270  Biso   1.000  C
  H170     1.0000 0.00000  0.76080  0.25790  Biso   1.000  H
  C263     1.0000 0.00000  0.64840  0.39462  Biso   1.000  C
  C264     1.0000 0.00000  0.68220  0.35527  Biso   1.000  C
  C265     1.0000 0.50000  0.92380  0.96403  Biso   1.000  C
  C266     1.0000 0.50000  0.75920  0.78270  Biso   1.000  C
  H171     1.0000 0.50000  0.73920  0.75790  Biso   1.000  H
  C267     1.0000 0.50000  0.85160  0.89462  Biso   1.000  C
  C268     1.0000 0.50000  0.81780  0.85527  Biso   1.000  C
  C269     1.0000 0.00000  0.42380  0.46403  Biso   1.000  C
  C270     1.0000 0.00000  0.25920  0.28270  Biso   1.000  C
  H172     1.0000 0.00000  0.23920  0.25790  Biso   1.000  H
  C271     1.0000 0.00000  0.35160  0.39462  Biso   1.000  C
  C272     1.0000 0.00000  0.31780  0.35527  Biso   1.000  C
  C273     1.0000 0.07620  0.50000  0.96403  Biso   1.000  C
  C274     1.0000 0.24080  0.50000  0.78270  Biso   1.000  C
  H173     1.0000 0.26080  0.50000  0.75790  Biso   1.000  H
  C275     1.0000 0.14840  0.50000  0.89462  Biso   1.000  C
  C276     1.0000 0.18220  0.50000  0.85527  Biso   1.000  C
  C277     1.0000 0.57620  0.00000  0.46403  Biso   1.000  C
  C278     1.0000 0.74080  0.00000  0.28270  Biso   1.000  C
  H174     1.0000 0.76080  0.00000  0.25790  Biso   1.000  H
  C279     1.0000 0.64840  0.00000  0.39462  Biso   1.000  C
  C280     1.0000 0.68220  0.00000  0.35527  Biso   1.000  C
  C281     1.0000 0.92380  0.50000  0.96403  Biso   1.000  C
  C282     1.0000 0.75920  0.50000  0.78270  Biso   1.000  C
  H175     1.0000 0.73920  0.50000  0.75790  Biso   1.000  H
  C283     1.0000 0.85160  0.50000  0.89462  Biso   1.000  C
  C284     1.0000 0.81780  0.50000  0.85527  Biso   1.000  C
  C285     1.0000 0.42380  0.00000  0.46403  Biso   1.000  C
  C286     1.0000 0.25920  0.00000  0.28270  Biso   1.000  C
  H176     1.0000 0.23920  0.00000  0.25790  Biso   1.000  H
  C287     1.0000 0.35160  0.00000  0.39462  Biso   1.000  C
  C288     1.0000 0.31780  0.00000  0.35527  Biso   1.000  C
  C289     1.0000 0.50000  0.03420  0.00000  Biso   1.000  C
  C290     1.0000 0.00000  0.53420  0.50000  Biso   1.000  C
  C291     1.0000 0.50000  0.96580  0.00000  Biso   1.000  C
  C292     1.0000 0.00000  0.46580  0.50000  Biso   1.000  C
  C293     1.0000 0.96580  0.50000  0.00000  Biso   1.000  C
  C294     1.0000 0.46580  0.00000  0.50000  Biso   1.000  C
  C295     1.0000 0.03420  0.50000  0.00000  Biso   1.000  C
  C296     1.0000 0.53420  0.00000  0.50000  Biso   1.000  C
