data_image0
_cell_length_a       18.583
_cell_length_b       18.583
_cell_length_c       35.68
_cell_angle_alpha    90
_cell_angle_beta     90
_cell_angle_gamma    90

_symmetry_space_group_name_H-M    "P 1"
_symmetry_int_tables_number       1

loop_
  _symmetry_equiv_pos_as_xyz
  'x, y, z'

loop_
  _atom_site_label
  _atom_site_occupancy
  _atom_site_fract_x
  _atom_site_fract_y
  _atom_site_fract_z
  _atom_site_thermal_displace_type
  _atom_site_B_iso_or_equiv
  _atom_site_type_symbol
  O1       1.0000 0.13150  0.23360  0.24750  Biso   1.000  O
  O2       1.0000 0.19130  0.29210  0.20074  Biso   1.000  O
  C1       1.0000 0.13500  0.26670  0.21610  Biso   1.000  C
  C2       1.0000 0.06450  0.27740  0.19806  Biso   1.000  C
  C3       1.0000 0.06250  0.30720  0.16170  Biso   1.000  C
  H1       1.0000 0.10580  0.31600  0.14950  Biso   1.000  H
  C4       1.0000 0.05390  0.40320  0.09610  Biso   1.000  C
  H2       1.0000 0.08880  0.41460  0.11390  Biso   1.000  H
  C5       1.0000 0.05330  0.43720  0.06160  Biso   1.000  C
  H3       1.0000 0.08820  0.47140  0.05590  Biso   1.000  H
  C6       1.0000 0.94960  0.36860  0.04330  Biso   1.000  C
  C7       1.0000 0.94930  0.33420  0.07780  Biso   1.000  C
  H4       1.0000 0.91510  0.35650  0.02540  Biso   1.000  H
  H5       1.0000 0.91420  0.29990  0.08310  Biso   1.000  H
  O3       1.0000 0.63150  0.73360  0.74750  Biso   1.000  O
  O4       1.0000 0.69130  0.79210  0.70074  Biso   1.000  O
  C8       1.0000 0.63500  0.76670  0.71610  Biso   1.000  C
  C9       1.0000 0.56450  0.77740  0.69806  Biso   1.000  C
  C10      1.0000 0.56250  0.80720  0.66170  Biso   1.000  C
  H6       1.0000 0.60580  0.81600  0.64950  Biso   1.000  H
  C11      1.0000 0.55390  0.90320  0.59610  Biso   1.000  C
  H7       1.0000 0.58880  0.91460  0.61390  Biso   1.000  H
  C12      1.0000 0.55330  0.93720  0.56160  Biso   1.000  C
  H8       1.0000 0.58820  0.97140  0.55590  Biso   1.000  H
  C13      1.0000 0.44960  0.86860  0.54330  Biso   1.000  C
  C14      1.0000 0.44930  0.83420  0.57780  Biso   1.000  C
  H9       1.0000 0.41510  0.85650  0.52540  Biso   1.000  H
  H10      1.0000 0.41420  0.79990  0.58310  Biso   1.000  H
  O5       1.0000 0.86850  0.76640  0.24750  Biso   1.000  O
  O6       1.0000 0.80870  0.70790  0.20074  Biso   1.000  O
  C15      1.0000 0.86500  0.73330  0.21610  Biso   1.000  C
  C16      1.0000 0.93550  0.72260  0.19806  Biso   1.000  C
  C17      1.0000 0.93750  0.69280  0.16170  Biso   1.000  C
  H11      1.0000 0.89420  0.68400  0.14950  Biso   1.000  H
  C18      1.0000 0.94610  0.59680  0.09610  Biso   1.000  C
  H12      1.0000 0.91120  0.58540  0.11390  Biso   1.000  H
  C19      1.0000 0.94670  0.56280  0.06160  Biso   1.000  C
  H13      1.0000 0.91180  0.52860  0.05590  Biso   1.000  H
  C20      1.0000 0.05040  0.63140  0.04330  Biso   1.000  C
  C21      1.0000 0.05070  0.66580  0.07780  Biso   1.000  C
  H14      1.0000 0.08490  0.64350  0.02540  Biso   1.000  H
  H15      1.0000 0.08580  0.70010  0.08310  Biso   1.000  H
  O7       1.0000 0.36850  0.26640  0.74750  Biso   1.000  O
  O8       1.0000 0.30870  0.20790  0.70074  Biso   1.000  O
  C22      1.0000 0.36500  0.23330  0.71610  Biso   1.000  C
  C23      1.0000 0.43550  0.22260  0.69806  Biso   1.000  C
  C24      1.0000 0.43750  0.19280  0.66170  Biso   1.000  C
  H16      1.0000 0.39420  0.18400  0.64950  Biso   1.000  H
  C25      1.0000 0.44610  0.09680  0.59610  Biso   1.000  C
  H17      1.0000 0.41120  0.08540  0.61390  Biso   1.000  H
  C26      1.0000 0.44670  0.06280  0.56160  Biso   1.000  C
  H18      1.0000 0.41180  0.02860  0.55590  Biso   1.000  H
  C27      1.0000 0.55040  0.13140  0.54330  Biso   1.000  C
  C28      1.0000 0.55070  0.16580  0.57780  Biso   1.000  C
  H19      1.0000 0.58490  0.14350  0.52540  Biso   1.000  H
  H20      1.0000 0.58580  0.20010  0.58310  Biso   1.000  H
  O9       1.0000 0.76640  0.13150  0.24750  Biso   1.000  O
  O10      1.0000 0.70790  0.19130  0.20074  Biso   1.000  O
  C29      1.0000 0.73330  0.13500  0.21610  Biso   1.000  C
  C30      1.0000 0.72260  0.06450  0.19806  Biso   1.000  C
  C31      1.0000 0.69280  0.06250  0.16170  Biso   1.000  C
  H21      1.0000 0.68400  0.10580  0.14950  Biso   1.000  H
  C32      1.0000 0.59680  0.05390  0.09610  Biso   1.000  C
  H22      1.0000 0.58540  0.08880  0.11390  Biso   1.000  H
  C33      1.0000 0.56280  0.05330  0.06160  Biso   1.000  C
  H23      1.0000 0.52860  0.08820  0.05590  Biso   1.000  H
  C34      1.0000 0.63140  0.94960  0.04330  Biso   1.000  C
  C35      1.0000 0.66580  0.94930  0.07780  Biso   1.000  C
  H24      1.0000 0.64350  0.91510  0.02540  Biso   1.000  H
  H25      1.0000 0.70010  0.91420  0.08310  Biso   1.000  H
  O11      1.0000 0.26640  0.63150  0.74750  Biso   1.000  O
  O12      1.0000 0.20790  0.69130  0.70074  Biso   1.000  O
  C36      1.0000 0.23330  0.63500  0.71610  Biso   1.000  C
  C37      1.0000 0.22260  0.56450  0.69806  Biso   1.000  C
  C38      1.0000 0.19280  0.56250  0.66170  Biso   1.000  C
  H26      1.0000 0.18400  0.60580  0.64950  Biso   1.000  H
  C39      1.0000 0.09680  0.55390  0.59610  Biso   1.000  C
  H27      1.0000 0.08540  0.58880  0.61390  Biso   1.000  H
  C40      1.0000 0.06280  0.55330  0.56160  Biso   1.000  C
  H28      1.0000 0.02860  0.58820  0.55590  Biso   1.000  H
  C41      1.0000 0.13140  0.44960  0.54330  Biso   1.000  C
  C42      1.0000 0.16580  0.44930  0.57780  Biso   1.000  C
  H29      1.0000 0.14350  0.41510  0.52540  Biso   1.000  H
  H30      1.0000 0.20010  0.41420  0.58310  Biso   1.000  H
  O13      1.0000 0.23360  0.86850  0.24750  Biso   1.000  O
  O14      1.0000 0.29210  0.80870  0.20074  Biso   1.000  O
  C43      1.0000 0.26670  0.86500  0.21610  Biso   1.000  C
  C44      1.0000 0.27740  0.93550  0.19806  Biso   1.000  C
  C45      1.0000 0.30720  0.93750  0.16170  Biso   1.000  C
  H31      1.0000 0.31600  0.89420  0.14950  Biso   1.000  H
  C46      1.0000 0.40320  0.94610  0.09610  Biso   1.000  C
  H32      1.0000 0.41460  0.91120  0.11390  Biso   1.000  H
  C47      1.0000 0.43720  0.94670  0.06160  Biso   1.000  C
  H33      1.0000 0.47140  0.91180  0.05590  Biso   1.000  H
  C48      1.0000 0.36860  0.05040  0.04330  Biso   1.000  C
  C49      1.0000 0.33420  0.05070  0.07780  Biso   1.000  C
  H34      1.0000 0.35650  0.08490  0.02540  Biso   1.000  H
  H35      1.0000 0.29990  0.08580  0.08310  Biso   1.000  H
  O15      1.0000 0.73360  0.36850  0.74750  Biso   1.000  O
  O16      1.0000 0.79210  0.30870  0.70074  Biso   1.000  O
  C50      1.0000 0.76670  0.36500  0.71610  Biso   1.000  C
  C51      1.0000 0.77740  0.43550  0.69806  Biso   1.000  C
  C52      1.0000 0.80720  0.43750  0.66170  Biso   1.000  C
  H36      1.0000 0.81600  0.39420  0.64950  Biso   1.000  H
  C53      1.0000 0.90320  0.44610  0.59610  Biso   1.000  C
  H37      1.0000 0.91460  0.41120  0.61390  Biso   1.000  H
  C54      1.0000 0.93720  0.44670  0.56160  Biso   1.000  C
  H38      1.0000 0.97140  0.41180  0.55590  Biso   1.000  H
  C55      1.0000 0.86860  0.55040  0.54330  Biso   1.000  C
  C56      1.0000 0.83420  0.55070  0.57780  Biso   1.000  C
  H39      1.0000 0.85650  0.58490  0.52540  Biso   1.000  H
  H40      1.0000 0.79990  0.58580  0.58310  Biso   1.000  H
  O17      1.0000 0.86850  0.23360  0.75250  Biso   1.000  O
  O18      1.0000 0.80870  0.29210  0.79926  Biso   1.000  O
  C57      1.0000 0.86500  0.26670  0.78390  Biso   1.000  C
  C58      1.0000 0.93550  0.27740  0.80194  Biso   1.000  C
  C59      1.0000 0.93750  0.30720  0.83830  Biso   1.000  C
  H41      1.0000 0.89420  0.31600  0.85050  Biso   1.000  H
  C60      1.0000 0.94610  0.40320  0.90390  Biso   1.000  C
  H42      1.0000 0.91120  0.41460  0.88610  Biso   1.000  H
  C61      1.0000 0.94670  0.43720  0.93840  Biso   1.000  C
  H43      1.0000 0.91180  0.47140  0.94410  Biso   1.000  H
  C62      1.0000 0.05040  0.36860  0.95670  Biso   1.000  C
  C63      1.0000 0.05070  0.33420  0.92220  Biso   1.000  C
  H44      1.0000 0.08490  0.35650  0.97460  Biso   1.000  H
  H45      1.0000 0.08580  0.29990  0.91690  Biso   1.000  H
  O19      1.0000 0.36850  0.73360  0.25250  Biso   1.000  O
  O20      1.0000 0.30870  0.79210  0.29926  Biso   1.000  O
  C64      1.0000 0.36500  0.76670  0.28390  Biso   1.000  C
  C65      1.0000 0.43550  0.77740  0.30194  Biso   1.000  C
  C66      1.0000 0.43750  0.80720  0.33830  Biso   1.000  C
  H46      1.0000 0.39420  0.81600  0.35050  Biso   1.000  H
  C67      1.0000 0.44610  0.90320  0.40390  Biso   1.000  C
  H47      1.0000 0.41120  0.91460  0.38610  Biso   1.000  H
  C68      1.0000 0.44670  0.93720  0.43840  Biso   1.000  C
  H48      1.0000 0.41180  0.97140  0.44410  Biso   1.000  H
  C69      1.0000 0.55040  0.86860  0.45670  Biso   1.000  C
  C70      1.0000 0.55070  0.83420  0.42220  Biso   1.000  C
  H49      1.0000 0.58490  0.85650  0.47460  Biso   1.000  H
  H50      1.0000 0.58580  0.79990  0.41690  Biso   1.000  H
  O21      1.0000 0.13150  0.76640  0.75250  Biso   1.000  O
  O22      1.0000 0.19130  0.70790  0.79926  Biso   1.000  O
  C71      1.0000 0.13500  0.73330  0.78390  Biso   1.000  C
  C72      1.0000 0.06450  0.72260  0.80194  Biso   1.000  C
  C73      1.0000 0.06250  0.69280  0.83830  Biso   1.000  C
  H51      1.0000 0.10580  0.68400  0.85050  Biso   1.000  H
  C74      1.0000 0.05390  0.59680  0.90390  Biso   1.000  C
  H52      1.0000 0.08880  0.58540  0.88610  Biso   1.000  H
  C75      1.0000 0.05330  0.56280  0.93840  Biso   1.000  C
  H53      1.0000 0.08820  0.52860  0.94410  Biso   1.000  H
  C76      1.0000 0.94960  0.63140  0.95670  Biso   1.000  C
  C77      1.0000 0.94930  0.66580  0.92220  Biso   1.000  C
  H54      1.0000 0.91510  0.64350  0.97460  Biso   1.000  H
  H55      1.0000 0.91420  0.70010  0.91690  Biso   1.000  H
  O23      1.0000 0.63150  0.26640  0.25250  Biso   1.000  O
  O24      1.0000 0.69130  0.20790  0.29926  Biso   1.000  O
  C78      1.0000 0.63500  0.23330  0.28390  Biso   1.000  C
  C79      1.0000 0.56450  0.22260  0.30194  Biso   1.000  C
  C80      1.0000 0.56250  0.19280  0.33830  Biso   1.000  C
  H56      1.0000 0.60580  0.18400  0.35050  Biso   1.000  H
  C81      1.0000 0.55390  0.09680  0.40390  Biso   1.000  C
  H57      1.0000 0.58880  0.08540  0.38610  Biso   1.000  H
  C82      1.0000 0.55330  0.06280  0.43840  Biso   1.000  C
  H58      1.0000 0.58820  0.02860  0.44410  Biso   1.000  H
  C83      1.0000 0.44960  0.13140  0.45670  Biso   1.000  C
  C84      1.0000 0.44930  0.16580  0.42220  Biso   1.000  C
  H59      1.0000 0.41510  0.14350  0.47460  Biso   1.000  H
  H60      1.0000 0.41420  0.20010  0.41690  Biso   1.000  H
  O25      1.0000 0.23360  0.13150  0.75250  Biso   1.000  O
  O26      1.0000 0.29210  0.19130  0.79926  Biso   1.000  O
  C85      1.0000 0.26670  0.13500  0.78390  Biso   1.000  C
  C86      1.0000 0.27740  0.06450  0.80194  Biso   1.000  C
  C87      1.0000 0.30720  0.06250  0.83830  Biso   1.000  C
  H61      1.0000 0.31600  0.10580  0.85050  Biso   1.000  H
  C88      1.0000 0.40320  0.05390  0.90390  Biso   1.000  C
  H62      1.0000 0.41460  0.08880  0.88610  Biso   1.000  H
  C89      1.0000 0.43720  0.05330  0.93840  Biso   1.000  C
  H63      1.0000 0.47140  0.08820  0.94410  Biso   1.000  H
  C90      1.0000 0.36860  0.94960  0.95670  Biso   1.000  C
  C91      1.0000 0.33420  0.94930  0.92220  Biso   1.000  C
  H64      1.0000 0.35650  0.91510  0.97460  Biso   1.000  H
  H65      1.0000 0.29990  0.91420  0.91690  Biso   1.000  H
  O27      1.0000 0.73360  0.63150  0.25250  Biso   1.000  O
  O28      1.0000 0.79210  0.69130  0.29926  Biso   1.000  O
  C92      1.0000 0.76670  0.63500  0.28390  Biso   1.000  C
  C93      1.0000 0.77740  0.56450  0.30194  Biso   1.000  C
  C94      1.0000 0.80720  0.56250  0.33830  Biso   1.000  C
  H66      1.0000 0.81600  0.60580  0.35050  Biso   1.000  H
  C95      1.0000 0.90320  0.55390  0.40390  Biso   1.000  C
  H67      1.0000 0.91460  0.58880  0.38610  Biso   1.000  H
  C96      1.0000 0.93720  0.55330  0.43840  Biso   1.000  C
  H68      1.0000 0.97140  0.58820  0.44410  Biso   1.000  H
  C97      1.0000 0.86860  0.44960  0.45670  Biso   1.000  C
  C98      1.0000 0.83420  0.44930  0.42220  Biso   1.000  C
  H69      1.0000 0.85650  0.41510  0.47460  Biso   1.000  H
  H70      1.0000 0.79990  0.41420  0.41690  Biso   1.000  H
  O29      1.0000 0.76640  0.86850  0.75250  Biso   1.000  O
  O30      1.0000 0.70790  0.80870  0.79926  Biso   1.000  O
  C99      1.0000 0.73330  0.86500  0.78390  Biso   1.000  C
  C100     1.0000 0.72260  0.93550  0.80194  Biso   1.000  C
  C101     1.0000 0.69280  0.93750  0.83830  Biso   1.000  C
  H71      1.0000 0.68400  0.89420  0.85050  Biso   1.000  H
  C102     1.0000 0.59680  0.94610  0.90390  Biso   1.000  C
  H72      1.0000 0.58540  0.91120  0.88610  Biso   1.000  H
  C103     1.0000 0.56280  0.94670  0.93840  Biso   1.000  C
  H73      1.0000 0.52860  0.91180  0.94410  Biso   1.000  H
  C104     1.0000 0.63140  0.05040  0.95670  Biso   1.000  C
  C105     1.0000 0.66580  0.05070  0.92220  Biso   1.000  C
  H74      1.0000 0.64350  0.08490  0.97460  Biso   1.000  H
  H75      1.0000 0.70010  0.08580  0.91690  Biso   1.000  H
  O31      1.0000 0.26640  0.36850  0.25250  Biso   1.000  O
  O32      1.0000 0.20790  0.30870  0.29926  Biso   1.000  O
  C106     1.0000 0.23330  0.36500  0.28390  Biso   1.000  C
  C107     1.0000 0.22260  0.43550  0.30194  Biso   1.000  C
  C108     1.0000 0.19280  0.43750  0.33830  Biso   1.000  C
  H76      1.0000 0.18400  0.39420  0.35050  Biso   1.000  H
  C109     1.0000 0.09680  0.44610  0.40390  Biso   1.000  C
  H77      1.0000 0.08540  0.41120  0.38610  Biso   1.000  H
  C110     1.0000 0.06280  0.44670  0.43840  Biso   1.000  C
  H78      1.0000 0.02860  0.41180  0.44410  Biso   1.000  H
  C111     1.0000 0.13140  0.55040  0.45670  Biso   1.000  C
  C112     1.0000 0.16580  0.55070  0.42220  Biso   1.000  C
  H79      1.0000 0.14350  0.58490  0.47460  Biso   1.000  H
  H80      1.0000 0.20010  0.58580  0.41690  Biso   1.000  H
  O33      1.0000 0.86850  0.76640  0.75250  Biso   1.000  O
  O34      1.0000 0.80870  0.70790  0.79926  Biso   1.000  O
  C113     1.0000 0.86500  0.73330  0.78390  Biso   1.000  C
  C114     1.0000 0.93550  0.72260  0.80194  Biso   1.000  C
  C115     1.0000 0.93750  0.69280  0.83830  Biso   1.000  C
  H81      1.0000 0.89420  0.68400  0.85050  Biso   1.000  H
  C116     1.0000 0.94610  0.59680  0.90390  Biso   1.000  C
  H82      1.0000 0.91120  0.58540  0.88610  Biso   1.000  H
  C117     1.0000 0.94670  0.56280  0.93840  Biso   1.000  C
  H83      1.0000 0.91180  0.52860  0.94410  Biso   1.000  H
  C118     1.0000 0.05040  0.63140  0.95670  Biso   1.000  C
  C119     1.0000 0.05070  0.66580  0.92220  Biso   1.000  C
  H84      1.0000 0.08490  0.64350  0.97460  Biso   1.000  H
  H85      1.0000 0.08580  0.70010  0.91690  Biso   1.000  H
  O35      1.0000 0.36850  0.26640  0.25250  Biso   1.000  O
  O36      1.0000 0.30870  0.20790  0.29926  Biso   1.000  O
  C120     1.0000 0.36500  0.23330  0.28390  Biso   1.000  C
  C121     1.0000 0.43550  0.22260  0.30194  Biso   1.000  C
  C122     1.0000 0.43750  0.19280  0.33830  Biso   1.000  C
  H86      1.0000 0.39420  0.18400  0.35050  Biso   1.000  H
  C123     1.0000 0.44610  0.09680  0.40390  Biso   1.000  C
  H87      1.0000 0.41120  0.08540  0.38610  Biso   1.000  H
  C124     1.0000 0.44670  0.06280  0.43840  Biso   1.000  C
  H88      1.0000 0.41180  0.02860  0.44410  Biso   1.000  H
  C125     1.0000 0.55040  0.13140  0.45670  Biso   1.000  C
  C126     1.0000 0.55070  0.16580  0.42220  Biso   1.000  C
  H89      1.0000 0.58490  0.14350  0.47460  Biso   1.000  H
  H90      1.0000 0.58580  0.20010  0.41690  Biso   1.000  H
  O37      1.0000 0.13150  0.23360  0.75250  Biso   1.000  O
  O38      1.0000 0.19130  0.29210  0.79926  Biso   1.000  O
  C127     1.0000 0.13500  0.26670  0.78390  Biso   1.000  C
  C128     1.0000 0.06450  0.27740  0.80194  Biso   1.000  C
  C129     1.0000 0.06250  0.30720  0.83830  Biso   1.000  C
  H91      1.0000 0.10580  0.31600  0.85050  Biso   1.000  H
  C130     1.0000 0.05390  0.40320  0.90390  Biso   1.000  C
  H92      1.0000 0.08880  0.41460  0.88610  Biso   1.000  H
  C131     1.0000 0.05330  0.43720  0.93840  Biso   1.000  C
  H93      1.0000 0.08820  0.47140  0.94410  Biso   1.000  H
  C132     1.0000 0.94960  0.36860  0.95670  Biso   1.000  C
  C133     1.0000 0.94930  0.33420  0.92220  Biso   1.000  C
  H94      1.0000 0.91510  0.35650  0.97460  Biso   1.000  H
  H95      1.0000 0.91420  0.29990  0.91690  Biso   1.000  H
  O39      1.0000 0.63150  0.73360  0.25250  Biso   1.000  O
  O40      1.0000 0.69130  0.79210  0.29926  Biso   1.000  O
  C134     1.0000 0.63500  0.76670  0.28390  Biso   1.000  C
  C135     1.0000 0.56450  0.77740  0.30194  Biso   1.000  C
  C136     1.0000 0.56250  0.80720  0.33830  Biso   1.000  C
  H96      1.0000 0.60580  0.81600  0.35050  Biso   1.000  H
  C137     1.0000 0.55390  0.90320  0.40390  Biso   1.000  C
  H97      1.0000 0.58880  0.91460  0.38610  Biso   1.000  H
  C138     1.0000 0.55330  0.93720  0.43840  Biso   1.000  C
  H98      1.0000 0.58820  0.97140  0.44410  Biso   1.000  H
  C139     1.0000 0.44960  0.86860  0.45670  Biso   1.000  C
  C140     1.0000 0.44930  0.83420  0.42220  Biso   1.000  C
  H99      1.0000 0.41510  0.85650  0.47460  Biso   1.000  H
  H100     1.0000 0.41420  0.79990  0.41690  Biso   1.000  H
  O41      1.0000 0.23360  0.86850  0.75250  Biso   1.000  O
  O42      1.0000 0.29210  0.80870  0.79926  Biso   1.000  O
  C141     1.0000 0.26670  0.86500  0.78390  Biso   1.000  C
  C142     1.0000 0.27740  0.93550  0.80194  Biso   1.000  C
  C143     1.0000 0.30720  0.93750  0.83830  Biso   1.000  C
  H101     1.0000 0.31600  0.89420  0.85050  Biso   1.000  H
  C144     1.0000 0.40320  0.94610  0.90390  Biso   1.000  C
  H102     1.0000 0.41460  0.91120  0.88610  Biso   1.000  H
  C145     1.0000 0.43720  0.94670  0.93840  Biso   1.000  C
  H103     1.0000 0.47140  0.91180  0.94410  Biso   1.000  H
  C146     1.0000 0.36860  0.05040  0.95670  Biso   1.000  C
  C147     1.0000 0.33420  0.05070  0.92220  Biso   1.000  C
  H104     1.0000 0.35650  0.08490  0.97460  Biso   1.000  H
  H105     1.0000 0.29990  0.08580  0.91690  Biso   1.000  H
  O43      1.0000 0.73360  0.36850  0.25250  Biso   1.000  O
  O44      1.0000 0.79210  0.30870  0.29926  Biso   1.000  O
  C148     1.0000 0.76670  0.36500  0.28390  Biso   1.000  C
  C149     1.0000 0.77740  0.43550  0.30194  Biso   1.000  C
  C150     1.0000 0.80720  0.43750  0.33830  Biso   1.000  C
  H106     1.0000 0.81600  0.39420  0.35050  Biso   1.000  H
  C151     1.0000 0.90320  0.44610  0.40390  Biso   1.000  C
  H107     1.0000 0.91460  0.41120  0.38610  Biso   1.000  H
  C152     1.0000 0.93720  0.44670  0.43840  Biso   1.000  C
  H108     1.0000 0.97140  0.41180  0.44410  Biso   1.000  H
  C153     1.0000 0.86860  0.55040  0.45670  Biso   1.000  C
  C154     1.0000 0.83420  0.55070  0.42220  Biso   1.000  C
  H109     1.0000 0.85650  0.58490  0.47460  Biso   1.000  H
  H110     1.0000 0.79990  0.58580  0.41690  Biso   1.000  H
  O45      1.0000 0.76640  0.13150  0.75250  Biso   1.000  O
  O46      1.0000 0.70790  0.19130  0.79926  Biso   1.000  O
  C155     1.0000 0.73330  0.13500  0.78390  Biso   1.000  C
  C156     1.0000 0.72260  0.06450  0.80194  Biso   1.000  C
  C157     1.0000 0.69280  0.06250  0.83830  Biso   1.000  C
  H111     1.0000 0.68400  0.10580  0.85050  Biso   1.000  H
  C158     1.0000 0.59680  0.05390  0.90390  Biso   1.000  C
  H112     1.0000 0.58540  0.08880  0.88610  Biso   1.000  H
  C159     1.0000 0.56280  0.05330  0.93840  Biso   1.000  C
  H113     1.0000 0.52860  0.08820  0.94410  Biso   1.000  H
  C160     1.0000 0.63140  0.94960  0.95670  Biso   1.000  C
  C161     1.0000 0.66580  0.94930  0.92220  Biso   1.000  C
  H114     1.0000 0.64350  0.91510  0.97460  Biso   1.000  H
  H115     1.0000 0.70010  0.91420  0.91690  Biso   1.000  H
  O47      1.0000 0.26640  0.63150  0.25250  Biso   1.000  O
  O48      1.0000 0.20790  0.69130  0.29926  Biso   1.000  O
  C162     1.0000 0.23330  0.63500  0.28390  Biso   1.000  C
  C163     1.0000 0.22260  0.56450  0.30194  Biso   1.000  C
  C164     1.0000 0.19280  0.56250  0.33830  Biso   1.000  C
  H116     1.0000 0.18400  0.60580  0.35050  Biso   1.000  H
  C165     1.0000 0.09680  0.55390  0.40390  Biso   1.000  C
  H117     1.0000 0.08540  0.58880  0.38610  Biso   1.000  H
  C166     1.0000 0.06280  0.55330  0.43840  Biso   1.000  C
  H118     1.0000 0.02860  0.58820  0.44410  Biso   1.000  H
  C167     1.0000 0.13140  0.44960  0.45670  Biso   1.000  C
  C168     1.0000 0.16580  0.44930  0.42220  Biso   1.000  C
  H119     1.0000 0.14350  0.41510  0.47460  Biso   1.000  H
  H120     1.0000 0.20010  0.41420  0.41690  Biso   1.000  H
  O49      1.0000 0.13150  0.76640  0.24750  Biso   1.000  O
  O50      1.0000 0.19130  0.70790  0.20074  Biso   1.000  O
  C169     1.0000 0.13500  0.73330  0.21610  Biso   1.000  C
  C170     1.0000 0.06450  0.72260  0.19806  Biso   1.000  C
  C171     1.0000 0.06250  0.69280  0.16170  Biso   1.000  C
  H121     1.0000 0.10580  0.68400  0.14950  Biso   1.000  H
  C172     1.0000 0.05390  0.59680  0.09610  Biso   1.000  C
  H122     1.0000 0.08880  0.58540  0.11390  Biso   1.000  H
  C173     1.0000 0.05330  0.56280  0.06160  Biso   1.000  C
  H123     1.0000 0.08820  0.52860  0.05590  Biso   1.000  H
  C174     1.0000 0.94960  0.63140  0.04330  Biso   1.000  C
  C175     1.0000 0.94930  0.66580  0.07780  Biso   1.000  C
  H124     1.0000 0.91510  0.64350  0.02540  Biso   1.000  H
  H125     1.0000 0.91420  0.70010  0.08310  Biso   1.000  H
  O51      1.0000 0.63150  0.26640  0.74750  Biso   1.000  O
  O52      1.0000 0.69130  0.20790  0.70074  Biso   1.000  O
  C176     1.0000 0.63500  0.23330  0.71610  Biso   1.000  C
  C177     1.0000 0.56450  0.22260  0.69806  Biso   1.000  C
  C178     1.0000 0.56250  0.19280  0.66170  Biso   1.000  C
  H126     1.0000 0.60580  0.18400  0.64950  Biso   1.000  H
  C179     1.0000 0.55390  0.09680  0.59610  Biso   1.000  C
  H127     1.0000 0.58880  0.08540  0.61390  Biso   1.000  H
  C180     1.0000 0.55330  0.06280  0.56160  Biso   1.000  C
  H128     1.0000 0.58820  0.02860  0.55590  Biso   1.000  H
  C181     1.0000 0.44960  0.13140  0.54330  Biso   1.000  C
  C182     1.0000 0.44930  0.16580  0.57780  Biso   1.000  C
  H129     1.0000 0.41510  0.14350  0.52540  Biso   1.000  H
  H130     1.0000 0.41420  0.20010  0.58310  Biso   1.000  H
  O53      1.0000 0.86850  0.23360  0.24750  Biso   1.000  O
  O54      1.0000 0.80870  0.29210  0.20074  Biso   1.000  O
  C183     1.0000 0.86500  0.26670  0.21610  Biso   1.000  C
  C184     1.0000 0.93550  0.27740  0.19806  Biso   1.000  C
  C185     1.0000 0.93750  0.30720  0.16170  Biso   1.000  C
  H131     1.0000 0.89420  0.31600  0.14950  Biso   1.000  H
  C186     1.0000 0.94610  0.40320  0.09610  Biso   1.000  C
  H132     1.0000 0.91120  0.41460  0.11390  Biso   1.000  H
  C187     1.0000 0.94670  0.43720  0.06160  Biso   1.000  C
  H133     1.0000 0.91180  0.47140  0.05590  Biso   1.000  H
  C188     1.0000 0.05040  0.36860  0.04330  Biso   1.000  C
  C189     1.0000 0.05070  0.33420  0.07780  Biso   1.000  C
  H134     1.0000 0.08490  0.35650  0.02540  Biso   1.000  H
  H135     1.0000 0.08580  0.29990  0.08310  Biso   1.000  H
  O55      1.0000 0.36850  0.73360  0.74750  Biso   1.000  O
  O56      1.0000 0.30870  0.79210  0.70074  Biso   1.000  O
  C190     1.0000 0.36500  0.76670  0.71610  Biso   1.000  C
  C191     1.0000 0.43550  0.77740  0.69806  Biso   1.000  C
  C192     1.0000 0.43750  0.80720  0.66170  Biso   1.000  C
  H136     1.0000 0.39420  0.81600  0.64950  Biso   1.000  H
  C193     1.0000 0.44610  0.90320  0.59610  Biso   1.000  C
  H137     1.0000 0.41120  0.91460  0.61390  Biso   1.000  H
  C194     1.0000 0.44670  0.93720  0.56160  Biso   1.000  C
  H138     1.0000 0.41180  0.97140  0.55590  Biso   1.000  H
  C195     1.0000 0.55040  0.86860  0.54330  Biso   1.000  C
  C196     1.0000 0.55070  0.83420  0.57780  Biso   1.000  C
  H139     1.0000 0.58490  0.85650  0.52540  Biso   1.000  H
  H140     1.0000 0.58580  0.79990  0.58310  Biso   1.000  H
  O57      1.0000 0.76640  0.86850  0.24750  Biso   1.000  O
  O58      1.0000 0.70790  0.80870  0.20074  Biso   1.000  O
  C197     1.0000 0.73330  0.86500  0.21610  Biso   1.000  C
  C198     1.0000 0.72260  0.93550  0.19806  Biso   1.000  C
  C199     1.0000 0.69280  0.93750  0.16170  Biso   1.000  C
  H141     1.0000 0.68400  0.89420  0.14950  Biso   1.000  H
  C200     1.0000 0.59680  0.94610  0.09610  Biso   1.000  C
  H142     1.0000 0.58540  0.91120  0.11390  Biso   1.000  H
  C201     1.0000 0.56280  0.94670  0.06160  Biso   1.000  C
  H143     1.0000 0.52860  0.91180  0.05590  Biso   1.000  H
  C202     1.0000 0.63140  0.05040  0.04330  Biso   1.000  C
  C203     1.0000 0.66580  0.05070  0.07780  Biso   1.000  C
  H144     1.0000 0.64350  0.08490  0.02540  Biso   1.000  H
  H145     1.0000 0.70010  0.08580  0.08310  Biso   1.000  H
  O59      1.0000 0.26640  0.36850  0.74750  Biso   1.000  O
  O60      1.0000 0.20790  0.30870  0.70074  Biso   1.000  O
  C204     1.0000 0.23330  0.36500  0.71610  Biso   1.000  C
  C205     1.0000 0.22260  0.43550  0.69806  Biso   1.000  C
  C206     1.0000 0.19280  0.43750  0.66170  Biso   1.000  C
  H146     1.0000 0.18400  0.39420  0.64950  Biso   1.000  H
  C207     1.0000 0.09680  0.44610  0.59610  Biso   1.000  C
  H147     1.0000 0.08540  0.41120  0.61390  Biso   1.000  H
  C208     1.0000 0.06280  0.44670  0.56160  Biso   1.000  C
  H148     1.0000 0.02860  0.41180  0.55590  Biso   1.000  H
  C209     1.0000 0.13140  0.55040  0.54330  Biso   1.000  C
  C210     1.0000 0.16580  0.55070  0.57780  Biso   1.000  C
  H149     1.0000 0.14350  0.58490  0.52540  Biso   1.000  H
  H150     1.0000 0.20010  0.58580  0.58310  Biso   1.000  H
  O61      1.0000 0.23360  0.13150  0.24750  Biso   1.000  O
  O62      1.0000 0.29210  0.19130  0.20074  Biso   1.000  O
  C211     1.0000 0.26670  0.13500  0.21610  Biso   1.000  C
  C212     1.0000 0.27740  0.06450  0.19806  Biso   1.000  C
  C213     1.0000 0.30720  0.06250  0.16170  Biso   1.000  C
  H151     1.0000 0.31600  0.10580  0.14950  Biso   1.000  H
  C214     1.0000 0.40320  0.05390  0.09610  Biso   1.000  C
  H152     1.0000 0.41460  0.08880  0.11390  Biso   1.000  H
  C215     1.0000 0.43720  0.05330  0.06160  Biso   1.000  C
  H153     1.0000 0.47140  0.08820  0.05590  Biso   1.000  H
  C216     1.0000 0.36860  0.94960  0.04330  Biso   1.000  C
  C217     1.0000 0.33420  0.94930  0.07780  Biso   1.000  C
  H154     1.0000 0.35650  0.91510  0.02540  Biso   1.000  H
  H155     1.0000 0.29990  0.91420  0.08310  Biso   1.000  H
  O63      1.0000 0.73360  0.63150  0.74750  Biso   1.000  O
  O64      1.0000 0.79210  0.69130  0.70074  Biso   1.000  O
  C218     1.0000 0.76670  0.63500  0.71610  Biso   1.000  C
  C219     1.0000 0.77740  0.56450  0.69806  Biso   1.000  C
  C220     1.0000 0.80720  0.56250  0.66170  Biso   1.000  C
  H156     1.0000 0.81600  0.60580  0.64950  Biso   1.000  H
  C221     1.0000 0.90320  0.55390  0.59610  Biso   1.000  C
  H157     1.0000 0.91460  0.58880  0.61390  Biso   1.000  H
  C222     1.0000 0.93720  0.55330  0.56160  Biso   1.000  C
  H158     1.0000 0.97140  0.58820  0.55590  Biso   1.000  H
  C223     1.0000 0.86860  0.44960  0.54330  Biso   1.000  C
  C224     1.0000 0.83420  0.44930  0.57780  Biso   1.000  C
  H159     1.0000 0.85650  0.41510  0.52540  Biso   1.000  H
  H160     1.0000 0.79990  0.41420  0.58310  Biso   1.000  H
  Cu1      1.0000 0.21591  0.21591  0.27734  Biso   1.000  Cu
  Cu2      1.0000 0.71591  0.71591  0.77734  Biso   1.000  Cu
  Cu3      1.0000 0.78409  0.78409  0.27734  Biso   1.000  Cu
  Cu4      1.0000 0.28409  0.28409  0.77734  Biso   1.000  Cu
  Cu5      1.0000 0.78409  0.21591  0.27734  Biso   1.000  Cu
  Cu6      1.0000 0.28409  0.71591  0.77734  Biso   1.000  Cu
  Cu7      1.0000 0.21591  0.78409  0.27734  Biso   1.000  Cu
  Cu8      1.0000 0.71591  0.28409  0.77734  Biso   1.000  Cu
  Cu9      1.0000 0.78409  0.21591  0.72266  Biso   1.000  Cu
  Cu10     1.0000 0.28409  0.71591  0.22266  Biso   1.000  Cu
  Cu11     1.0000 0.21591  0.78409  0.72266  Biso   1.000  Cu
  Cu12     1.0000 0.71591  0.28409  0.22266  Biso   1.000  Cu
  Cu13     1.0000 0.21591  0.21591  0.72266  Biso   1.000  Cu
  Cu14     1.0000 0.71591  0.71591  0.22266  Biso   1.000  Cu
  Cu15     1.0000 0.78409  0.78409  0.72266  Biso   1.000  Cu
  Cu16     1.0000 0.28409  0.28409  0.22266  Biso   1.000  Cu
  C225     1.0000 0.00000  0.26420  0.21440  Biso   1.000  C
  H161     1.0000 0.00000  0.24480  0.23840  Biso   1.000  H
  C226     1.0000 0.00000  0.32370  0.14360  Biso   1.000  C
  C227     1.0000 0.00000  0.42000  0.03510  Biso   1.000  C
  C228     1.0000 0.00000  0.35040  0.10410  Biso   1.000  C
  C229     1.0000 0.50000  0.76420  0.71440  Biso   1.000  C
  H162     1.0000 0.50000  0.74480  0.73840  Biso   1.000  H
  C230     1.0000 0.50000  0.82370  0.64360  Biso   1.000  C
  C231     1.0000 0.50000  0.92000  0.53510  Biso   1.000  C
  C232     1.0000 0.50000  0.85040  0.60410  Biso   1.000  C
  C233     1.0000 0.00000  0.73580  0.21440  Biso   1.000  C
  H163     1.0000 0.00000  0.75520  0.23840  Biso   1.000  H
  C234     1.0000 0.00000  0.67630  0.14360  Biso   1.000  C
  C235     1.0000 0.00000  0.58000  0.03510  Biso   1.000  C
  C236     1.0000 0.00000  0.64960  0.10410  Biso   1.000  C
  C237     1.0000 0.50000  0.23580  0.71440  Biso   1.000  C
  H164     1.0000 0.50000  0.25520  0.73840  Biso   1.000  H
  C238     1.0000 0.50000  0.17630  0.64360  Biso   1.000  C
  C239     1.0000 0.50000  0.08000  0.53510  Biso   1.000  C
  C240     1.0000 0.50000  0.14960  0.60410  Biso   1.000  C
  C241     1.0000 0.73580  0.00000  0.21440  Biso   1.000  C
  H165     1.0000 0.75520  0.00000  0.23840  Biso   1.000  H
  C242     1.0000 0.67630  0.00000  0.14360  Biso   1.000  C
  C243     1.0000 0.58000  0.00000  0.03510  Biso   1.000  C
  C244     1.0000 0.64960  0.00000  0.10410  Biso   1.000  C
  C245     1.0000 0.23580  0.50000  0.71440  Biso   1.000  C
  H166     1.0000 0.25520  0.50000  0.73840  Biso   1.000  H
  C246     1.0000 0.17630  0.50000  0.64360  Biso   1.000  C
  C247     1.0000 0.08000  0.50000  0.53510  Biso   1.000  C
  C248     1.0000 0.14960  0.50000  0.60410  Biso   1.000  C
  C249     1.0000 0.26420  0.00000  0.21440  Biso   1.000  C
  H167     1.0000 0.24480  0.00000  0.23840  Biso   1.000  H
  C250     1.0000 0.32370  0.00000  0.14360  Biso   1.000  C
  C251     1.0000 0.42000  0.00000  0.03510  Biso   1.000  C
  C252     1.0000 0.35040  0.00000  0.10410  Biso   1.000  C
  C253     1.0000 0.76420  0.50000  0.71440  Biso   1.000  C
  H168     1.0000 0.74480  0.50000  0.73840  Biso   1.000  H
  C254     1.0000 0.82370  0.50000  0.64360  Biso   1.000  C
  C255     1.0000 0.92000  0.50000  0.53510  Biso   1.000  C
  C256     1.0000 0.85040  0.50000  0.60410  Biso   1.000  C
  C257     1.0000 0.00000  0.26420  0.78560  Biso   1.000  C
  H169     1.0000 0.00000  0.24480  0.76160  Biso   1.000  H
  C258     1.0000 0.00000  0.32370  0.85640  Biso   1.000  C
  C259     1.0000 0.00000  0.42000  0.96490  Biso   1.000  C
  C260     1.0000 0.00000  0.35040  0.89590  Biso   1.000  C
  C261     1.0000 0.50000  0.76420  0.28560  Biso   1.000  C
  H170     1.0000 0.50000  0.74480  0.26160  Biso   1.000  H
  C262     1.0000 0.50000  0.82370  0.35640  Biso   1.000  C
  C263     1.0000 0.50000  0.92000  0.46490  Biso   1.000  C
  C264     1.0000 0.50000  0.85040  0.39590  Biso   1.000  C
  C265     1.0000 0.00000  0.73580  0.78560  Biso   1.000  C
  H171     1.0000 0.00000  0.75520  0.76160  Biso   1.000  H
  C266     1.0000 0.00000  0.67630  0.85640  Biso   1.000  C
  C267     1.0000 0.00000  0.58000  0.96490  Biso   1.000  C
  C268     1.0000 0.00000  0.64960  0.89590  Biso   1.000  C
  C269     1.0000 0.50000  0.23580  0.28560  Biso   1.000  C
  H172     1.0000 0.50000  0.25520  0.26160  Biso   1.000  H
  C270     1.0000 0.50000  0.17630  0.35640  Biso   1.000  C
  C271     1.0000 0.50000  0.08000  0.46490  Biso   1.000  C
  C272     1.0000 0.50000  0.14960  0.39590  Biso   1.000  C
  C273     1.0000 0.26420  0.00000  0.78560  Biso   1.000  C
  H173     1.0000 0.24480  0.00000  0.76160  Biso   1.000  H
  C274     1.0000 0.32370  0.00000  0.85640  Biso   1.000  C
  C275     1.0000 0.42000  0.00000  0.96490  Biso   1.000  C
  C276     1.0000 0.35040  0.00000  0.89590  Biso   1.000  C
  C277     1.0000 0.76420  0.50000  0.28560  Biso   1.000  C
  H174     1.0000 0.74480  0.50000  0.26160  Biso   1.000  H
  C278     1.0000 0.82370  0.50000  0.35640  Biso   1.000  C
  C279     1.0000 0.92000  0.50000  0.46490  Biso   1.000  C
  C280     1.0000 0.85040  0.50000  0.39590  Biso   1.000  C
  C281     1.0000 0.73580  0.00000  0.78560  Biso   1.000  C
  H175     1.0000 0.75520  0.00000  0.76160  Biso   1.000  H
  C282     1.0000 0.67630  0.00000  0.85640  Biso   1.000  C
  C283     1.0000 0.58000  0.00000  0.96490  Biso   1.000  C
  C284     1.0000 0.64960  0.00000  0.89590  Biso   1.000  C
  C285     1.0000 0.23580  0.50000  0.28560  Biso   1.000  C
  H176     1.0000 0.25520  0.50000  0.26160  Biso   1.000  H
  C286     1.0000 0.17630  0.50000  0.35640  Biso   1.000  C
  C287     1.0000 0.08000  0.50000  0.46490  Biso   1.000  C
  C288     1.0000 0.14960  0.50000  0.39590  Biso   1.000  C
  C289     1.0000 0.00000  0.46900  0.00000  Biso   1.000  C
  C290     1.0000 0.50000  0.96900  0.50000  Biso   1.000  C
  C291     1.0000 0.00000  0.53100  0.00000  Biso   1.000  C
  C292     1.0000 0.50000  0.03100  0.50000  Biso   1.000  C
  C293     1.0000 0.53100  0.00000  0.00000  Biso   1.000  C
  C294     1.0000 0.03100  0.50000  0.50000  Biso   1.000  C
  C295     1.0000 0.46900  0.00000  0.00000  Biso   1.000  C
  C296     1.0000 0.96900  0.50000  0.50000  Biso   1.000  C
