data_image0
_cell_length_a       14.3172
_cell_length_b       17.4017
_cell_length_c       7.3334
_cell_angle_alpha    90
_cell_angle_beta     90
_cell_angle_gamma    90

_symmetry_space_group_name_H-M    "P 1"
_symmetry_int_tables_number       1

loop_
  _symmetry_equiv_pos_as_xyz
  'x, y, z'

loop_
  _atom_site_label
  _atom_site_occupancy
  _atom_site_fract_x
  _atom_site_fract_y
  _atom_site_fract_z
  _atom_site_thermal_displace_type
  _atom_site_B_iso_or_equiv
  _atom_site_type_symbol
  N1       1.0000 0.14629  0.77259  0.28825  Biso   1.000  N
  C1       1.0000 0.09592  0.77831  0.16875  Biso   1.000  C
  N2       1.0000 0.64629  0.27259  0.28825  Biso   1.000  N
  C2       1.0000 0.59592  0.27831  0.16875  Biso   1.000  C
  N3       1.0000 0.85371  0.22741  0.28825  Biso   1.000  N
  C3       1.0000 0.90408  0.22169  0.16875  Biso   1.000  C
  N4       1.0000 0.35371  0.72741  0.28825  Biso   1.000  N
  C4       1.0000 0.40408  0.72169  0.16875  Biso   1.000  C
  N5       1.0000 0.85371  0.77259  0.71175  Biso   1.000  N
  C5       1.0000 0.90408  0.77831  0.83125  Biso   1.000  C
  N6       1.0000 0.35371  0.27259  0.71175  Biso   1.000  N
  C6       1.0000 0.40408  0.27831  0.83125  Biso   1.000  C
  N7       1.0000 0.14629  0.22741  0.71175  Biso   1.000  N
  C7       1.0000 0.09592  0.22169  0.83125  Biso   1.000  C
  N8       1.0000 0.64629  0.72741  0.71175  Biso   1.000  N
  C8       1.0000 0.59592  0.72169  0.83125  Biso   1.000  C
  N9       1.0000 0.85371  0.22741  0.71175  Biso   1.000  N
  C9       1.0000 0.90408  0.22169  0.83125  Biso   1.000  C
  N10      1.0000 0.35371  0.72741  0.71175  Biso   1.000  N
  C10      1.0000 0.40408  0.72169  0.83125  Biso   1.000  C
  N11      1.0000 0.14629  0.77259  0.71175  Biso   1.000  N
  C11      1.0000 0.09592  0.77831  0.83125  Biso   1.000  C
  N12      1.0000 0.64629  0.27259  0.71175  Biso   1.000  N
  C12      1.0000 0.59592  0.27831  0.83125  Biso   1.000  C
  N13      1.0000 0.14629  0.22741  0.28825  Biso   1.000  N
  C13      1.0000 0.09592  0.22169  0.16875  Biso   1.000  C
  N14      1.0000 0.64629  0.72741  0.28825  Biso   1.000  N
  C14      1.0000 0.59592  0.72169  0.16875  Biso   1.000  C
  N15      1.0000 0.85371  0.77259  0.28825  Biso   1.000  N
  C15      1.0000 0.90408  0.77831  0.16875  Biso   1.000  C
  N16      1.0000 0.35371  0.27259  0.28825  Biso   1.000  N
  C16      1.0000 0.40408  0.27831  0.16875  Biso   1.000  C
  Fe1      1.0000 0.25000  0.75000  0.50000  Biso   1.000  Fe
  Fe2      1.0000 0.75000  0.25000  0.50000  Biso   1.000  Fe
  Fe3      1.0000 0.75000  0.75000  0.50000  Biso   1.000  Fe
  Fe4      1.0000 0.25000  0.25000  0.50000  Biso   1.000  Fe
  C17      1.0000 0.04708  0.78213  0.00000  Biso   1.000  C
  C18      1.0000 0.54708  0.28213  0.00000  Biso   1.000  C
  C19      1.0000 0.95292  0.21787  0.00000  Biso   1.000  C
  C20      1.0000 0.45292  0.71787  0.00000  Biso   1.000  C
  C21      1.0000 0.95292  0.78213  0.00000  Biso   1.000  C
  C22      1.0000 0.45292  0.28213  0.00000  Biso   1.000  C
  C23      1.0000 0.04708  0.21787  0.00000  Biso   1.000  C
  C24      1.0000 0.54708  0.71787  0.00000  Biso   1.000  C
  N17      1.0000 0.00000  0.37912  0.22770  Biso   1.000  N
  C25      1.0000 0.00000  0.43124  0.29700  Biso   1.000  C
  N18      1.0000 0.50000  0.87912  0.22770  Biso   1.000  N
  C26      1.0000 0.50000  0.93124  0.29700  Biso   1.000  C
  N19      1.0000 0.00000  0.62088  0.22770  Biso   1.000  N
  C27      1.0000 0.00000  0.56876  0.29700  Biso   1.000  C
  N20      1.0000 0.50000  0.12088  0.22770  Biso   1.000  N
  C28      1.0000 0.50000  0.06876  0.29700  Biso   1.000  C
  N21      1.0000 0.00000  0.37912  0.77230  Biso   1.000  N
  C29      1.0000 0.00000  0.43124  0.70300  Biso   1.000  C
  N22      1.0000 0.50000  0.87912  0.77230  Biso   1.000  N
  C30      1.0000 0.50000  0.93124  0.70300  Biso   1.000  C
  N23      1.0000 0.00000  0.62088  0.77230  Biso   1.000  N
  C31      1.0000 0.00000  0.56876  0.70300  Biso   1.000  C
  N24      1.0000 0.50000  0.12088  0.77230  Biso   1.000  N
  C32      1.0000 0.50000  0.06876  0.70300  Biso   1.000  C
  C33      1.0000 0.03938  0.50000  0.42400  Biso   1.000  C
  C34      1.0000 0.53938  0.00000  0.42400  Biso   1.000  C
  C35      1.0000 0.96062  0.50000  0.42400  Biso   1.000  C
  C36      1.0000 0.46062  0.00000  0.42400  Biso   1.000  C
  C37      1.0000 0.96062  0.50000  0.57600  Biso   1.000  C
  C38      1.0000 0.46062  0.00000  0.57600  Biso   1.000  C
  C39      1.0000 0.03938  0.50000  0.57600  Biso   1.000  C
  C40      1.0000 0.53938  0.00000  0.57600  Biso   1.000  C
  N25      1.0000 0.21135  0.62998  0.50000  Biso   1.000  N
  C41      1.0000 0.18401  0.56999  0.50000  Biso   1.000  C
  N26      1.0000 0.71135  0.12998  0.50000  Biso   1.000  N
  C42      1.0000 0.68401  0.06999  0.50000  Biso   1.000  C
  N27      1.0000 0.78865  0.37002  0.50000  Biso   1.000  N
  C43      1.0000 0.81599  0.43001  0.50000  Biso   1.000  C
  N28      1.0000 0.28865  0.87002  0.50000  Biso   1.000  N
  C44      1.0000 0.31599  0.93001  0.50000  Biso   1.000  C
  N29      1.0000 0.78865  0.62998  0.50000  Biso   1.000  N
  C45      1.0000 0.81599  0.56999  0.50000  Biso   1.000  C
  N30      1.0000 0.28865  0.12998  0.50000  Biso   1.000  N
  C46      1.0000 0.31599  0.06999  0.50000  Biso   1.000  C
  N31      1.0000 0.21135  0.37002  0.50000  Biso   1.000  N
  C47      1.0000 0.18401  0.43001  0.50000  Biso   1.000  C
  N32      1.0000 0.71135  0.87002  0.50000  Biso   1.000  N
  C48      1.0000 0.68401  0.93001  0.50000  Biso   1.000  C
  C49      1.0000 0.13837  0.50000  0.50000  Biso   1.000  C
  C50      1.0000 0.63837  0.00000  0.50000  Biso   1.000  C
  C51      1.0000 0.86163  0.50000  0.50000  Biso   1.000  C
  C52      1.0000 0.36163  0.00000  0.50000  Biso   1.000  C
