data_image0
_cell_length_a       16.7531
_cell_length_b       16.7531
_cell_length_c       10.8111
_cell_angle_alpha    90
_cell_angle_beta     90
_cell_angle_gamma    120

_symmetry_space_group_name_H-M    "P 1"
_symmetry_int_tables_number       1

loop_
  _symmetry_equiv_pos_as_xyz
  'x, y, z'

loop_
  _atom_site_label
  _atom_site_occupancy
  _atom_site_fract_x
  _atom_site_fract_y
  _atom_site_fract_z
  _atom_site_thermal_displace_type
  _atom_site_B_iso_or_equiv
  _atom_site_type_symbol
  C1       1.0000 0.03490  0.36570  0.34060  Biso   1.000  C
  C2       1.0000 0.10220  0.46870  0.32150  Biso   1.000  C
  H1       1.0000 0.09140  0.48690  0.24090  Biso   1.000  H
  H2       1.0000 0.09050  0.50340  0.38350  Biso   1.000  H
  C3       1.0000 0.25770  0.57800  0.32630  Biso   1.000  C
  C4       1.0000 0.24450  0.65190  0.32590  Biso   1.000  C
  H3       1.0000 0.18490  0.64250  0.32540  Biso   1.000  H
  C5       1.0000 0.84310  0.11560  0.06800  Biso   1.000  C
  H4       1.0000 0.83410  0.06410  0.11200  Biso   1.000  H
  C6       1.0000 0.86860  0.26410  0.06450  Biso   1.000  C
  H5       1.0000 0.87750  0.31720  0.10400  Biso   1.000  H
  C7       1.0000 0.85790  0.18860  0.13120  Biso   1.000  C
  O1       1.0000 0.94994  0.34219  0.34250  Biso   1.000  O
  O2       1.0000 0.06509  0.31579  0.35080  Biso   1.000  O
  O3       1.0000 0.19030  0.48978  0.32910  Biso   1.000  O
  Cu1      1.0000 0.85044  0.20332  0.31982  Biso   1.000  Cu
  H6       1.0000 0.86080  0.18960  0.21070  Biso   1.000  H
  H7       1.0000 0.82780  0.16160  0.45300  Biso   1.000  H
  H8       1.0000 0.91920  0.22410  0.48040  Biso   1.000  H
  N1       1.0000 0.81140  0.66930  0.13120  Biso   1.000  N
  C8       1.0000 0.63430  0.66920  0.34060  Biso   1.000  C
  C9       1.0000 0.53130  0.63350  0.32150  Biso   1.000  C
  H9       1.0000 0.51310  0.60450  0.24090  Biso   1.000  H
  H10      1.0000 0.49660  0.58710  0.38350  Biso   1.000  H
  C10      1.0000 0.42200  0.67970  0.32630  Biso   1.000  C
  C11      1.0000 0.34810  0.59260  0.32590  Biso   1.000  C
  H11      1.0000 0.35750  0.54240  0.32540  Biso   1.000  H
  C12      1.0000 0.88440  0.72750  0.06800  Biso   1.000  C
  H12      1.0000 0.93590  0.77000  0.11200  Biso   1.000  H
  C13      1.0000 0.73590  0.60450  0.06450  Biso   1.000  C
  H13      1.0000 0.68280  0.56030  0.10400  Biso   1.000  H
  O4       1.0000 0.65781  0.60775  0.34250  Biso   1.000  O
  O5       1.0000 0.68421  0.74930  0.35080  Biso   1.000  O
  O6       1.0000 0.51022  0.70052  0.32910  Biso   1.000  O
  Cu2      1.0000 0.79668  0.64712  0.31982  Biso   1.000  Cu
  H14      1.0000 0.81040  0.67120  0.21070  Biso   1.000  H
  H15      1.0000 0.83840  0.66620  0.45300  Biso   1.000  H
  H16      1.0000 0.77590  0.69510  0.48040  Biso   1.000  H
  N2       1.0000 0.33070  0.14210  0.13120  Biso   1.000  N
  C14      1.0000 0.33080  0.96510  0.34060  Biso   1.000  C
  C15      1.0000 0.36650  0.89780  0.32150  Biso   1.000  C
  H17      1.0000 0.39550  0.90860  0.24090  Biso   1.000  H
  H18      1.0000 0.41290  0.90950  0.38350  Biso   1.000  H
  C16      1.0000 0.32030  0.74230  0.32630  Biso   1.000  C
  C17      1.0000 0.40740  0.75550  0.32590  Biso   1.000  C
  H19      1.0000 0.45760  0.81510  0.32540  Biso   1.000  H
  C18      1.0000 0.27250  0.15690  0.06800  Biso   1.000  C
  H20      1.0000 0.23000  0.16590  0.11200  Biso   1.000  H
  C19      1.0000 0.39550  0.13140  0.06450  Biso   1.000  C
  H21      1.0000 0.43970  0.12250  0.10400  Biso   1.000  H
  O7       1.0000 0.39225  0.05006  0.34250  Biso   1.000  O
  O8       1.0000 0.25070  0.93491  0.35080  Biso   1.000  O
  O9       1.0000 0.29948  0.80970  0.32910  Biso   1.000  O
  Cu3      1.0000 0.35288  0.14956  0.31982  Biso   1.000  Cu
  H22      1.0000 0.32880  0.13920  0.21070  Biso   1.000  H
  H23      1.0000 0.33380  0.17220  0.45300  Biso   1.000  H
  H24      1.0000 0.30490  0.08080  0.48040  Biso   1.000  H
  C20      1.0000 0.96510  0.63430  0.34060  Biso   1.000  C
  C21      1.0000 0.89780  0.53130  0.32150  Biso   1.000  C
  H25      1.0000 0.90860  0.51310  0.24090  Biso   1.000  H
  H26      1.0000 0.90950  0.49660  0.38350  Biso   1.000  H
  C22      1.0000 0.74230  0.42200  0.32630  Biso   1.000  C
  C23      1.0000 0.75550  0.34810  0.32590  Biso   1.000  C
  H27      1.0000 0.81510  0.35750  0.32540  Biso   1.000  H
  C24      1.0000 0.15690  0.88440  0.06800  Biso   1.000  C
  H28      1.0000 0.16590  0.93590  0.11200  Biso   1.000  H
  C25      1.0000 0.13140  0.73590  0.06450  Biso   1.000  C
  H29      1.0000 0.12250  0.68280  0.10400  Biso   1.000  H
  C26      1.0000 0.14210  0.81140  0.13120  Biso   1.000  C
  O10      1.0000 0.05006  0.65781  0.34250  Biso   1.000  O
  O11      1.0000 0.93491  0.68421  0.35080  Biso   1.000  O
  O12      1.0000 0.80970  0.51022  0.32910  Biso   1.000  O
  Cu4      1.0000 0.14956  0.79668  0.31982  Biso   1.000  Cu
  H30      1.0000 0.13920  0.81040  0.21070  Biso   1.000  H
  H31      1.0000 0.17220  0.83840  0.45300  Biso   1.000  H
  H32      1.0000 0.08080  0.77590  0.48040  Biso   1.000  H
  N3       1.0000 0.18860  0.33070  0.13120  Biso   1.000  N
  C27      1.0000 0.36570  0.33080  0.34060  Biso   1.000  C
  C28      1.0000 0.46870  0.36650  0.32150  Biso   1.000  C
  H33      1.0000 0.48690  0.39550  0.24090  Biso   1.000  H
  H34      1.0000 0.50340  0.41290  0.38350  Biso   1.000  H
  C29      1.0000 0.57800  0.32030  0.32630  Biso   1.000  C
  C30      1.0000 0.65190  0.40740  0.32590  Biso   1.000  C
  H35      1.0000 0.64250  0.45760  0.32540  Biso   1.000  H
  C31      1.0000 0.11560  0.27250  0.06800  Biso   1.000  C
  H36      1.0000 0.06410  0.23000  0.11200  Biso   1.000  H
  C32      1.0000 0.26410  0.39550  0.06450  Biso   1.000  C
  H37      1.0000 0.31720  0.43970  0.10400  Biso   1.000  H
  O13      1.0000 0.34219  0.39225  0.34250  Biso   1.000  O
  O14      1.0000 0.31579  0.25070  0.35080  Biso   1.000  O
  O15      1.0000 0.48978  0.29948  0.32910  Biso   1.000  O
  Cu5      1.0000 0.20332  0.35288  0.31982  Biso   1.000  Cu
  H38      1.0000 0.18960  0.32880  0.21070  Biso   1.000  H
  H39      1.0000 0.16160  0.33380  0.45300  Biso   1.000  H
  H40      1.0000 0.22410  0.30490  0.48040  Biso   1.000  H
  N4       1.0000 0.66930  0.85790  0.13120  Biso   1.000  N
  C33      1.0000 0.66920  0.03490  0.34060  Biso   1.000  C
  C34      1.0000 0.63350  0.10220  0.32150  Biso   1.000  C
  H41      1.0000 0.60450  0.09140  0.24090  Biso   1.000  H
  H42      1.0000 0.58710  0.09050  0.38350  Biso   1.000  H
  C35      1.0000 0.67970  0.25770  0.32630  Biso   1.000  C
  C36      1.0000 0.59260  0.24450  0.32590  Biso   1.000  C
  H43      1.0000 0.54240  0.18490  0.32540  Biso   1.000  H
  C37      1.0000 0.72750  0.84310  0.06800  Biso   1.000  C
  H44      1.0000 0.77000  0.83410  0.11200  Biso   1.000  H
  C38      1.0000 0.60450  0.86860  0.06450  Biso   1.000  C
  H45      1.0000 0.56030  0.87750  0.10400  Biso   1.000  H
  O16      1.0000 0.60775  0.94994  0.34250  Biso   1.000  O
  O17      1.0000 0.74930  0.06509  0.35080  Biso   1.000  O
  O18      1.0000 0.70052  0.19030  0.32910  Biso   1.000  O
  Cu6      1.0000 0.64712  0.85044  0.31982  Biso   1.000  Cu
  H46      1.0000 0.67120  0.86080  0.21070  Biso   1.000  H
  H47      1.0000 0.66620  0.82780  0.45300  Biso   1.000  H
  H48      1.0000 0.69510  0.91920  0.48040  Biso   1.000  H
  C39      1.0000 0.96510  0.63430  0.65940  Biso   1.000  C
  C40      1.0000 0.89780  0.53130  0.67850  Biso   1.000  C
  H49      1.0000 0.90860  0.51310  0.75910  Biso   1.000  H
  H50      1.0000 0.90950  0.49660  0.61650  Biso   1.000  H
  C41      1.0000 0.74230  0.42200  0.67370  Biso   1.000  C
  C42      1.0000 0.75550  0.34810  0.67410  Biso   1.000  C
  H51      1.0000 0.81510  0.35750  0.67460  Biso   1.000  H
  C43      1.0000 0.15690  0.88440  0.93200  Biso   1.000  C
  H52      1.0000 0.16590  0.93590  0.88800  Biso   1.000  H
  C44      1.0000 0.13140  0.73590  0.93550  Biso   1.000  C
  H53      1.0000 0.12250  0.68280  0.89600  Biso   1.000  H
  C45      1.0000 0.14210  0.81140  0.86880  Biso   1.000  C
  O19      1.0000 0.05006  0.65781  0.65750  Biso   1.000  O
  O20      1.0000 0.93491  0.68421  0.64920  Biso   1.000  O
  O21      1.0000 0.80970  0.51022  0.67090  Biso   1.000  O
  Cu7      1.0000 0.14956  0.79668  0.68018  Biso   1.000  Cu
  H54      1.0000 0.13920  0.81040  0.78930  Biso   1.000  H
  H55      1.0000 0.17220  0.83840  0.54700  Biso   1.000  H
  H56      1.0000 0.08080  0.77590  0.51960  Biso   1.000  H
  N5       1.0000 0.18860  0.33070  0.86880  Biso   1.000  N
  C46      1.0000 0.36570  0.33080  0.65940  Biso   1.000  C
  C47      1.0000 0.46870  0.36650  0.67850  Biso   1.000  C
  H57      1.0000 0.48690  0.39550  0.75910  Biso   1.000  H
  H58      1.0000 0.50340  0.41290  0.61650  Biso   1.000  H
  C48      1.0000 0.57800  0.32030  0.67370  Biso   1.000  C
  C49      1.0000 0.65190  0.40740  0.67410  Biso   1.000  C
  H59      1.0000 0.64250  0.45760  0.67460  Biso   1.000  H
  C50      1.0000 0.11560  0.27250  0.93200  Biso   1.000  C
  H60      1.0000 0.06410  0.23000  0.88800  Biso   1.000  H
  C51      1.0000 0.26410  0.39550  0.93550  Biso   1.000  C
  H61      1.0000 0.31720  0.43970  0.89600  Biso   1.000  H
  O22      1.0000 0.34219  0.39225  0.65750  Biso   1.000  O
  O23      1.0000 0.31579  0.25070  0.64920  Biso   1.000  O
  O24      1.0000 0.48978  0.29948  0.67090  Biso   1.000  O
  Cu8      1.0000 0.20332  0.35288  0.68018  Biso   1.000  Cu
  H62      1.0000 0.18960  0.32880  0.78930  Biso   1.000  H
  H63      1.0000 0.16160  0.33380  0.54700  Biso   1.000  H
  H64      1.0000 0.22410  0.30490  0.51960  Biso   1.000  H
  N6       1.0000 0.66930  0.85790  0.86880  Biso   1.000  N
  C52      1.0000 0.66920  0.03490  0.65940  Biso   1.000  C
  C53      1.0000 0.63350  0.10220  0.67850  Biso   1.000  C
  H65      1.0000 0.60450  0.09140  0.75910  Biso   1.000  H
  H66      1.0000 0.58710  0.09050  0.61650  Biso   1.000  H
  C54      1.0000 0.67970  0.25770  0.67370  Biso   1.000  C
  C55      1.0000 0.59260  0.24450  0.67410  Biso   1.000  C
  H67      1.0000 0.54240  0.18490  0.67460  Biso   1.000  H
  C56      1.0000 0.72750  0.84310  0.93200  Biso   1.000  C
  H68      1.0000 0.77000  0.83410  0.88800  Biso   1.000  H
  C57      1.0000 0.60450  0.86860  0.93550  Biso   1.000  C
  H69      1.0000 0.56030  0.87750  0.89600  Biso   1.000  H
  O25      1.0000 0.60775  0.94994  0.65750  Biso   1.000  O
  O26      1.0000 0.74930  0.06509  0.64920  Biso   1.000  O
  O27      1.0000 0.70052  0.19030  0.67090  Biso   1.000  O
  Cu9      1.0000 0.64712  0.85044  0.68018  Biso   1.000  Cu
  H70      1.0000 0.67120  0.86080  0.78930  Biso   1.000  H
  H71      1.0000 0.66620  0.82780  0.54700  Biso   1.000  H
  H72      1.0000 0.69510  0.91920  0.51960  Biso   1.000  H
  C58      1.0000 0.03490  0.36570  0.65940  Biso   1.000  C
  C59      1.0000 0.10220  0.46870  0.67850  Biso   1.000  C
  H73      1.0000 0.09140  0.48690  0.75910  Biso   1.000  H
  H74      1.0000 0.09050  0.50340  0.61650  Biso   1.000  H
  C60      1.0000 0.25770  0.57800  0.67370  Biso   1.000  C
  C61      1.0000 0.24450  0.65190  0.67410  Biso   1.000  C
  H75      1.0000 0.18490  0.64250  0.67460  Biso   1.000  H
  C62      1.0000 0.84310  0.11560  0.93200  Biso   1.000  C
  H76      1.0000 0.83410  0.06410  0.88800  Biso   1.000  H
  C63      1.0000 0.86860  0.26410  0.93550  Biso   1.000  C
  H77      1.0000 0.87750  0.31720  0.89600  Biso   1.000  H
  C64      1.0000 0.85790  0.18860  0.86880  Biso   1.000  C
  O28      1.0000 0.94994  0.34219  0.65750  Biso   1.000  O
  O29      1.0000 0.06509  0.31579  0.64920  Biso   1.000  O
  O30      1.0000 0.19030  0.48978  0.67090  Biso   1.000  O
  Cu10     1.0000 0.85044  0.20332  0.68018  Biso   1.000  Cu
  H78      1.0000 0.86080  0.18960  0.78930  Biso   1.000  H
  H79      1.0000 0.82780  0.16160  0.54700  Biso   1.000  H
  H80      1.0000 0.91920  0.22410  0.51960  Biso   1.000  H
  N7       1.0000 0.81140  0.66930  0.86880  Biso   1.000  N
  C65      1.0000 0.63430  0.66920  0.65940  Biso   1.000  C
  C66      1.0000 0.53130  0.63350  0.67850  Biso   1.000  C
  H81      1.0000 0.51310  0.60450  0.75910  Biso   1.000  H
  H82      1.0000 0.49660  0.58710  0.61650  Biso   1.000  H
  C67      1.0000 0.42200  0.67970  0.67370  Biso   1.000  C
  C68      1.0000 0.34810  0.59260  0.67410  Biso   1.000  C
  H83      1.0000 0.35750  0.54240  0.67460  Biso   1.000  H
  C69      1.0000 0.88440  0.72750  0.93200  Biso   1.000  C
  H84      1.0000 0.93590  0.77000  0.88800  Biso   1.000  H
  C70      1.0000 0.73590  0.60450  0.93550  Biso   1.000  C
  H85      1.0000 0.68280  0.56030  0.89600  Biso   1.000  H
  O31      1.0000 0.65781  0.60775  0.65750  Biso   1.000  O
  O32      1.0000 0.68421  0.74930  0.64920  Biso   1.000  O
  O33      1.0000 0.51022  0.70052  0.67090  Biso   1.000  O
  Cu11     1.0000 0.79668  0.64712  0.68018  Biso   1.000  Cu
  H86      1.0000 0.81040  0.67120  0.78930  Biso   1.000  H
  H87      1.0000 0.83840  0.66620  0.54700  Biso   1.000  H
  H88      1.0000 0.77590  0.69510  0.51960  Biso   1.000  H
  N8       1.0000 0.33070  0.14210  0.86880  Biso   1.000  N
  C71      1.0000 0.33080  0.96510  0.65940  Biso   1.000  C
  C72      1.0000 0.36650  0.89780  0.67850  Biso   1.000  C
  H89      1.0000 0.39550  0.90860  0.75910  Biso   1.000  H
  H90      1.0000 0.41290  0.90950  0.61650  Biso   1.000  H
  C73      1.0000 0.32030  0.74230  0.67370  Biso   1.000  C
  C74      1.0000 0.40740  0.75550  0.67410  Biso   1.000  C
  H91      1.0000 0.45760  0.81510  0.67460  Biso   1.000  H
  C75      1.0000 0.27250  0.15690  0.93200  Biso   1.000  C
  H92      1.0000 0.23000  0.16590  0.88800  Biso   1.000  H
  C76      1.0000 0.39550  0.13140  0.93550  Biso   1.000  C
  H93      1.0000 0.43970  0.12250  0.89600  Biso   1.000  H
  O34      1.0000 0.39225  0.05006  0.65750  Biso   1.000  O
  O35      1.0000 0.25070  0.93491  0.64920  Biso   1.000  O
  O36      1.0000 0.29948  0.80970  0.67090  Biso   1.000  O
  Cu12     1.0000 0.35288  0.14956  0.68018  Biso   1.000  Cu
  H94      1.0000 0.32880  0.13920  0.78930  Biso   1.000  H
  H95      1.0000 0.33380  0.17220  0.54700  Biso   1.000  H
  H96      1.0000 0.30490  0.08080  0.51960  Biso   1.000  H
  O37      1.0000 0.86350  0.20580  0.50000  Biso   1.000  O
  O38      1.0000 0.79420  0.65770  0.50000  Biso   1.000  O
  O39      1.0000 0.34230  0.13650  0.50000  Biso   1.000  O
  O40      1.0000 0.13650  0.79420  0.50000  Biso   1.000  O
  O41      1.0000 0.20580  0.34230  0.50000  Biso   1.000  O
  O42      1.0000 0.65770  0.86350  0.50000  Biso   1.000  O
