data_image0
_cell_length_a       11.0483
_cell_length_b       20.7209
_cell_length_c       22.0818
_cell_angle_alpha    115.715
_cell_angle_beta     99.403
_cell_angle_gamma    90.774

_symmetry_space_group_name_H-M    "P 1"
_symmetry_int_tables_number       1

loop_
  _symmetry_equiv_pos_as_xyz
  'x, y, z'

loop_
  _atom_site_label
  _atom_site_occupancy
  _atom_site_fract_x
  _atom_site_fract_y
  _atom_site_fract_z
  _atom_site_thermal_displace_type
  _atom_site_B_iso_or_equiv
  _atom_site_type_symbol
  Co1      1.0000 0.83170  0.17147  0.45629  Biso   1.000  Co
  Co2      1.0000 0.75120  0.33651  0.57974  Biso   1.000  Co
  Co3      1.0000 0.26780  0.67131  0.92495  Biso   1.000  Co
  Co4      1.0000 0.18740  0.83654  0.04737  Biso   1.000  Co
  N1       1.0000 0.79320  0.08750  0.35280  Biso   1.000  N
  N2       1.0000 0.22470  0.92280  0.14970  Biso   1.000  N
  O1       1.0000 0.00800  0.84690  0.04920  Biso   1.000  O
  O2       1.0000 0.89740  0.75570  0.96000  Biso   1.000  O
  O3       1.0000 0.42690  0.74410  0.96380  Biso   1.000  O
  O4       1.0000 0.37010  0.83580  0.05020  Biso   1.000  O
  O5       1.0000 0.65040  0.17000  0.45630  Biso   1.000  O
  O6       1.0000 0.59440  0.26310  0.54170  Biso   1.000  O
  O7       1.0000 0.12200  0.25440  0.54280  Biso   1.000  O
  O8       1.0000 0.01140  0.16540  0.45220  Biso   1.000  O
  O9       1.0000 0.26760  0.66260  0.83100  Biso   1.000  O
  O10      1.0000 0.17200  0.75210  0.81980  Biso   1.000  O
  O11      1.0000 0.17340  0.75570  0.58590  Biso   1.000  O
  O12      1.0000 0.25240  0.66290  0.51120  Biso   1.000  O
  O13      1.0000 0.75460  0.34550  0.67420  Biso   1.000  O
  O14      1.0000 0.83960  0.25260  0.68230  Biso   1.000  O
  O15      1.0000 0.81030  0.23610  0.90900  Biso   1.000  O
  O16      1.0000 0.73100  0.32860  0.98440  Biso   1.000  O
  O17      1.0000 0.88280  0.25350  0.56350  Biso   1.000  O
  H1       1.0000 0.96630  0.27490  0.57240  Biso   1.000  H
  H2       1.0000 0.87850  0.23180  0.59430  Biso   1.000  H
  O18      1.0000 0.13710  0.75400  0.94070  Biso   1.000  O
  H3       1.0000 0.14150  0.77530  0.90970  Biso   1.000  H
  H4       1.0000 0.05360  0.73260  0.93190  Biso   1.000  H
  C1       1.0000 0.71600  0.03290  0.33410  Biso   1.000  C
  H5       1.0000 0.67520  0.03010  0.36660  Biso   1.000  H
  C2       1.0000 0.68900  0.97660  0.26690  Biso   1.000  C
  H6       1.0000 0.63080  0.93870  0.25630  Biso   1.000  H
  C3       1.0000 0.74650  0.97740  0.21870  Biso   1.000  C
  C4       1.0000 0.82830  0.03930  0.23750  Biso   1.000  C
  H7       1.0000 0.86750  0.04490  0.20560  Biso   1.000  H
  C5       1.0000 0.84800  0.09270  0.30710  Biso   1.000  C
  H8       1.0000 0.90320  0.13290  0.32030  Biso   1.000  H
  C6       1.0000 0.72190  0.91920  0.14730  Biso   1.000  C
  C7       1.0000 0.60530  0.88820  0.11540  Biso   1.000  C
  H9       1.0000 0.54040  0.90550  0.13820  Biso   1.000  H
  C8       1.0000 0.58020  0.83140  0.04990  Biso   1.000  C
  C9       1.0000 0.67990  0.80500  0.01640  Biso   1.000  C
  H10      1.0000 0.66620  0.76610  0.97320  Biso   1.000  H
  C10      1.0000 0.79770  0.83710  0.04820  Biso   1.000  C
  C11      1.0000 0.81870  0.89410  0.11300  Biso   1.000  C
  H11      1.0000 0.89830  0.91580  0.13370  Biso   1.000  H
  C12      1.0000 0.90900  0.81020  0.01560  Biso   1.000  C
  C13      1.0000 0.44860  0.79990  0.01750  Biso   1.000  C
  C14      1.0000 0.31170  0.92270  0.19690  Biso   1.000  C
  H12      1.0000 0.35660  0.88280  0.18600  Biso   1.000  H
  C15      1.0000 0.34200  0.97910  0.26320  Biso   1.000  C
  H13      1.0000 0.41070  0.97800  0.29330  Biso   1.000  H
  C16      1.0000 0.27350  0.03410  0.28290  Biso   1.000  C
  C17      1.0000 0.18400  0.03680  0.23370  Biso   1.000  C
  H14      1.0000 0.13620  0.07570  0.24410  Biso   1.000  H
  C18      1.0000 0.16400  0.98060  0.16750  Biso   1.000  C
  H15      1.0000 0.10470  0.98420  0.13420  Biso   1.000  H
  C19      1.0000 0.29880  0.09380  0.35400  Biso   1.000  C
  C20      1.0000 0.41740  0.12090  0.38870  Biso   1.000  C
  H16      1.0000 0.48340  0.10100  0.36800  Biso   1.000  H
  C21      1.0000 0.43960  0.17730  0.45390  Biso   1.000  C
  C22      1.0000 0.34100  0.20520  0.48580  Biso   1.000  C
  H17      1.0000 0.35560  0.24310  0.52960  Biso   1.000  H
  C23      1.0000 0.22180  0.17740  0.45290  Biso   1.000  C
  C24      1.0000 0.20200  0.12150  0.38800  Biso   1.000  C
  H18      1.0000 0.12180  0.10160  0.36620  Biso   1.000  H
  C25      1.0000 0.11050  0.20190  0.48680  Biso   1.000  C
  C26      1.0000 0.57100  0.20620  0.48720  Biso   1.000  C
  N3       1.0000 0.63000  0.42190  0.60300  Biso   1.000  N
  C27      1.0000 0.53300  0.42400  0.55700  Biso   1.000  C
  H19      1.0000 0.51910  0.38520  0.51350  Biso   1.000  H
  C28      1.0000 0.45600  0.47600  0.56910  Biso   1.000  C
  H20      1.0000 0.39480  0.47560  0.53420  Biso   1.000  H
  C29      1.0000 0.46900  0.53030  0.63340  Biso   1.000  C
  C30      1.0000 0.58000  0.53860  0.68060  Biso   1.000  C
  H21      1.0000 0.60080  0.57960  0.72210  Biso   1.000  H
  C31      1.0000 0.65500  0.48360  0.66240  Biso   1.000  C
  H22      1.0000 0.72810  0.48880  0.69260  Biso   1.000  H
  C32      1.0000 0.38300  0.58710  0.64890  Biso   1.000  C
  C33      1.0000 0.34600  0.61670  0.71200  Biso   1.000  C
  H23      1.0000 0.37340  0.59870  0.74330  Biso   1.000  H
  C34      1.0000 0.27080  0.67180  0.72950  Biso   1.000  C
  C35      1.0000 0.23220  0.70010  0.68500  Biso   1.000  C
  H24      1.0000 0.18390  0.73860  0.69730  Biso   1.000  H
  C36      1.0000 0.26640  0.67060  0.62030  Biso   1.000  C
  C37      1.0000 0.34480  0.61540  0.60500  Biso   1.000  C
  H25      1.0000 0.37120  0.59760  0.56330  Biso   1.000  H
  C38      1.0000 0.22640  0.69990  0.56800  Biso   1.000  C
  C39      1.0000 0.23130  0.69950  0.79900  Biso   1.000  C
  N4       1.0000 0.38630  0.58560  0.90170  Biso   1.000  N
  C40      1.0000 0.49100  0.59300  0.87510  Biso   1.000  C
  H26      1.0000 0.50820  0.63430  0.87010  Biso   1.000  H
  C41      1.0000 0.56500  0.53920  0.85720  Biso   1.000  C
  H27      1.0000 0.63250  0.54230  0.83770  Biso   1.000  H
  C42      1.0000 0.54010  0.47390  0.86850  Biso   1.000  C
  C43      1.0000 0.44000  0.47710  0.89550  Biso   1.000  C
  H28      1.0000 0.41860  0.43950  0.90510  Biso   1.000  H
  C44      1.0000 0.36700  0.53340  0.91000  Biso   1.000  C
  H29      1.0000 0.29760  0.53040  0.92770  Biso   1.000  H
  C45      1.0000 0.62170  0.41270  0.85040  Biso   1.000  C
  C46      1.0000 0.66680  0.38800  0.78920  Biso   1.000  C
  H30      1.0000 0.64900  0.41030  0.76060  Biso   1.000  H
  C47      1.0000 0.73820  0.33000  0.77110  Biso   1.000  C
  C48      1.0000 0.76850  0.29900  0.81480  Biso   1.000  C
  H31      1.0000 0.81560  0.26000  0.80220  Biso   1.000  H
  C49      1.0000 0.72980  0.32480  0.87770  Biso   1.000  C
  C50      1.0000 0.65570  0.38090  0.89380  Biso   1.000  C
  H32      1.0000 0.62780  0.39790  0.93500  Biso   1.000  H
  C51      1.0000 0.78020  0.30660  0.70410  Biso   1.000  C
  C52      1.0000 0.75920  0.29330  0.92620  Biso   1.000  C
  C53      1.0000 0.64200  0.47300  0.59300  Biso   1.000  C
  H33      1.0000 0.70910  0.47660  0.57330  Biso   1.000  H
  C54      1.0000 0.56800  0.52700  0.60600  Biso   1.000  C
  H34      1.0000 0.58710  0.56380  0.59470  Biso   1.000  H
  C55      1.0000 0.44400  0.46540  0.64700  Biso   1.000  C
  H35      1.0000 0.37680  0.46120  0.66610  Biso   1.000  H
  C56      1.0000 0.52800  0.41220  0.62960  Biso   1.000  C
  H36      1.0000 0.51600  0.37100  0.63570  Biso   1.000  H
  C57      1.0000 0.48100  0.58140  0.94780  Biso   1.000  C
  H37      1.0000 0.49500  0.61850  0.99210  Biso   1.000  H
  C58      1.0000 0.55700  0.52600  0.93400  Biso   1.000  C
  H38      1.0000 0.61760  0.52410  0.96780  Biso   1.000  H
  C59      1.0000 0.43600  0.46700  0.82240  Biso   1.000  C
  H39      1.0000 0.41670  0.42640  0.78050  Biso   1.000  H
  C60      1.0000 0.36100  0.52250  0.84000  Biso   1.000  C
  H40      1.0000 0.28890  0.51750  0.80960  Biso   1.000  H
  Co5      1.0000 0.16830  0.82853  0.54371  Biso   1.000  Co
  Co6      1.0000 0.24880  0.66349  0.42026  Biso   1.000  Co
  Co7      1.0000 0.73220  0.32869  0.07505  Biso   1.000  Co
  Co8      1.0000 0.81260  0.16346  0.95263  Biso   1.000  Co
  N5       1.0000 0.20680  0.91250  0.64720  Biso   1.000  N
  N6       1.0000 0.77530  0.07720  0.85030  Biso   1.000  N
  O19      1.0000 0.99200  0.15310  0.95080  Biso   1.000  O
  O20      1.0000 0.10260  0.24430  0.04000  Biso   1.000  O
  O21      1.0000 0.57310  0.25590  0.03620  Biso   1.000  O
  O22      1.0000 0.62990  0.16420  0.94980  Biso   1.000  O
  O23      1.0000 0.34960  0.83000  0.54370  Biso   1.000  O
  O24      1.0000 0.40560  0.73690  0.45830  Biso   1.000  O
  O25      1.0000 0.87800  0.74560  0.45720  Biso   1.000  O
  O26      1.0000 0.98860  0.83460  0.54780  Biso   1.000  O
  O27      1.0000 0.73240  0.33740  0.16900  Biso   1.000  O
  O28      1.0000 0.82800  0.24790  0.18020  Biso   1.000  O
  O29      1.0000 0.82660  0.24430  0.41410  Biso   1.000  O
  O30      1.0000 0.74760  0.33710  0.48880  Biso   1.000  O
  O31      1.0000 0.24540  0.65450  0.32580  Biso   1.000  O
  O32      1.0000 0.16040  0.74740  0.31770  Biso   1.000  O
  O33      1.0000 0.18970  0.76390  0.09100  Biso   1.000  O
  O34      1.0000 0.26900  0.67140  0.01560  Biso   1.000  O
  O35      1.0000 0.11720  0.74650  0.43650  Biso   1.000  O
  H41      1.0000 0.03370  0.72510  0.42760  Biso   1.000  H
  H42      1.0000 0.12150  0.76820  0.40570  Biso   1.000  H
  O36      1.0000 0.86290  0.24600  0.05930  Biso   1.000  O
  H43      1.0000 0.85850  0.22470  0.09030  Biso   1.000  H
  H44      1.0000 0.94640  0.26740  0.06810  Biso   1.000  H
  C61      1.0000 0.28400  0.96710  0.66590  Biso   1.000  C
  H45      1.0000 0.32480  0.96990  0.63340  Biso   1.000  H
  C62      1.0000 0.31100  0.02340  0.73310  Biso   1.000  C
  H46      1.0000 0.36920  0.06130  0.74370  Biso   1.000  H
  C63      1.0000 0.25350  0.02260  0.78130  Biso   1.000  C
  C64      1.0000 0.17170  0.96070  0.76250  Biso   1.000  C
  H47      1.0000 0.13250  0.95510  0.79440  Biso   1.000  H
  C65      1.0000 0.15200  0.90730  0.69290  Biso   1.000  C
  H48      1.0000 0.09680  0.86710  0.67970  Biso   1.000  H
  C66      1.0000 0.27810  0.08080  0.85270  Biso   1.000  C
  C67      1.0000 0.39470  0.11180  0.88460  Biso   1.000  C
  H49      1.0000 0.45960  0.09450  0.86180  Biso   1.000  H
  C68      1.0000 0.41980  0.16860  0.95010  Biso   1.000  C
  C69      1.0000 0.32010  0.19500  0.98360  Biso   1.000  C
  H50      1.0000 0.33380  0.23390  0.02680  Biso   1.000  H
  C70      1.0000 0.20230  0.16290  0.95180  Biso   1.000  C
  C71      1.0000 0.18130  0.10590  0.88700  Biso   1.000  C
  H51      1.0000 0.10170  0.08420  0.86630  Biso   1.000  H
  C72      1.0000 0.09100  0.18980  0.98440  Biso   1.000  C
  C73      1.0000 0.55140  0.20010  0.98250  Biso   1.000  C
  C74      1.0000 0.68830  0.07730  0.80310  Biso   1.000  C
  H52      1.0000 0.64340  0.11720  0.81400  Biso   1.000  H
  C75      1.0000 0.65800  0.02090  0.73680  Biso   1.000  C
  H53      1.0000 0.58930  0.02200  0.70670  Biso   1.000  H
  C76      1.0000 0.72650  0.96590  0.71710  Biso   1.000  C
  C77      1.0000 0.81600  0.96320  0.76630  Biso   1.000  C
  H54      1.0000 0.86380  0.92430  0.75590  Biso   1.000  H
  C78      1.0000 0.83600  0.01940  0.83250  Biso   1.000  C
  H55      1.0000 0.89530  0.01580  0.86580  Biso   1.000  H
  C79      1.0000 0.70120  0.90620  0.64600  Biso   1.000  C
  C80      1.0000 0.58260  0.87910  0.61130  Biso   1.000  C
  H56      1.0000 0.51660  0.89900  0.63200  Biso   1.000  H
  C81      1.0000 0.56040  0.82270  0.54610  Biso   1.000  C
  C82      1.0000 0.65900  0.79480  0.51420  Biso   1.000  C
  H57      1.0000 0.64440  0.75690  0.47040  Biso   1.000  H
  C83      1.0000 0.77820  0.82260  0.54710  Biso   1.000  C
  C84      1.0000 0.79800  0.87850  0.61200  Biso   1.000  C
  H58      1.0000 0.87820  0.89840  0.63380  Biso   1.000  H
  C85      1.0000 0.88950  0.79810  0.51320  Biso   1.000  C
  C86      1.0000 0.42900  0.79380  0.51280  Biso   1.000  C
  N7       1.0000 0.37000  0.57810  0.39700  Biso   1.000  N
  C87      1.0000 0.46700  0.57600  0.44300  Biso   1.000  C
  H59      1.0000 0.48090  0.61480  0.48650  Biso   1.000  H
  C88      1.0000 0.54400  0.52400  0.43090  Biso   1.000  C
  H60      1.0000 0.60520  0.52440  0.46580  Biso   1.000  H
  C89      1.0000 0.53100  0.46970  0.36660  Biso   1.000  C
  C90      1.0000 0.42000  0.46140  0.31940  Biso   1.000  C
  H61      1.0000 0.39920  0.42040  0.27790  Biso   1.000  H
  C91      1.0000 0.34500  0.51640  0.33760  Biso   1.000  C
  H62      1.0000 0.27190  0.51120  0.30740  Biso   1.000  H
  C92      1.0000 0.61700  0.41290  0.35110  Biso   1.000  C
  C93      1.0000 0.65400  0.38330  0.28800  Biso   1.000  C
  H63      1.0000 0.62660  0.40130  0.25670  Biso   1.000  H
  C94      1.0000 0.72920  0.32820  0.27050  Biso   1.000  C
  C95      1.0000 0.76780  0.29990  0.31500  Biso   1.000  C
  H64      1.0000 0.81610  0.26140  0.30270  Biso   1.000  H
  C96      1.0000 0.73360  0.32940  0.37970  Biso   1.000  C
  C97      1.0000 0.65520  0.38460  0.39500  Biso   1.000  C
  H65      1.0000 0.62880  0.40240  0.43670  Biso   1.000  H
  C98      1.0000 0.77360  0.30010  0.43200  Biso   1.000  C
  C99      1.0000 0.76870  0.30050  0.20100  Biso   1.000  C
  N8       1.0000 0.61370  0.41440  0.09830  Biso   1.000  N
  C100     1.0000 0.50900  0.40700  0.12490  Biso   1.000  C
  H66      1.0000 0.49180  0.36570  0.12990  Biso   1.000  H
  C101     1.0000 0.43500  0.46080  0.14280  Biso   1.000  C
  H67      1.0000 0.36750  0.45770  0.16230  Biso   1.000  H
  C102     1.0000 0.45990  0.52610  0.13150  Biso   1.000  C
  C103     1.0000 0.56000  0.52290  0.10450  Biso   1.000  C
  H68      1.0000 0.58140  0.56050  0.09490  Biso   1.000  H
  C104     1.0000 0.63300  0.46660  0.09000  Biso   1.000  C
  H69      1.0000 0.70240  0.46960  0.07230  Biso   1.000  H
  C105     1.0000 0.37830  0.58730  0.14960  Biso   1.000  C
  C106     1.0000 0.33320  0.61200  0.21080  Biso   1.000  C
  H70      1.0000 0.35100  0.58970  0.23940  Biso   1.000  H
  C107     1.0000 0.26180  0.67000  0.22890  Biso   1.000  C
  C108     1.0000 0.23150  0.70100  0.18520  Biso   1.000  C
  H71      1.0000 0.18440  0.74000  0.19780  Biso   1.000  H
  C109     1.0000 0.27020  0.67520  0.12230  Biso   1.000  C
  C110     1.0000 0.34430  0.61910  0.10620  Biso   1.000  C
  H72      1.0000 0.37220  0.60210  0.06500  Biso   1.000  H
  C111     1.0000 0.21980  0.69340  0.29590  Biso   1.000  C
  C112     1.0000 0.24080  0.70670  0.07380  Biso   1.000  C
  C113     1.0000 0.35800  0.52700  0.40700  Biso   1.000  C
  H73      1.0000 0.29090  0.52340  0.42670  Biso   1.000  H
  C114     1.0000 0.43200  0.47300  0.39400  Biso   1.000  C
  H74      1.0000 0.41290  0.43620  0.40530  Biso   1.000  H
  C115     1.0000 0.55600  0.53460  0.35300  Biso   1.000  C
  H75      1.0000 0.62320  0.53880  0.33390  Biso   1.000  H
  C116     1.0000 0.47200  0.58780  0.37040  Biso   1.000  C
  H76      1.0000 0.48400  0.62900  0.36430  Biso   1.000  H
  C117     1.0000 0.51900  0.41860  0.05220  Biso   1.000  C
  H77      1.0000 0.50500  0.38150  0.00790  Biso   1.000  H
  C118     1.0000 0.44300  0.47400  0.06600  Biso   1.000  C
  H78      1.0000 0.38240  0.47590  0.03220  Biso   1.000  H
  C119     1.0000 0.56400  0.53300  0.17760  Biso   1.000  C
  H79      1.0000 0.58330  0.57360  0.21950  Biso   1.000  H
  C120     1.0000 0.63900  0.47750  0.16000  Biso   1.000  C
  H80      1.0000 0.71110  0.48250  0.19040  Biso   1.000  H
