data_image0
_cell_length_a       16.846
_cell_length_b       14.179
_cell_length_c       18.754
_cell_angle_alpha    90
_cell_angle_beta     97.701
_cell_angle_gamma    90

_symmetry_space_group_name_H-M    "P 1"
_symmetry_int_tables_number       1

loop_
  _symmetry_equiv_pos_as_xyz
  'x, y, z'

loop_
  _atom_site_label
  _atom_site_occupancy
  _atom_site_fract_x
  _atom_site_fract_y
  _atom_site_fract_z
  _atom_site_thermal_displace_type
  _atom_site_B_iso_or_equiv
  _atom_site_type_symbol
  C1       1.0000 0.30800  0.62540  0.97021  Biso   1.000  C
  H1       1.0000 0.25520  0.60630  0.97000  Biso   1.000  H
  C2       1.0000 0.36405  0.60300  0.02657  Biso   1.000  C
  C3       1.0000 0.44117  0.63083  0.02683  Biso   1.000  C
  H2       1.0000 0.47960  0.61540  0.06540  Biso   1.000  H
  Co1      1.0000 0.04017  0.71858  0.16799  Biso   1.000  Co
  C4       1.0000 0.16253  0.56310  0.19682  Biso   1.000  C
  O1       1.0000 0.12882  0.62831  0.15898  Biso   1.000  O
  O2       1.0000 0.13927  0.53032  0.25142  Biso   1.000  O
  H3       1.0000 0.95650  0.59040  0.22880  Biso   1.000  H
  C5       1.0000 0.46225  0.68119  0.97074  Biso   1.000  C
  H4       1.0000 0.51510  0.70030  0.97090  Biso   1.000  H
  N1       1.0000 0.40621  0.70366  0.91438  Biso   1.000  N
  C6       1.0000 0.32909  0.67578  0.91412  Biso   1.000  C
  H5       1.0000 0.29070  0.69120  0.87550  Biso   1.000  H
  C7       1.0000 0.39798  0.33720  0.20394  Biso   1.000  C
  O3       1.0000 0.45149  0.31074  0.16773  Biso   1.000  O
  O4       1.0000 0.38310  0.29900  0.26076  Biso   1.000  O
  C8       1.0000 0.35057  0.42050  0.17446  Biso   1.000  C
  C9       1.0000 0.28115  0.45090  0.20202  Biso   1.000  C
  H6       1.0000 0.26380  0.41940  0.24060  Biso   1.000  H
  C10      1.0000 0.23881  0.52800  0.17147  Biso   1.000  C
  C11      1.0000 0.26709  0.57610  0.11581  Biso   1.000  C
  H7       1.0000 0.23910  0.62870  0.09660  Biso   1.000  H
  C12      1.0000 0.33606  0.54870  0.08739  Biso   1.000  C
  C13      1.0000 0.37574  0.46970  0.11698  Biso   1.000  C
  H8       1.0000 0.42080  0.44850  0.09800  Biso   1.000  H
  N2       1.0000 0.43648  0.70101  0.92183  Biso   1.000  N
  C14      1.0000 0.37584  0.70142  0.03320  Biso   1.000  C
  H9       1.0000 0.35990  0.73390  0.07200  Biso   1.000  H
  C15      1.0000 0.41235  0.75036  0.98068  Biso   1.000  C
  H10      1.0000 0.42050  0.81510  0.98480  Biso   1.000  H
  C16      1.0000 0.42410  0.60273  0.91551  Biso   1.000  C
  H11      1.0000 0.44000  0.57020  0.87670  Biso   1.000  H
  C17      1.0000 0.38757  0.55379  0.96803  Biso   1.000  C
  H12      1.0000 0.37940  0.48900  0.96390  Biso   1.000  H
  Ni1      1.0000 0.95983  0.71858  0.33201  Biso   1.000  Ni
  C18      1.0000 0.80800  0.12540  0.97021  Biso   1.000  C
  H13      1.0000 0.75520  0.10630  0.97000  Biso   1.000  H
  C19      1.0000 0.86405  0.10300  0.02657  Biso   1.000  C
  C20      1.0000 0.94117  0.13083  0.02683  Biso   1.000  C
  H14      1.0000 0.97960  0.11540  0.06540  Biso   1.000  H
  Co2      1.0000 0.54017  0.21858  0.16799  Biso   1.000  Co
  C21      1.0000 0.66253  0.06310  0.19682  Biso   1.000  C
  O5       1.0000 0.62882  0.12831  0.15898  Biso   1.000  O
  O6       1.0000 0.63927  0.03032  0.25142  Biso   1.000  O
  H15      1.0000 0.45650  0.09040  0.22880  Biso   1.000  H
  C22      1.0000 0.96225  0.18119  0.97074  Biso   1.000  C
  H16      1.0000 0.01510  0.20030  0.97090  Biso   1.000  H
  N3       1.0000 0.90621  0.20366  0.91438  Biso   1.000  N
  C23      1.0000 0.82909  0.17578  0.91412  Biso   1.000  C
  H17      1.0000 0.79070  0.19120  0.87550  Biso   1.000  H
  C24      1.0000 0.89798  0.83720  0.20394  Biso   1.000  C
  O7       1.0000 0.95149  0.81074  0.16773  Biso   1.000  O
  O8       1.0000 0.88310  0.79900  0.26076  Biso   1.000  O
  C25      1.0000 0.85057  0.92050  0.17446  Biso   1.000  C
  C26      1.0000 0.78115  0.95090  0.20202  Biso   1.000  C
  H18      1.0000 0.76380  0.91940  0.24060  Biso   1.000  H
  C27      1.0000 0.73881  0.02800  0.17147  Biso   1.000  C
  C28      1.0000 0.76709  0.07610  0.11581  Biso   1.000  C
  H19      1.0000 0.73910  0.12870  0.09660  Biso   1.000  H
  C29      1.0000 0.83606  0.04870  0.08739  Biso   1.000  C
  C30      1.0000 0.87574  0.96970  0.11698  Biso   1.000  C
  H20      1.0000 0.92080  0.94850  0.09800  Biso   1.000  H
  N4       1.0000 0.93648  0.20101  0.92183  Biso   1.000  N
  C31      1.0000 0.87584  0.20142  0.03320  Biso   1.000  C
  H21      1.0000 0.85990  0.23390  0.07200  Biso   1.000  H
  C32      1.0000 0.91235  0.25036  0.98068  Biso   1.000  C
  H22      1.0000 0.92050  0.31510  0.98480  Biso   1.000  H
  C33      1.0000 0.92410  0.10273  0.91551  Biso   1.000  C
  H23      1.0000 0.94000  0.07020  0.87670  Biso   1.000  H
  C34      1.0000 0.88757  0.05379  0.96803  Biso   1.000  C
  H24      1.0000 0.87940  0.98900  0.96390  Biso   1.000  H
  Ni2      1.0000 0.45983  0.21858  0.33201  Biso   1.000  Ni
  C35      1.0000 0.69200  0.62540  0.52979  Biso   1.000  C
  H25      1.0000 0.74480  0.60630  0.53000  Biso   1.000  H
  C36      1.0000 0.63595  0.60300  0.47343  Biso   1.000  C
  C37      1.0000 0.55883  0.63083  0.47317  Biso   1.000  C
  H26      1.0000 0.52040  0.61540  0.43460  Biso   1.000  H
  C38      1.0000 0.83747  0.56310  0.30318  Biso   1.000  C
  O9       1.0000 0.87118  0.62831  0.34102  Biso   1.000  O
  O10      1.0000 0.86073  0.53032  0.24858  Biso   1.000  O
  H27      1.0000 0.04350  0.59040  0.27120  Biso   1.000  H
  C39      1.0000 0.53775  0.68119  0.52926  Biso   1.000  C
  H28      1.0000 0.48490  0.70030  0.52910  Biso   1.000  H
  N5       1.0000 0.59379  0.70366  0.58562  Biso   1.000  N
  C40      1.0000 0.67091  0.67578  0.58588  Biso   1.000  C
  H29      1.0000 0.70930  0.69120  0.62450  Biso   1.000  H
  C41      1.0000 0.60202  0.33720  0.29606  Biso   1.000  C
  O11      1.0000 0.54851  0.31074  0.33227  Biso   1.000  O
  O12      1.0000 0.61690  0.29900  0.23924  Biso   1.000  O
  C42      1.0000 0.64943  0.42050  0.32554  Biso   1.000  C
  C43      1.0000 0.71885  0.45090  0.29798  Biso   1.000  C
  H30      1.0000 0.73620  0.41940  0.25940  Biso   1.000  H
  C44      1.0000 0.76119  0.52800  0.32853  Biso   1.000  C
  C45      1.0000 0.73291  0.57610  0.38419  Biso   1.000  C
  H31      1.0000 0.76090  0.62870  0.40340  Biso   1.000  H
  C46      1.0000 0.66394  0.54870  0.41261  Biso   1.000  C
  C47      1.0000 0.62426  0.46970  0.38302  Biso   1.000  C
  H32      1.0000 0.57920  0.44850  0.40200  Biso   1.000  H
  N6       1.0000 0.56352  0.70101  0.57817  Biso   1.000  N
  C48      1.0000 0.62416  0.70142  0.46680  Biso   1.000  C
  H33      1.0000 0.64010  0.73390  0.42800  Biso   1.000  H
  C49      1.0000 0.58765  0.75036  0.51932  Biso   1.000  C
  H34      1.0000 0.57950  0.81510  0.51520  Biso   1.000  H
  C50      1.0000 0.57590  0.60273  0.58449  Biso   1.000  C
  H35      1.0000 0.56000  0.57020  0.62330  Biso   1.000  H
  C51      1.0000 0.61243  0.55379  0.53197  Biso   1.000  C
  H36      1.0000 0.62060  0.48900  0.53610  Biso   1.000  H
  C52      1.0000 0.19200  0.12540  0.52979  Biso   1.000  C
  H37      1.0000 0.24480  0.10630  0.53000  Biso   1.000  H
  C53      1.0000 0.13595  0.10300  0.47343  Biso   1.000  C
  C54      1.0000 0.05883  0.13083  0.47317  Biso   1.000  C
  H38      1.0000 0.02040  0.11540  0.43460  Biso   1.000  H
  C55      1.0000 0.33747  0.06310  0.30318  Biso   1.000  C
  O13      1.0000 0.37118  0.12831  0.34102  Biso   1.000  O
  O14      1.0000 0.36073  0.03032  0.24858  Biso   1.000  O
  H39      1.0000 0.54350  0.09040  0.27120  Biso   1.000  H
  C56      1.0000 0.03775  0.18119  0.52926  Biso   1.000  C
  H40      1.0000 0.98490  0.20030  0.52910  Biso   1.000  H
  N7       1.0000 0.09379  0.20366  0.58562  Biso   1.000  N
  C57      1.0000 0.17091  0.17578  0.58588  Biso   1.000  C
  H41      1.0000 0.20930  0.19120  0.62450  Biso   1.000  H
  C58      1.0000 0.10202  0.83720  0.29606  Biso   1.000  C
  O15      1.0000 0.04851  0.81074  0.33227  Biso   1.000  O
  O16      1.0000 0.11690  0.79900  0.23924  Biso   1.000  O
  C59      1.0000 0.14943  0.92050  0.32554  Biso   1.000  C
  C60      1.0000 0.21885  0.95090  0.29798  Biso   1.000  C
  H42      1.0000 0.23620  0.91940  0.25940  Biso   1.000  H
  C61      1.0000 0.26119  0.02800  0.32853  Biso   1.000  C
  C62      1.0000 0.23291  0.07610  0.38419  Biso   1.000  C
  H43      1.0000 0.26090  0.12870  0.40340  Biso   1.000  H
  C63      1.0000 0.16394  0.04870  0.41261  Biso   1.000  C
  C64      1.0000 0.12426  0.96970  0.38302  Biso   1.000  C
  H44      1.0000 0.07920  0.94850  0.40200  Biso   1.000  H
  N8       1.0000 0.06352  0.20101  0.57817  Biso   1.000  N
  C65      1.0000 0.12416  0.20142  0.46680  Biso   1.000  C
  H45      1.0000 0.14010  0.23390  0.42800  Biso   1.000  H
  C66      1.0000 0.08765  0.25036  0.51932  Biso   1.000  C
  H46      1.0000 0.07950  0.31510  0.51520  Biso   1.000  H
  C67      1.0000 0.07590  0.10273  0.58449  Biso   1.000  C
  H47      1.0000 0.06000  0.07020  0.62330  Biso   1.000  H
  C68      1.0000 0.11243  0.05379  0.53197  Biso   1.000  C
  H48      1.0000 0.12060  0.98900  0.53610  Biso   1.000  H
  C69      1.0000 0.69200  0.37460  0.02979  Biso   1.000  C
  H49      1.0000 0.74480  0.39370  0.03000  Biso   1.000  H
  C70      1.0000 0.63595  0.39700  0.97343  Biso   1.000  C
  C71      1.0000 0.55883  0.36917  0.97317  Biso   1.000  C
  H50      1.0000 0.52040  0.38460  0.93460  Biso   1.000  H
  Co3      1.0000 0.95983  0.28142  0.83201  Biso   1.000  Co
  C72      1.0000 0.83747  0.43690  0.80318  Biso   1.000  C
  O17      1.0000 0.87118  0.37169  0.84102  Biso   1.000  O
  O18      1.0000 0.86073  0.46968  0.74858  Biso   1.000  O
  H51      1.0000 0.04350  0.40960  0.77120  Biso   1.000  H
  C73      1.0000 0.53775  0.31881  0.02926  Biso   1.000  C
  H52      1.0000 0.48490  0.29970  0.02910  Biso   1.000  H
  N9       1.0000 0.59379  0.29634  0.08562  Biso   1.000  N
  C74      1.0000 0.67091  0.32422  0.08588  Biso   1.000  C
  H53      1.0000 0.70930  0.30880  0.12450  Biso   1.000  H
  C75      1.0000 0.60202  0.66280  0.79606  Biso   1.000  C
  O19      1.0000 0.54851  0.68926  0.83227  Biso   1.000  O
  O20      1.0000 0.61690  0.70100  0.73924  Biso   1.000  O
  C76      1.0000 0.64943  0.57950  0.82554  Biso   1.000  C
  C77      1.0000 0.71885  0.54910  0.79798  Biso   1.000  C
  H54      1.0000 0.73620  0.58060  0.75940  Biso   1.000  H
  C78      1.0000 0.76119  0.47200  0.82853  Biso   1.000  C
  C79      1.0000 0.73291  0.42390  0.88419  Biso   1.000  C
  H55      1.0000 0.76090  0.37130  0.90340  Biso   1.000  H
  C80      1.0000 0.66394  0.45130  0.91261  Biso   1.000  C
  C81      1.0000 0.62426  0.53030  0.88302  Biso   1.000  C
  H56      1.0000 0.57920  0.55150  0.90200  Biso   1.000  H
  N10      1.0000 0.56352  0.29899  0.07817  Biso   1.000  N
  C82      1.0000 0.62416  0.29858  0.96680  Biso   1.000  C
  H57      1.0000 0.64010  0.26610  0.92800  Biso   1.000  H
  C83      1.0000 0.58765  0.24964  0.01932  Biso   1.000  C
  H58      1.0000 0.57950  0.18490  0.01520  Biso   1.000  H
  C84      1.0000 0.57590  0.39727  0.08449  Biso   1.000  C
  H59      1.0000 0.56000  0.42980  0.12330  Biso   1.000  H
  C85      1.0000 0.61243  0.44621  0.03197  Biso   1.000  C
  H60      1.0000 0.62060  0.51100  0.03610  Biso   1.000  H
  Ni3      1.0000 0.04017  0.28142  0.66799  Biso   1.000  Ni
  C86      1.0000 0.19200  0.87460  0.02979  Biso   1.000  C
  H61      1.0000 0.24480  0.89370  0.03000  Biso   1.000  H
  C87      1.0000 0.13595  0.89700  0.97343  Biso   1.000  C
  C88      1.0000 0.05883  0.86917  0.97317  Biso   1.000  C
  H62      1.0000 0.02040  0.88460  0.93460  Biso   1.000  H
  Co4      1.0000 0.45983  0.78142  0.83201  Biso   1.000  Co
  C89      1.0000 0.33747  0.93690  0.80318  Biso   1.000  C
  O21      1.0000 0.37118  0.87169  0.84102  Biso   1.000  O
  O22      1.0000 0.36073  0.96968  0.74858  Biso   1.000  O
  H63      1.0000 0.54350  0.90960  0.77120  Biso   1.000  H
  C90      1.0000 0.03775  0.81881  0.02926  Biso   1.000  C
  H64      1.0000 0.98490  0.79970  0.02910  Biso   1.000  H
  N11      1.0000 0.09379  0.79634  0.08562  Biso   1.000  N
  C91      1.0000 0.17091  0.82422  0.08588  Biso   1.000  C
  H65      1.0000 0.20930  0.80880  0.12450  Biso   1.000  H
  C92      1.0000 0.10202  0.16280  0.79606  Biso   1.000  C
  O23      1.0000 0.04851  0.18926  0.83227  Biso   1.000  O
  O24      1.0000 0.11690  0.20100  0.73924  Biso   1.000  O
  C93      1.0000 0.14943  0.07950  0.82554  Biso   1.000  C
  C94      1.0000 0.21885  0.04910  0.79798  Biso   1.000  C
  H66      1.0000 0.23620  0.08060  0.75940  Biso   1.000  H
  C95      1.0000 0.26119  0.97200  0.82853  Biso   1.000  C
  C96      1.0000 0.23291  0.92390  0.88419  Biso   1.000  C
  H67      1.0000 0.26090  0.87130  0.90340  Biso   1.000  H
  C97      1.0000 0.16394  0.95130  0.91261  Biso   1.000  C
  C98      1.0000 0.12426  0.03030  0.88302  Biso   1.000  C
  H68      1.0000 0.07920  0.05150  0.90200  Biso   1.000  H
  N12      1.0000 0.06352  0.79899  0.07817  Biso   1.000  N
  C99      1.0000 0.12416  0.79858  0.96680  Biso   1.000  C
  H69      1.0000 0.14010  0.76610  0.92800  Biso   1.000  H
  C100     1.0000 0.08765  0.74964  0.01932  Biso   1.000  C
  H70      1.0000 0.07950  0.68490  0.01520  Biso   1.000  H
  C101     1.0000 0.07590  0.89727  0.08449  Biso   1.000  C
  H71      1.0000 0.06000  0.92980  0.12330  Biso   1.000  H
  C102     1.0000 0.11243  0.94621  0.03197  Biso   1.000  C
  H72      1.0000 0.12060  0.01100  0.03610  Biso   1.000  H
  Ni4      1.0000 0.54017  0.78142  0.66799  Biso   1.000  Ni
  C103     1.0000 0.30800  0.37460  0.47021  Biso   1.000  C
  H73      1.0000 0.25520  0.39370  0.47000  Biso   1.000  H
  C104     1.0000 0.36405  0.39700  0.52657  Biso   1.000  C
  C105     1.0000 0.44117  0.36917  0.52683  Biso   1.000  C
  H74      1.0000 0.47960  0.38460  0.56540  Biso   1.000  H
  C106     1.0000 0.16253  0.43690  0.69682  Biso   1.000  C
  O25      1.0000 0.12882  0.37169  0.65898  Biso   1.000  O
  O26      1.0000 0.13927  0.46968  0.75142  Biso   1.000  O
  H75      1.0000 0.95650  0.40960  0.72880  Biso   1.000  H
  C107     1.0000 0.46225  0.31881  0.47074  Biso   1.000  C
  H76      1.0000 0.51510  0.29970  0.47090  Biso   1.000  H
  N13      1.0000 0.40621  0.29634  0.41438  Biso   1.000  N
  C108     1.0000 0.32909  0.32422  0.41412  Biso   1.000  C
  H77      1.0000 0.29070  0.30880  0.37550  Biso   1.000  H
  C109     1.0000 0.39798  0.66280  0.70394  Biso   1.000  C
  O27      1.0000 0.45149  0.68926  0.66773  Biso   1.000  O
  O28      1.0000 0.38310  0.70100  0.76076  Biso   1.000  O
  C110     1.0000 0.35057  0.57950  0.67446  Biso   1.000  C
  C111     1.0000 0.28115  0.54910  0.70202  Biso   1.000  C
  H78      1.0000 0.26380  0.58060  0.74060  Biso   1.000  H
  C112     1.0000 0.23881  0.47200  0.67147  Biso   1.000  C
  C113     1.0000 0.26709  0.42390  0.61581  Biso   1.000  C
  H79      1.0000 0.23910  0.37130  0.59660  Biso   1.000  H
  C114     1.0000 0.33606  0.45130  0.58739  Biso   1.000  C
  C115     1.0000 0.37574  0.53030  0.61698  Biso   1.000  C
  H80      1.0000 0.42080  0.55150  0.59800  Biso   1.000  H
  N14      1.0000 0.43648  0.29899  0.42183  Biso   1.000  N
  C116     1.0000 0.37584  0.29858  0.53320  Biso   1.000  C
  H81      1.0000 0.35990  0.26610  0.57200  Biso   1.000  H
  C117     1.0000 0.41235  0.24964  0.48068  Biso   1.000  C
  H82      1.0000 0.42050  0.18490  0.48480  Biso   1.000  H
  C118     1.0000 0.42410  0.39727  0.41551  Biso   1.000  C
  H83      1.0000 0.44000  0.42980  0.37670  Biso   1.000  H
  C119     1.0000 0.38757  0.44621  0.46803  Biso   1.000  C
  H84      1.0000 0.37940  0.51100  0.46390  Biso   1.000  H
  C120     1.0000 0.80800  0.87460  0.47021  Biso   1.000  C
  H85      1.0000 0.75520  0.89370  0.47000  Biso   1.000  H
  C121     1.0000 0.86405  0.89700  0.52657  Biso   1.000  C
  C122     1.0000 0.94117  0.86917  0.52683  Biso   1.000  C
  H86      1.0000 0.97960  0.88460  0.56540  Biso   1.000  H
  C123     1.0000 0.66253  0.93690  0.69682  Biso   1.000  C
  O29      1.0000 0.62882  0.87169  0.65898  Biso   1.000  O
  O30      1.0000 0.63927  0.96968  0.75142  Biso   1.000  O
  H87      1.0000 0.45650  0.90960  0.72880  Biso   1.000  H
  C124     1.0000 0.96225  0.81881  0.47074  Biso   1.000  C
  H88      1.0000 0.01510  0.79970  0.47090  Biso   1.000  H
  N15      1.0000 0.90621  0.79634  0.41438  Biso   1.000  N
  C125     1.0000 0.82909  0.82422  0.41412  Biso   1.000  C
  H89      1.0000 0.79070  0.80880  0.37550  Biso   1.000  H
  C126     1.0000 0.89798  0.16280  0.70394  Biso   1.000  C
  O31      1.0000 0.95149  0.18926  0.66773  Biso   1.000  O
  O32      1.0000 0.88310  0.20100  0.76076  Biso   1.000  O
  C127     1.0000 0.85057  0.07950  0.67446  Biso   1.000  C
  C128     1.0000 0.78115  0.04910  0.70202  Biso   1.000  C
  H90      1.0000 0.76380  0.08060  0.74060  Biso   1.000  H
  C129     1.0000 0.73881  0.97200  0.67147  Biso   1.000  C
  C130     1.0000 0.76709  0.92390  0.61581  Biso   1.000  C
  H91      1.0000 0.73910  0.87130  0.59660  Biso   1.000  H
  C131     1.0000 0.83606  0.95130  0.58739  Biso   1.000  C
  C132     1.0000 0.87574  0.03030  0.61698  Biso   1.000  C
  H92      1.0000 0.92080  0.05150  0.59800  Biso   1.000  H
  N16      1.0000 0.93648  0.79899  0.42183  Biso   1.000  N
  C133     1.0000 0.87584  0.79858  0.53320  Biso   1.000  C
  H93      1.0000 0.85990  0.76610  0.57200  Biso   1.000  H
  C134     1.0000 0.91235  0.74964  0.48068  Biso   1.000  C
  H94      1.0000 0.92050  0.68490  0.48480  Biso   1.000  H
  C135     1.0000 0.92410  0.89727  0.41551  Biso   1.000  C
  H95      1.0000 0.94000  0.92980  0.37670  Biso   1.000  H
  C136     1.0000 0.88757  0.94621  0.46803  Biso   1.000  C
  H96      1.0000 0.87940  0.01100  0.46390  Biso   1.000  H
  O33      1.0000 0.00000  0.63045  0.25000  Biso   1.000  O
  O34      1.0000 0.50000  0.13045  0.25000  Biso   1.000  O
  O35      1.0000 0.00000  0.36955  0.75000  Biso   1.000  O
  O36      1.0000 0.50000  0.86955  0.75000  Biso   1.000  O
