data_image0
_cell_length_a       17.298
_cell_length_b       13.402
_cell_length_c       18.056
_cell_angle_alpha    90
_cell_angle_beta     96.196
_cell_angle_gamma    90

_symmetry_space_group_name_H-M    "P 1"
_symmetry_int_tables_number       1

loop_
  _symmetry_equiv_pos_as_xyz
  'x, y, z'

loop_
  _atom_site_label
  _atom_site_occupancy
  _atom_site_fract_x
  _atom_site_fract_y
  _atom_site_fract_z
  _atom_site_thermal_displace_type
  _atom_site_B_iso_or_equiv
  _atom_site_type_symbol
  Ni1      1.0000 0.04044  0.30594  0.16562  Biso   1.000  Ni
  C1       1.0000 0.83190  0.96700  0.08170  Biso   1.000  C
  C2       1.0000 0.76100  0.94540  0.10710  Biso   1.000  C
  H1       1.0000 0.73020  0.89460  0.08470  Biso   1.000  H
  C3       1.0000 0.73490  0.99940  0.16630  Biso   1.000  C
  C4       1.0000 0.77890  0.07820  0.19780  Biso   1.000  C
  H2       1.0000 0.76210  0.11410  0.23710  Biso   1.000  H
  C5       1.0000 0.84930  0.10320  0.16960  Biso   1.000  C
  C6       1.0000 0.87400  0.04860  0.11300  Biso   1.000  C
  H3       1.0000 0.92030  0.06610  0.09460  Biso   1.000  H
  C7       1.0000 0.85980  0.90540  0.01990  Biso   1.000  C
  C8       1.0000 0.80947  0.86650  0.96180  Biso   1.000  C
  H4       1.0000 0.75670  0.88170  0.95820  Biso   1.000  H
  C9       1.0000 0.83800  0.80490  0.90910  Biso   1.000  C
  H5       1.0000 0.80440  0.77890  0.87030  Biso   1.000  H
  N1       1.0000 0.91680  0.78230  0.91450  Biso   1.000  N
  C10      1.0000 0.96711  0.82120  0.97260  Biso   1.000  C
  H6       1.0000 0.01980  0.80600  0.97620  Biso   1.000  H
  C11      1.0000 0.93860  0.88270  0.02530  Biso   1.000  C
  H7       1.0000 0.97220  0.90880  0.06420  Biso   1.000  H
  C12      1.0000 0.65850  0.96830  0.19180  Biso   1.000  C
  C13      1.0000 0.90040  0.18720  0.20280  Biso   1.000  C
  O1       1.0000 0.62180  0.90560  0.14971  Biso   1.000  O
  O2       1.0000 0.63674  0.00240  0.24990  Biso   1.000  O
  O3       1.0000 0.95715  0.20490  0.16760  Biso   1.000  O
  O4       1.0000 0.88291  0.23140  0.25860  Biso   1.000  O
  H8       1.0000 0.02880  0.44670  0.24180  Biso   1.000  H
  C14      1.0000 0.86780  0.89980  0.03380  Biso   1.000  C
  C15      1.0000 0.86970  0.79650  0.04090  Biso   1.000  C
  H9       1.0000 0.85480  0.76660  0.08360  Biso   1.000  H
  C16      1.0000 0.89390  0.73800  0.98410  Biso   1.000  C
  H10      1.0000 0.89510  0.66890  0.98890  Biso   1.000  H
  N2       1.0000 0.91620  0.78280  0.92030  Biso   1.000  N
  C17      1.0000 0.91430  0.88610  0.91320  Biso   1.000  C
  H11      1.0000 0.92920  0.91600  0.87050  Biso   1.000  H
  C18      1.0000 0.89010  0.94460  0.97000  Biso   1.000  C
  H12      1.0000 0.88880  0.01370  0.96520  Biso   1.000  H
  H13      1.0000 0.97850  0.41040  0.28910  Biso   1.000  H
  Ni2      1.0000 0.54044  0.80594  0.16562  Biso   1.000  Ni
  C19      1.0000 0.33190  0.46700  0.08170  Biso   1.000  C
  C20      1.0000 0.26100  0.44540  0.10710  Biso   1.000  C
  H14      1.0000 0.23020  0.39460  0.08470  Biso   1.000  H
  C21      1.0000 0.23490  0.49940  0.16630  Biso   1.000  C
  C22      1.0000 0.27890  0.57820  0.19780  Biso   1.000  C
  H15      1.0000 0.26210  0.61410  0.23710  Biso   1.000  H
  C23      1.0000 0.34930  0.60320  0.16960  Biso   1.000  C
  C24      1.0000 0.37400  0.54860  0.11300  Biso   1.000  C
  H16      1.0000 0.42030  0.56610  0.09460  Biso   1.000  H
  C25      1.0000 0.35980  0.40540  0.01990  Biso   1.000  C
  C26      1.0000 0.30947  0.36650  0.96180  Biso   1.000  C
  H17      1.0000 0.25670  0.38170  0.95820  Biso   1.000  H
  C27      1.0000 0.33800  0.30490  0.90910  Biso   1.000  C
  H18      1.0000 0.30440  0.27890  0.87030  Biso   1.000  H
  N3       1.0000 0.41680  0.28230  0.91450  Biso   1.000  N
  C28      1.0000 0.46711  0.32120  0.97260  Biso   1.000  C
  H19      1.0000 0.51980  0.30600  0.97620  Biso   1.000  H
  C29      1.0000 0.43860  0.38270  0.02530  Biso   1.000  C
  H20      1.0000 0.47220  0.40880  0.06420  Biso   1.000  H
  C30      1.0000 0.15850  0.46830  0.19180  Biso   1.000  C
  C31      1.0000 0.40040  0.68720  0.20280  Biso   1.000  C
  O5       1.0000 0.12180  0.40560  0.14971  Biso   1.000  O
  O6       1.0000 0.13674  0.50240  0.24990  Biso   1.000  O
  O7       1.0000 0.45715  0.70490  0.16760  Biso   1.000  O
  O8       1.0000 0.38291  0.73140  0.25860  Biso   1.000  O
  H21      1.0000 0.52880  0.94670  0.24180  Biso   1.000  H
  C32      1.0000 0.36780  0.39980  0.03380  Biso   1.000  C
  C33      1.0000 0.36970  0.29650  0.04090  Biso   1.000  C
  H22      1.0000 0.35480  0.26660  0.08360  Biso   1.000  H
  C34      1.0000 0.39390  0.23800  0.98410  Biso   1.000  C
  H23      1.0000 0.39510  0.16890  0.98890  Biso   1.000  H
  N4       1.0000 0.41620  0.28280  0.92030  Biso   1.000  N
  C35      1.0000 0.41430  0.38610  0.91320  Biso   1.000  C
  H24      1.0000 0.42920  0.41600  0.87050  Biso   1.000  H
  C36      1.0000 0.39010  0.44460  0.97000  Biso   1.000  C
  H25      1.0000 0.38880  0.51370  0.96520  Biso   1.000  H
  H26      1.0000 0.47850  0.91040  0.28910  Biso   1.000  H
  Ni3      1.0000 0.95956  0.30594  0.33438  Biso   1.000  Ni
  C37      1.0000 0.16810  0.96700  0.41830  Biso   1.000  C
  C38      1.0000 0.23900  0.94540  0.39290  Biso   1.000  C
  H27      1.0000 0.26980  0.89460  0.41530  Biso   1.000  H
  C39      1.0000 0.26510  0.99940  0.33370  Biso   1.000  C
  C40      1.0000 0.22110  0.07820  0.30220  Biso   1.000  C
  H28      1.0000 0.23790  0.11410  0.26290  Biso   1.000  H
  C41      1.0000 0.15070  0.10320  0.33040  Biso   1.000  C
  C42      1.0000 0.12600  0.04860  0.38700  Biso   1.000  C
  H29      1.0000 0.07970  0.06610  0.40540  Biso   1.000  H
  C43      1.0000 0.14020  0.90540  0.48010  Biso   1.000  C
  C44      1.0000 0.19053  0.86650  0.53820  Biso   1.000  C
  H30      1.0000 0.24330  0.88170  0.54180  Biso   1.000  H
  C45      1.0000 0.16200  0.80490  0.59090  Biso   1.000  C
  H31      1.0000 0.19560  0.77890  0.62970  Biso   1.000  H
  N5       1.0000 0.08320  0.78230  0.58550  Biso   1.000  N
  C46      1.0000 0.03289  0.82120  0.52740  Biso   1.000  C
  H32      1.0000 0.98020  0.80600  0.52380  Biso   1.000  H
  C47      1.0000 0.06140  0.88270  0.47470  Biso   1.000  C
  H33      1.0000 0.02780  0.90880  0.43580  Biso   1.000  H
  C48      1.0000 0.34150  0.96830  0.30820  Biso   1.000  C
  C49      1.0000 0.09960  0.18720  0.29720  Biso   1.000  C
  O9       1.0000 0.37820  0.90560  0.35029  Biso   1.000  O
  O10      1.0000 0.36326  0.00240  0.25010  Biso   1.000  O
  O11      1.0000 0.04285  0.20490  0.33240  Biso   1.000  O
  O12      1.0000 0.11709  0.23140  0.24140  Biso   1.000  O
  H34      1.0000 0.97120  0.44670  0.25820  Biso   1.000  H
  C50      1.0000 0.13220  0.89980  0.46620  Biso   1.000  C
  C51      1.0000 0.13030  0.79650  0.45910  Biso   1.000  C
  H35      1.0000 0.14520  0.76660  0.41640  Biso   1.000  H
  C52      1.0000 0.10610  0.73800  0.51590  Biso   1.000  C
  H36      1.0000 0.10490  0.66890  0.51110  Biso   1.000  H
  N6       1.0000 0.08380  0.78280  0.57970  Biso   1.000  N
  C53      1.0000 0.08570  0.88610  0.58680  Biso   1.000  C
  H37      1.0000 0.07080  0.91600  0.62950  Biso   1.000  H
  C54      1.0000 0.10990  0.94460  0.53000  Biso   1.000  C
  H38      1.0000 0.11120  0.01370  0.53480  Biso   1.000  H
  H39      1.0000 0.02150  0.41040  0.21090  Biso   1.000  H
  Ni4      1.0000 0.45956  0.80594  0.33438  Biso   1.000  Ni
  C55      1.0000 0.66810  0.46700  0.41830  Biso   1.000  C
  C56      1.0000 0.73900  0.44540  0.39290  Biso   1.000  C
  H40      1.0000 0.76980  0.39460  0.41530  Biso   1.000  H
  C57      1.0000 0.76510  0.49940  0.33370  Biso   1.000  C
  C58      1.0000 0.72110  0.57820  0.30220  Biso   1.000  C
  H41      1.0000 0.73790  0.61410  0.26290  Biso   1.000  H
  C59      1.0000 0.65070  0.60320  0.33040  Biso   1.000  C
  C60      1.0000 0.62600  0.54860  0.38700  Biso   1.000  C
  H42      1.0000 0.57970  0.56610  0.40540  Biso   1.000  H
  C61      1.0000 0.64020  0.40540  0.48010  Biso   1.000  C
  C62      1.0000 0.69053  0.36650  0.53820  Biso   1.000  C
  H43      1.0000 0.74330  0.38170  0.54180  Biso   1.000  H
  C63      1.0000 0.66200  0.30490  0.59090  Biso   1.000  C
  H44      1.0000 0.69560  0.27890  0.62970  Biso   1.000  H
  N7       1.0000 0.58320  0.28230  0.58550  Biso   1.000  N
  C64      1.0000 0.53289  0.32120  0.52740  Biso   1.000  C
  H45      1.0000 0.48020  0.30600  0.52380  Biso   1.000  H
  C65      1.0000 0.56140  0.38270  0.47470  Biso   1.000  C
  H46      1.0000 0.52780  0.40880  0.43580  Biso   1.000  H
  C66      1.0000 0.84150  0.46830  0.30820  Biso   1.000  C
  C67      1.0000 0.59960  0.68720  0.29720  Biso   1.000  C
  O13      1.0000 0.87820  0.40560  0.35029  Biso   1.000  O
  O14      1.0000 0.86326  0.50240  0.25010  Biso   1.000  O
  O15      1.0000 0.54285  0.70490  0.33240  Biso   1.000  O
  O16      1.0000 0.61709  0.73140  0.24140  Biso   1.000  O
  H47      1.0000 0.47120  0.94670  0.25820  Biso   1.000  H
  C68      1.0000 0.63220  0.39980  0.46620  Biso   1.000  C
  C69      1.0000 0.63030  0.29650  0.45910  Biso   1.000  C
  H48      1.0000 0.64520  0.26660  0.41640  Biso   1.000  H
  C70      1.0000 0.60610  0.23800  0.51590  Biso   1.000  C
  H49      1.0000 0.60490  0.16890  0.51110  Biso   1.000  H
  N8       1.0000 0.58380  0.28280  0.57970  Biso   1.000  N
  C71      1.0000 0.58570  0.38610  0.58680  Biso   1.000  C
  H50      1.0000 0.57080  0.41600  0.62950  Biso   1.000  H
  C72      1.0000 0.60990  0.44460  0.53000  Biso   1.000  C
  H51      1.0000 0.61120  0.51370  0.53480  Biso   1.000  H
  H52      1.0000 0.52150  0.91040  0.21090  Biso   1.000  H
  Ni5      1.0000 0.95956  0.69406  0.83438  Biso   1.000  Ni
  C73      1.0000 0.16810  0.03300  0.91830  Biso   1.000  C
  C74      1.0000 0.23900  0.05460  0.89290  Biso   1.000  C
  H53      1.0000 0.26980  0.10540  0.91530  Biso   1.000  H
  C75      1.0000 0.26510  0.00060  0.83370  Biso   1.000  C
  C76      1.0000 0.22110  0.92180  0.80220  Biso   1.000  C
  H54      1.0000 0.23790  0.88590  0.76290  Biso   1.000  H
  C77      1.0000 0.15070  0.89680  0.83040  Biso   1.000  C
  C78      1.0000 0.12600  0.95140  0.88700  Biso   1.000  C
  H55      1.0000 0.07970  0.93390  0.90540  Biso   1.000  H
  C79      1.0000 0.14020  0.09460  0.98010  Biso   1.000  C
  C80      1.0000 0.19053  0.13350  0.03820  Biso   1.000  C
  H56      1.0000 0.24330  0.11830  0.04180  Biso   1.000  H
  C81      1.0000 0.16200  0.19510  0.09090  Biso   1.000  C
  H57      1.0000 0.19560  0.22110  0.12970  Biso   1.000  H
  N9       1.0000 0.08320  0.21770  0.08550  Biso   1.000  N
  C82      1.0000 0.03289  0.17880  0.02740  Biso   1.000  C
  H58      1.0000 0.98020  0.19400  0.02380  Biso   1.000  H
  C83      1.0000 0.06140  0.11730  0.97470  Biso   1.000  C
  H59      1.0000 0.02780  0.09120  0.93580  Biso   1.000  H
  C84      1.0000 0.34150  0.03170  0.80820  Biso   1.000  C
  C85      1.0000 0.09960  0.81280  0.79720  Biso   1.000  C
  O17      1.0000 0.37820  0.09440  0.85029  Biso   1.000  O
  O18      1.0000 0.36326  0.99760  0.75010  Biso   1.000  O
  O19      1.0000 0.04285  0.79510  0.83240  Biso   1.000  O
  O20      1.0000 0.11709  0.76860  0.74140  Biso   1.000  O
  H60      1.0000 0.97120  0.55330  0.75820  Biso   1.000  H
  C86      1.0000 0.13220  0.10020  0.96620  Biso   1.000  C
  C87      1.0000 0.13030  0.20350  0.95910  Biso   1.000  C
  H61      1.0000 0.14520  0.23340  0.91640  Biso   1.000  H
  C88      1.0000 0.10610  0.26200  0.01590  Biso   1.000  C
  H62      1.0000 0.10490  0.33110  0.01110  Biso   1.000  H
  N10      1.0000 0.08380  0.21720  0.07970  Biso   1.000  N
  C89      1.0000 0.08570  0.11390  0.08680  Biso   1.000  C
  H63      1.0000 0.07080  0.08400  0.12950  Biso   1.000  H
  C90      1.0000 0.10990  0.05540  0.03000  Biso   1.000  C
  H64      1.0000 0.11120  0.98630  0.03480  Biso   1.000  H
  H65      1.0000 0.02150  0.58960  0.71090  Biso   1.000  H
  Ni6      1.0000 0.45956  0.19406  0.83438  Biso   1.000  Ni
  C91      1.0000 0.66810  0.53300  0.91830  Biso   1.000  C
  C92      1.0000 0.73900  0.55460  0.89290  Biso   1.000  C
  H66      1.0000 0.76980  0.60540  0.91530  Biso   1.000  H
  C93      1.0000 0.76510  0.50060  0.83370  Biso   1.000  C
  C94      1.0000 0.72110  0.42180  0.80220  Biso   1.000  C
  H67      1.0000 0.73790  0.38590  0.76290  Biso   1.000  H
  C95      1.0000 0.65070  0.39680  0.83040  Biso   1.000  C
  C96      1.0000 0.62600  0.45140  0.88700  Biso   1.000  C
  H68      1.0000 0.57970  0.43390  0.90540  Biso   1.000  H
  C97      1.0000 0.64020  0.59460  0.98010  Biso   1.000  C
  C98      1.0000 0.69053  0.63350  0.03820  Biso   1.000  C
  H69      1.0000 0.74330  0.61830  0.04180  Biso   1.000  H
  C99      1.0000 0.66200  0.69510  0.09090  Biso   1.000  C
  H70      1.0000 0.69560  0.72110  0.12970  Biso   1.000  H
  N11      1.0000 0.58320  0.71770  0.08550  Biso   1.000  N
  C100     1.0000 0.53289  0.67880  0.02740  Biso   1.000  C
  H71      1.0000 0.48020  0.69400  0.02380  Biso   1.000  H
  C101     1.0000 0.56140  0.61730  0.97470  Biso   1.000  C
  H72      1.0000 0.52780  0.59120  0.93580  Biso   1.000  H
  C102     1.0000 0.84150  0.53170  0.80820  Biso   1.000  C
  C103     1.0000 0.59960  0.31280  0.79720  Biso   1.000  C
  O21      1.0000 0.87820  0.59440  0.85029  Biso   1.000  O
  O22      1.0000 0.86326  0.49760  0.75010  Biso   1.000  O
  O23      1.0000 0.54285  0.29510  0.83240  Biso   1.000  O
  O24      1.0000 0.61709  0.26860  0.74140  Biso   1.000  O
  H73      1.0000 0.47120  0.05330  0.75820  Biso   1.000  H
  C104     1.0000 0.63220  0.60020  0.96620  Biso   1.000  C
  C105     1.0000 0.63030  0.70350  0.95910  Biso   1.000  C
  H74      1.0000 0.64520  0.73340  0.91640  Biso   1.000  H
  C106     1.0000 0.60610  0.76200  0.01590  Biso   1.000  C
  H75      1.0000 0.60490  0.83110  0.01110  Biso   1.000  H
  N12      1.0000 0.58380  0.71720  0.07970  Biso   1.000  N
  C107     1.0000 0.58570  0.61390  0.08680  Biso   1.000  C
  H76      1.0000 0.57080  0.58400  0.12950  Biso   1.000  H
  C108     1.0000 0.60990  0.55540  0.03000  Biso   1.000  C
  H77      1.0000 0.61120  0.48630  0.03480  Biso   1.000  H
  H78      1.0000 0.52150  0.08960  0.71090  Biso   1.000  H
  Ni7      1.0000 0.04044  0.69406  0.66562  Biso   1.000  Ni
  C109     1.0000 0.83190  0.03300  0.58170  Biso   1.000  C
  C110     1.0000 0.76100  0.05460  0.60710  Biso   1.000  C
  H79      1.0000 0.73020  0.10540  0.58470  Biso   1.000  H
  C111     1.0000 0.73490  0.00060  0.66630  Biso   1.000  C
  C112     1.0000 0.77890  0.92180  0.69780  Biso   1.000  C
  H80      1.0000 0.76210  0.88590  0.73710  Biso   1.000  H
  C113     1.0000 0.84930  0.89680  0.66960  Biso   1.000  C
  C114     1.0000 0.87400  0.95140  0.61300  Biso   1.000  C
  H81      1.0000 0.92030  0.93390  0.59460  Biso   1.000  H
  C115     1.0000 0.85980  0.09460  0.51990  Biso   1.000  C
  C116     1.0000 0.80947  0.13350  0.46180  Biso   1.000  C
  H82      1.0000 0.75670  0.11830  0.45820  Biso   1.000  H
  C117     1.0000 0.83800  0.19510  0.40910  Biso   1.000  C
  H83      1.0000 0.80440  0.22110  0.37030  Biso   1.000  H
  N13      1.0000 0.91680  0.21770  0.41450  Biso   1.000  N
  C118     1.0000 0.96711  0.17880  0.47260  Biso   1.000  C
  H84      1.0000 0.01980  0.19400  0.47620  Biso   1.000  H
  C119     1.0000 0.93860  0.11730  0.52530  Biso   1.000  C
  H85      1.0000 0.97220  0.09120  0.56420  Biso   1.000  H
  C120     1.0000 0.65850  0.03170  0.69180  Biso   1.000  C
  C121     1.0000 0.90040  0.81280  0.70280  Biso   1.000  C
  O25      1.0000 0.62180  0.09440  0.64971  Biso   1.000  O
  O26      1.0000 0.63674  0.99760  0.74990  Biso   1.000  O
  O27      1.0000 0.95715  0.79510  0.66760  Biso   1.000  O
  O28      1.0000 0.88291  0.76860  0.75860  Biso   1.000  O
  H86      1.0000 0.02880  0.55330  0.74180  Biso   1.000  H
  C122     1.0000 0.86780  0.10020  0.53380  Biso   1.000  C
  C123     1.0000 0.86970  0.20350  0.54090  Biso   1.000  C
  H87      1.0000 0.85480  0.23340  0.58360  Biso   1.000  H
  C124     1.0000 0.89390  0.26200  0.48410  Biso   1.000  C
  H88      1.0000 0.89510  0.33110  0.48890  Biso   1.000  H
  N14      1.0000 0.91620  0.21720  0.42030  Biso   1.000  N
  C125     1.0000 0.91430  0.11390  0.41320  Biso   1.000  C
  H89      1.0000 0.92920  0.08400  0.37050  Biso   1.000  H
  C126     1.0000 0.89010  0.05540  0.47000  Biso   1.000  C
  H90      1.0000 0.88880  0.98630  0.46520  Biso   1.000  H
  H91      1.0000 0.97850  0.58960  0.78910  Biso   1.000  H
  Ni8      1.0000 0.54044  0.19406  0.66562  Biso   1.000  Ni
  C127     1.0000 0.33190  0.53300  0.58170  Biso   1.000  C
  C128     1.0000 0.26100  0.55460  0.60710  Biso   1.000  C
  H92      1.0000 0.23020  0.60540  0.58470  Biso   1.000  H
  C129     1.0000 0.23490  0.50060  0.66630  Biso   1.000  C
  C130     1.0000 0.27890  0.42180  0.69780  Biso   1.000  C
  H93      1.0000 0.26210  0.38590  0.73710  Biso   1.000  H
  C131     1.0000 0.34930  0.39680  0.66960  Biso   1.000  C
  C132     1.0000 0.37400  0.45140  0.61300  Biso   1.000  C
  H94      1.0000 0.42030  0.43390  0.59460  Biso   1.000  H
  C133     1.0000 0.35980  0.59460  0.51990  Biso   1.000  C
  C134     1.0000 0.30947  0.63350  0.46180  Biso   1.000  C
  H95      1.0000 0.25670  0.61830  0.45820  Biso   1.000  H
  C135     1.0000 0.33800  0.69510  0.40910  Biso   1.000  C
  H96      1.0000 0.30440  0.72110  0.37030  Biso   1.000  H
  N15      1.0000 0.41680  0.71770  0.41450  Biso   1.000  N
  C136     1.0000 0.46711  0.67880  0.47260  Biso   1.000  C
  H97      1.0000 0.51980  0.69400  0.47620  Biso   1.000  H
  C137     1.0000 0.43860  0.61730  0.52530  Biso   1.000  C
  H98      1.0000 0.47220  0.59120  0.56420  Biso   1.000  H
  C138     1.0000 0.15850  0.53170  0.69180  Biso   1.000  C
  C139     1.0000 0.40040  0.31280  0.70280  Biso   1.000  C
  O29      1.0000 0.12180  0.59440  0.64971  Biso   1.000  O
  O30      1.0000 0.13674  0.49760  0.74990  Biso   1.000  O
  O31      1.0000 0.45715  0.29510  0.66760  Biso   1.000  O
  O32      1.0000 0.38291  0.26860  0.75860  Biso   1.000  O
  H99      1.0000 0.52880  0.05330  0.74180  Biso   1.000  H
  C140     1.0000 0.36780  0.60020  0.53380  Biso   1.000  C
  C141     1.0000 0.36970  0.70350  0.54090  Biso   1.000  C
  H100     1.0000 0.35480  0.73340  0.58360  Biso   1.000  H
  C142     1.0000 0.39390  0.76200  0.48410  Biso   1.000  C
  H101     1.0000 0.39510  0.83110  0.48890  Biso   1.000  H
  N16      1.0000 0.41620  0.71720  0.42030  Biso   1.000  N
  C143     1.0000 0.41430  0.61390  0.41320  Biso   1.000  C
  H102     1.0000 0.42920  0.58400  0.37050  Biso   1.000  H
  C144     1.0000 0.39010  0.55540  0.47000  Biso   1.000  C
  H103     1.0000 0.38880  0.48630  0.46520  Biso   1.000  H
  H104     1.0000 0.47850  0.08960  0.78910  Biso   1.000  H
  O33      1.0000 0.00000  0.39750  0.25000  Biso   1.000  O
  O34      1.0000 0.50000  0.89750  0.25000  Biso   1.000  O
  O35      1.0000 0.00000  0.60250  0.75000  Biso   1.000  O
  O36      1.0000 0.50000  0.10250  0.75000  Biso   1.000  O
