data_image0
_cell_length_a       16.783
_cell_length_b       14.1889
_cell_length_c       18.6834
_cell_angle_alpha    90
_cell_angle_beta     97.743
_cell_angle_gamma    90

_symmetry_space_group_name_H-M    "P 1"
_symmetry_int_tables_number       1

loop_
  _symmetry_equiv_pos_as_xyz
  'x, y, z'

loop_
  _atom_site_label
  _atom_site_occupancy
  _atom_site_fract_x
  _atom_site_fract_y
  _atom_site_fract_z
  _atom_site_thermal_displace_type
  _atom_site_B_iso_or_equiv
  _atom_site_type_symbol
  Ni1      1.0000 0.04002  0.28037  0.16827  Biso   1.000  Ni
  O1       1.0000 0.04798  0.81292  0.83249  Biso   1.000  O
  O2       1.0000 0.11683  0.80006  0.73950  Biso   1.000  O
  O3       1.0000 0.37186  0.12860  0.84171  Biso   1.000  O
  O4       1.0000 0.36098  0.03301  0.74711  Biso   1.000  O
  H1       1.0000 0.03650  0.40020  0.26850  Biso   1.000  H
  N1       1.0000 0.08026  0.20346  0.08463  Biso   1.000  N
  C1       1.0000 0.03530  0.17540  0.03300  Biso   1.000  C
  H2       1.0000 0.98080  0.18800  0.03190  Biso   1.000  H
  C2       1.0000 0.05910  0.12540  0.97470  Biso   1.000  C
  H3       1.0000 0.02020  0.10790  0.93680  Biso   1.000  H
  C3       1.0000 0.13510  0.10240  0.97194  Biso   1.000  C
  C4       1.0000 0.19100  0.13580  0.03580  Biso   1.000  C
  H4       1.0000 0.24590  0.12410  0.03860  Biso   1.000  H
  C5       1.0000 0.16120  0.18450  0.09110  Biso   1.000  C
  H5       1.0000 0.19550  0.20380  0.13170  Biso   1.000  H
  C6       1.0000 0.16450  0.04930  0.91231  Biso   1.000  C
  C7       1.0000 0.12430  0.97000  0.88233  Biso   1.000  C
  H6       1.0000 0.07870  0.94910  0.90080  Biso   1.000  H
  C8       1.0000 0.15035  0.92160  0.82603  Biso   1.000  C
  C9       1.0000 0.21917  0.95240  0.79786  Biso   1.000  C
  H7       1.0000 0.23670  0.92070  0.75930  Biso   1.000  H
  C10      1.0000 0.26072  0.02980  0.82761  Biso   1.000  C
  C11      1.0000 0.23330  0.07770  0.88460  Biso   1.000  C
  H8       1.0000 0.26170  0.12980  0.90450  Biso   1.000  H
  C12      1.0000 0.10142  0.83740  0.79598  Biso   1.000  C
  C13      1.0000 0.33750  0.06590  0.80257  Biso   1.000  C
  C14      1.0000 0.08220  0.10700  0.08160  Biso   1.000  C
  H9       1.0000 0.06540  0.07380  0.11980  Biso   1.000  H
  C15      1.0000 0.10710  0.05590  0.02640  Biso   1.000  C
  H10      1.0000 0.10480  0.99040  0.02650  Biso   1.000  H
  C16      1.0000 0.12400  0.19710  0.96520  Biso   1.000  C
  H11      1.0000 0.13380  0.22890  0.92370  Biso   1.000  H
  C17      1.0000 0.09750  0.24480  0.02270  Biso   1.000  C
  H12      1.0000 0.09120  0.30970  0.01850  Biso   1.000  H
  Ni2      1.0000 0.54002  0.78037  0.16827  Biso   1.000  Ni
  O5       1.0000 0.54798  0.31292  0.83249  Biso   1.000  O
  O6       1.0000 0.61683  0.30006  0.73950  Biso   1.000  O
  O7       1.0000 0.87186  0.62860  0.84171  Biso   1.000  O
  O8       1.0000 0.86098  0.53301  0.74711  Biso   1.000  O
  H13      1.0000 0.53650  0.90020  0.26850  Biso   1.000  H
  N2       1.0000 0.58026  0.70346  0.08463  Biso   1.000  N
  C18      1.0000 0.53530  0.67540  0.03300  Biso   1.000  C
  H14      1.0000 0.48080  0.68800  0.03190  Biso   1.000  H
  C19      1.0000 0.55910  0.62540  0.97470  Biso   1.000  C
  H15      1.0000 0.52020  0.60790  0.93680  Biso   1.000  H
  C20      1.0000 0.63510  0.60240  0.97194  Biso   1.000  C
  C21      1.0000 0.69100  0.63580  0.03580  Biso   1.000  C
  H16      1.0000 0.74590  0.62410  0.03860  Biso   1.000  H
  C22      1.0000 0.66120  0.68450  0.09110  Biso   1.000  C
  H17      1.0000 0.69550  0.70380  0.13170  Biso   1.000  H
  C23      1.0000 0.66450  0.54930  0.91231  Biso   1.000  C
  C24      1.0000 0.62430  0.47000  0.88233  Biso   1.000  C
  H18      1.0000 0.57870  0.44910  0.90080  Biso   1.000  H
  C25      1.0000 0.65035  0.42160  0.82603  Biso   1.000  C
  C26      1.0000 0.71917  0.45240  0.79786  Biso   1.000  C
  H19      1.0000 0.73670  0.42070  0.75930  Biso   1.000  H
  C27      1.0000 0.76072  0.52980  0.82761  Biso   1.000  C
  C28      1.0000 0.73330  0.57770  0.88460  Biso   1.000  C
  H20      1.0000 0.76170  0.62980  0.90450  Biso   1.000  H
  C29      1.0000 0.60142  0.33740  0.79598  Biso   1.000  C
  C30      1.0000 0.83750  0.56590  0.80257  Biso   1.000  C
  C31      1.0000 0.58220  0.60700  0.08160  Biso   1.000  C
  H21      1.0000 0.56540  0.57380  0.11980  Biso   1.000  H
  C32      1.0000 0.60710  0.55590  0.02640  Biso   1.000  C
  H22      1.0000 0.60480  0.49040  0.02650  Biso   1.000  H
  C33      1.0000 0.62400  0.69710  0.96520  Biso   1.000  C
  H23      1.0000 0.63380  0.72890  0.92370  Biso   1.000  H
  C34      1.0000 0.59750  0.74480  0.02270  Biso   1.000  C
  H24      1.0000 0.59120  0.80970  0.01850  Biso   1.000  H
  Ni3      1.0000 0.95998  0.28037  0.33173  Biso   1.000  Ni
  O9       1.0000 0.95202  0.81292  0.66751  Biso   1.000  O
  O10      1.0000 0.88317  0.80006  0.76050  Biso   1.000  O
  O11      1.0000 0.62814  0.12860  0.65829  Biso   1.000  O
  O12      1.0000 0.63902  0.03301  0.75289  Biso   1.000  O
  H25      1.0000 0.96350  0.40020  0.23150  Biso   1.000  H
  N3       1.0000 0.91974  0.20346  0.41537  Biso   1.000  N
  C35      1.0000 0.96470  0.17540  0.46700  Biso   1.000  C
  H26      1.0000 0.01920  0.18800  0.46810  Biso   1.000  H
  C36      1.0000 0.94090  0.12540  0.52530  Biso   1.000  C
  H27      1.0000 0.97980  0.10790  0.56320  Biso   1.000  H
  C37      1.0000 0.86490  0.10240  0.52806  Biso   1.000  C
  C38      1.0000 0.80900  0.13580  0.46420  Biso   1.000  C
  H28      1.0000 0.75410  0.12410  0.46140  Biso   1.000  H
  C39      1.0000 0.83880  0.18450  0.40890  Biso   1.000  C
  H29      1.0000 0.80450  0.20380  0.36830  Biso   1.000  H
  C40      1.0000 0.83550  0.04930  0.58769  Biso   1.000  C
  C41      1.0000 0.87570  0.97000  0.61767  Biso   1.000  C
  H30      1.0000 0.92130  0.94910  0.59920  Biso   1.000  H
  C42      1.0000 0.84965  0.92160  0.67397  Biso   1.000  C
  C43      1.0000 0.78083  0.95240  0.70214  Biso   1.000  C
  H31      1.0000 0.76330  0.92070  0.74070  Biso   1.000  H
  C44      1.0000 0.73928  0.02980  0.67239  Biso   1.000  C
  C45      1.0000 0.76670  0.07770  0.61540  Biso   1.000  C
  H32      1.0000 0.73830  0.12980  0.59550  Biso   1.000  H
  C46      1.0000 0.89858  0.83740  0.70402  Biso   1.000  C
  C47      1.0000 0.66250  0.06590  0.69743  Biso   1.000  C
  C48      1.0000 0.91780  0.10700  0.41840  Biso   1.000  C
  H33      1.0000 0.93460  0.07380  0.38020  Biso   1.000  H
  C49      1.0000 0.89290  0.05590  0.47360  Biso   1.000  C
  H34      1.0000 0.89520  0.99040  0.47350  Biso   1.000  H
  C50      1.0000 0.87600  0.19710  0.53480  Biso   1.000  C
  H35      1.0000 0.86620  0.22890  0.57630  Biso   1.000  H
  C51      1.0000 0.90250  0.24480  0.47730  Biso   1.000  C
  H36      1.0000 0.90880  0.30970  0.48150  Biso   1.000  H
  Ni4      1.0000 0.45998  0.78037  0.33173  Biso   1.000  Ni
  O13      1.0000 0.45202  0.31292  0.66751  Biso   1.000  O
  O14      1.0000 0.38317  0.30006  0.76050  Biso   1.000  O
  O15      1.0000 0.12814  0.62860  0.65829  Biso   1.000  O
  O16      1.0000 0.13902  0.53301  0.75289  Biso   1.000  O
  H37      1.0000 0.46350  0.90020  0.23150  Biso   1.000  H
  N4       1.0000 0.41974  0.70346  0.41537  Biso   1.000  N
  C52      1.0000 0.46470  0.67540  0.46700  Biso   1.000  C
  H38      1.0000 0.51920  0.68800  0.46810  Biso   1.000  H
  C53      1.0000 0.44090  0.62540  0.52530  Biso   1.000  C
  H39      1.0000 0.47980  0.60790  0.56320  Biso   1.000  H
  C54      1.0000 0.36490  0.60240  0.52806  Biso   1.000  C
  C55      1.0000 0.30900  0.63580  0.46420  Biso   1.000  C
  H40      1.0000 0.25410  0.62410  0.46140  Biso   1.000  H
  C56      1.0000 0.33880  0.68450  0.40890  Biso   1.000  C
  H41      1.0000 0.30450  0.70380  0.36830  Biso   1.000  H
  C57      1.0000 0.33550  0.54930  0.58769  Biso   1.000  C
  C58      1.0000 0.37570  0.47000  0.61767  Biso   1.000  C
  H42      1.0000 0.42130  0.44910  0.59920  Biso   1.000  H
  C59      1.0000 0.34965  0.42160  0.67397  Biso   1.000  C
  C60      1.0000 0.28083  0.45240  0.70214  Biso   1.000  C
  H43      1.0000 0.26330  0.42070  0.74070  Biso   1.000  H
  C61      1.0000 0.23928  0.52980  0.67239  Biso   1.000  C
  C62      1.0000 0.26670  0.57770  0.61540  Biso   1.000  C
  H44      1.0000 0.23830  0.62980  0.59550  Biso   1.000  H
  C63      1.0000 0.39858  0.33740  0.70402  Biso   1.000  C
  C64      1.0000 0.16250  0.56590  0.69743  Biso   1.000  C
  C65      1.0000 0.41780  0.60700  0.41840  Biso   1.000  C
  H45      1.0000 0.43460  0.57380  0.38020  Biso   1.000  H
  C66      1.0000 0.39290  0.55590  0.47360  Biso   1.000  C
  H46      1.0000 0.39520  0.49040  0.47350  Biso   1.000  H
  C67      1.0000 0.37600  0.69710  0.53480  Biso   1.000  C
  H47      1.0000 0.36620  0.72890  0.57630  Biso   1.000  H
  C68      1.0000 0.40250  0.74480  0.47730  Biso   1.000  C
  H48      1.0000 0.40880  0.80970  0.48150  Biso   1.000  H
  Ni5      1.0000 0.95998  0.71963  0.83173  Biso   1.000  Ni
  O17      1.0000 0.95202  0.18708  0.16751  Biso   1.000  O
  O18      1.0000 0.88317  0.19994  0.26050  Biso   1.000  O
  O19      1.0000 0.62814  0.87140  0.15829  Biso   1.000  O
  O20      1.0000 0.63902  0.96699  0.25289  Biso   1.000  O
  H49      1.0000 0.96350  0.59980  0.73150  Biso   1.000  H
  N5       1.0000 0.91974  0.79654  0.91537  Biso   1.000  N
  C69      1.0000 0.96470  0.82460  0.96700  Biso   1.000  C
  H50      1.0000 0.01920  0.81200  0.96810  Biso   1.000  H
  C70      1.0000 0.94090  0.87460  0.02530  Biso   1.000  C
  H51      1.0000 0.97980  0.89210  0.06320  Biso   1.000  H
  C71      1.0000 0.86490  0.89760  0.02806  Biso   1.000  C
  C72      1.0000 0.80900  0.86420  0.96420  Biso   1.000  C
  H52      1.0000 0.75410  0.87590  0.96140  Biso   1.000  H
  C73      1.0000 0.83880  0.81550  0.90890  Biso   1.000  C
  H53      1.0000 0.80450  0.79620  0.86830  Biso   1.000  H
  C74      1.0000 0.83550  0.95070  0.08769  Biso   1.000  C
  C75      1.0000 0.87570  0.03000  0.11767  Biso   1.000  C
  H54      1.0000 0.92130  0.05090  0.09920  Biso   1.000  H
  C76      1.0000 0.84965  0.07840  0.17397  Biso   1.000  C
  C77      1.0000 0.78083  0.04760  0.20214  Biso   1.000  C
  H55      1.0000 0.76330  0.07930  0.24070  Biso   1.000  H
  C78      1.0000 0.73928  0.97020  0.17239  Biso   1.000  C
  C79      1.0000 0.76670  0.92230  0.11540  Biso   1.000  C
  H56      1.0000 0.73830  0.87020  0.09550  Biso   1.000  H
  C80      1.0000 0.89858  0.16260  0.20402  Biso   1.000  C
  C81      1.0000 0.66250  0.93410  0.19743  Biso   1.000  C
  C82      1.0000 0.91780  0.89300  0.91840  Biso   1.000  C
  H57      1.0000 0.93460  0.92620  0.88020  Biso   1.000  H
  C83      1.0000 0.89290  0.94410  0.97360  Biso   1.000  C
  H58      1.0000 0.89520  0.00960  0.97350  Biso   1.000  H
  C84      1.0000 0.87600  0.80290  0.03480  Biso   1.000  C
  H59      1.0000 0.86620  0.77110  0.07630  Biso   1.000  H
  C85      1.0000 0.90250  0.75520  0.97730  Biso   1.000  C
  H60      1.0000 0.90880  0.69030  0.98150  Biso   1.000  H
  Ni6      1.0000 0.45998  0.21963  0.83173  Biso   1.000  Ni
  O21      1.0000 0.45202  0.68708  0.16751  Biso   1.000  O
  O22      1.0000 0.38317  0.69994  0.26050  Biso   1.000  O
  O23      1.0000 0.12814  0.37140  0.15829  Biso   1.000  O
  O24      1.0000 0.13902  0.46699  0.25289  Biso   1.000  O
  H61      1.0000 0.46350  0.09980  0.73150  Biso   1.000  H
  N6       1.0000 0.41974  0.29654  0.91537  Biso   1.000  N
  C86      1.0000 0.46470  0.32460  0.96700  Biso   1.000  C
  H62      1.0000 0.51920  0.31200  0.96810  Biso   1.000  H
  C87      1.0000 0.44090  0.37460  0.02530  Biso   1.000  C
  H63      1.0000 0.47980  0.39210  0.06320  Biso   1.000  H
  C88      1.0000 0.36490  0.39760  0.02806  Biso   1.000  C
  C89      1.0000 0.30900  0.36420  0.96420  Biso   1.000  C
  H64      1.0000 0.25410  0.37590  0.96140  Biso   1.000  H
  C90      1.0000 0.33880  0.31550  0.90890  Biso   1.000  C
  H65      1.0000 0.30450  0.29620  0.86830  Biso   1.000  H
  C91      1.0000 0.33550  0.45070  0.08769  Biso   1.000  C
  C92      1.0000 0.37570  0.53000  0.11767  Biso   1.000  C
  H66      1.0000 0.42130  0.55090  0.09920  Biso   1.000  H
  C93      1.0000 0.34965  0.57840  0.17397  Biso   1.000  C
  C94      1.0000 0.28083  0.54760  0.20214  Biso   1.000  C
  H67      1.0000 0.26330  0.57930  0.24070  Biso   1.000  H
  C95      1.0000 0.23928  0.47020  0.17239  Biso   1.000  C
  C96      1.0000 0.26670  0.42230  0.11540  Biso   1.000  C
  H68      1.0000 0.23830  0.37020  0.09550  Biso   1.000  H
  C97      1.0000 0.39858  0.66260  0.20402  Biso   1.000  C
  C98      1.0000 0.16250  0.43410  0.19743  Biso   1.000  C
  C99      1.0000 0.41780  0.39300  0.91840  Biso   1.000  C
  H69      1.0000 0.43460  0.42620  0.88020  Biso   1.000  H
  C100     1.0000 0.39290  0.44410  0.97360  Biso   1.000  C
  H70      1.0000 0.39520  0.50960  0.97350  Biso   1.000  H
  C101     1.0000 0.37600  0.30290  0.03480  Biso   1.000  C
  H71      1.0000 0.36620  0.27110  0.07630  Biso   1.000  H
  C102     1.0000 0.40250  0.25520  0.97730  Biso   1.000  C
  H72      1.0000 0.40880  0.19030  0.98150  Biso   1.000  H
  Ni7      1.0000 0.04002  0.71963  0.66827  Biso   1.000  Ni
  O25      1.0000 0.04798  0.18708  0.33249  Biso   1.000  O
  O26      1.0000 0.11683  0.19994  0.23950  Biso   1.000  O
  O27      1.0000 0.37186  0.87140  0.34171  Biso   1.000  O
  O28      1.0000 0.36098  0.96699  0.24711  Biso   1.000  O
  H73      1.0000 0.03650  0.59980  0.76850  Biso   1.000  H
  N7       1.0000 0.08026  0.79654  0.58463  Biso   1.000  N
  C103     1.0000 0.03530  0.82460  0.53300  Biso   1.000  C
  H74      1.0000 0.98080  0.81200  0.53190  Biso   1.000  H
  C104     1.0000 0.05910  0.87460  0.47470  Biso   1.000  C
  H75      1.0000 0.02020  0.89210  0.43680  Biso   1.000  H
  C105     1.0000 0.13510  0.89760  0.47194  Biso   1.000  C
  C106     1.0000 0.19100  0.86420  0.53580  Biso   1.000  C
  H76      1.0000 0.24590  0.87590  0.53860  Biso   1.000  H
  C107     1.0000 0.16120  0.81550  0.59110  Biso   1.000  C
  H77      1.0000 0.19550  0.79620  0.63170  Biso   1.000  H
  C108     1.0000 0.16450  0.95070  0.41231  Biso   1.000  C
  C109     1.0000 0.12430  0.03000  0.38233  Biso   1.000  C
  H78      1.0000 0.07870  0.05090  0.40080  Biso   1.000  H
  C110     1.0000 0.15035  0.07840  0.32603  Biso   1.000  C
  C111     1.0000 0.21917  0.04760  0.29786  Biso   1.000  C
  H79      1.0000 0.23670  0.07930  0.25930  Biso   1.000  H
  C112     1.0000 0.26072  0.97020  0.32761  Biso   1.000  C
  C113     1.0000 0.23330  0.92230  0.38460  Biso   1.000  C
  H80      1.0000 0.26170  0.87020  0.40450  Biso   1.000  H
  C114     1.0000 0.10142  0.16260  0.29598  Biso   1.000  C
  C115     1.0000 0.33750  0.93410  0.30257  Biso   1.000  C
  C116     1.0000 0.08220  0.89300  0.58160  Biso   1.000  C
  H81      1.0000 0.06540  0.92620  0.61980  Biso   1.000  H
  C117     1.0000 0.10710  0.94410  0.52640  Biso   1.000  C
  H82      1.0000 0.10480  0.00960  0.52650  Biso   1.000  H
  C118     1.0000 0.12400  0.80290  0.46520  Biso   1.000  C
  H83      1.0000 0.13380  0.77110  0.42370  Biso   1.000  H
  C119     1.0000 0.09750  0.75520  0.52270  Biso   1.000  C
  H84      1.0000 0.09120  0.69030  0.51850  Biso   1.000  H
  Ni8      1.0000 0.54002  0.21963  0.66827  Biso   1.000  Ni
  O29      1.0000 0.54798  0.68708  0.33249  Biso   1.000  O
  O30      1.0000 0.61683  0.69994  0.23950  Biso   1.000  O
  O31      1.0000 0.87186  0.37140  0.34171  Biso   1.000  O
  O32      1.0000 0.86098  0.46699  0.24711  Biso   1.000  O
  H85      1.0000 0.53650  0.09980  0.76850  Biso   1.000  H
  N8       1.0000 0.58026  0.29654  0.58463  Biso   1.000  N
  C120     1.0000 0.53530  0.32460  0.53300  Biso   1.000  C
  H86      1.0000 0.48080  0.31200  0.53190  Biso   1.000  H
  C121     1.0000 0.55910  0.37460  0.47470  Biso   1.000  C
  H87      1.0000 0.52020  0.39210  0.43680  Biso   1.000  H
  C122     1.0000 0.63510  0.39760  0.47194  Biso   1.000  C
  C123     1.0000 0.69100  0.36420  0.53580  Biso   1.000  C
  H88      1.0000 0.74590  0.37590  0.53860  Biso   1.000  H
  C124     1.0000 0.66120  0.31550  0.59110  Biso   1.000  C
  H89      1.0000 0.69550  0.29620  0.63170  Biso   1.000  H
  C125     1.0000 0.66450  0.45070  0.41231  Biso   1.000  C
  C126     1.0000 0.62430  0.53000  0.38233  Biso   1.000  C
  H90      1.0000 0.57870  0.55090  0.40080  Biso   1.000  H
  C127     1.0000 0.65035  0.57840  0.32603  Biso   1.000  C
  C128     1.0000 0.71917  0.54760  0.29786  Biso   1.000  C
  H91      1.0000 0.73670  0.57930  0.25930  Biso   1.000  H
  C129     1.0000 0.76072  0.47020  0.32761  Biso   1.000  C
  C130     1.0000 0.73330  0.42230  0.38460  Biso   1.000  C
  H92      1.0000 0.76170  0.37020  0.40450  Biso   1.000  H
  C131     1.0000 0.60142  0.66260  0.29598  Biso   1.000  C
  C132     1.0000 0.83750  0.43410  0.30257  Biso   1.000  C
  C133     1.0000 0.58220  0.39300  0.58160  Biso   1.000  C
  H93      1.0000 0.56540  0.42620  0.61980  Biso   1.000  H
  C134     1.0000 0.60710  0.44410  0.52640  Biso   1.000  C
  H94      1.0000 0.60480  0.50960  0.52650  Biso   1.000  H
  C135     1.0000 0.62400  0.30290  0.46520  Biso   1.000  C
  H95      1.0000 0.63380  0.27110  0.42370  Biso   1.000  H
  C136     1.0000 0.59750  0.25520  0.52270  Biso   1.000  C
  H96      1.0000 0.59120  0.19030  0.51850  Biso   1.000  H
  O33      1.0000 0.00000  0.36600  0.25000  Biso   1.000  O
  O34      1.0000 0.50000  0.86600  0.25000  Biso   1.000  O
  O35      1.0000 0.00000  0.63400  0.75000  Biso   1.000  O
  O36      1.0000 0.50000  0.13400  0.75000  Biso   1.000  O
