data_image0
_cell_length_a       11.6396
_cell_length_b       11.7565
_cell_length_c       13.0034
_cell_angle_alpha    101.04
_cell_angle_beta     93.708
_cell_angle_gamma    114.402

_symmetry_space_group_name_H-M    "P 1"
_symmetry_int_tables_number       1

loop_
  _symmetry_equiv_pos_as_xyz
  'x, y, z'

loop_
  _atom_site_label
  _atom_site_occupancy
  _atom_site_fract_x
  _atom_site_fract_y
  _atom_site_fract_z
  _atom_site_thermal_displace_type
  _atom_site_B_iso_or_equiv
  _atom_site_type_symbol
  Bi1      1.0000 0.44888  0.24851  0.61455  Biso   1.000  Bi
  Bi2      1.0000 0.69853  0.45503  0.84412  Biso   1.000  Bi
  Bi3      1.0000 0.38459  0.41811  0.88219  Biso   1.000  Bi
  Bi4      1.0000 0.55185  0.58533  0.62978  Biso   1.000  Bi
  O1       1.0000 0.54260  0.43530  0.73720  Biso   1.000  O
  O2       1.0000 0.46360  0.39530  0.53420  Biso   1.000  O
  O3       1.0000 0.58030  0.47970  0.95110  Biso   1.000  O
  C1       1.0000 0.81850  0.20610  0.60610  Biso   1.000  C
  C2       1.0000 0.85350  0.15730  0.51630  Biso   1.000  C
  C3       1.0000 0.96870  0.15580  0.51250  Biso   1.000  C
  H1       1.0000 0.98690  0.11830  0.44980  Biso   1.000  H
  C4       1.0000 0.05960  0.21190  0.60470  Biso   1.000  C
  C5       1.0000 0.02870  0.26230  0.69630  Biso   1.000  C
  H2       1.0000 0.08820  0.29710  0.75830  Biso   1.000  H
  C6       1.0000 0.90930  0.26230  0.69810  Biso   1.000  C
  H3       1.0000 0.89020  0.29960  0.76030  Biso   1.000  H
  C7       1.0000 0.68620  0.19950  0.61410  Biso   1.000  C
  C8       1.0000 0.18960  0.21600  0.59850  Biso   1.000  C
  N1       1.0000 0.76140  0.10440  0.41520  Biso   1.000  N
  O4       1.0000 0.59390  0.09250  0.59950  Biso   1.000  O
  O5       1.0000 0.67700  0.30540  0.63730  Biso   1.000  O
  O6       1.0000 0.21280  0.16190  0.51650  Biso   1.000  O
  O7       1.0000 0.27500  0.27430  0.68290  Biso   1.000  O
  O8       1.0000 0.76340  0.01700  0.35110  Biso   1.000  O
  O9       1.0000 0.69240  0.15710  0.40000  Biso   1.000  O
  C9       1.0000 0.88150  0.50560  0.50220  Biso   1.000  C
  C10      1.0000 0.97580  0.55760  0.59060  Biso   1.000  C
  C11      1.0000 0.90750  0.44730  0.40960  Biso   1.000  C
  H4       1.0000 0.84480  0.41090  0.34640  Biso   1.000  H
  C12      1.0000 0.75240  0.50960  0.50210  Biso   1.000  C
  O10      1.0000 0.73460  0.56640  0.58870  Biso   1.000  O
  O11      1.0000 0.67450  0.45300  0.41580  Biso   1.000  O
  C13      1.0000 0.91990  0.86660  0.97170  Biso   1.000  C
  C14      1.0000 0.93420  0.94340  0.90000  Biso   1.000  C
  C15      1.0000 0.98680  0.92630  0.07370  Biso   1.000  C
  H5       1.0000 0.97810  0.87650  0.12570  Biso   1.000  H
  C16      1.0000 0.83910  0.72380  0.94410  Biso   1.000  C
  O12      1.0000 0.77700  0.66950  0.85060  Biso   1.000  O
  O13      1.0000 0.83620  0.66350  0.01150  Biso   1.000  O
  N2       1.0000 0.87900  0.88620  0.78530  Biso   1.000  N
  O14      1.0000 0.77100  0.86900  0.76200  Biso   1.000  O
  O15      1.0000 0.94800  0.86300  0.72700  Biso   1.000  O
  N3       1.0000 0.96810  0.62610  0.69540  Biso   1.000  N
  O16      1.0000 0.99590  0.74060  0.70740  Biso   1.000  O
  O17      1.0000 0.94390  0.56770  0.76390  Biso   1.000  O
  H6       1.0000 0.95900  0.59900  0.65500  Biso   1.000  H
  H7       1.0000 0.88760  0.90340  0.82920  Biso   1.000  H
  O18      1.0000 0.77500  0.82800  0.68200  Biso   1.000  O
  Bi5      1.0000 0.55112  0.75149  0.38545  Biso   1.000  Bi
  Bi6      1.0000 0.30147  0.54497  0.15588  Biso   1.000  Bi
  Bi7      1.0000 0.61541  0.58189  0.11781  Biso   1.000  Bi
  Bi8      1.0000 0.44815  0.41467  0.37022  Biso   1.000  Bi
  O19      1.0000 0.45740  0.56470  0.26280  Biso   1.000  O
  O20      1.0000 0.53640  0.60470  0.46580  Biso   1.000  O
  O21      1.0000 0.41970  0.52030  0.04890  Biso   1.000  O
  C17      1.0000 0.18150  0.79390  0.39390  Biso   1.000  C
  C18      1.0000 0.14650  0.84270  0.48370  Biso   1.000  C
  C19      1.0000 0.03130  0.84420  0.48750  Biso   1.000  C
  H8       1.0000 0.01310  0.88170  0.55020  Biso   1.000  H
  C20      1.0000 0.94040  0.78810  0.39530  Biso   1.000  C
  C21      1.0000 0.97130  0.73770  0.30370  Biso   1.000  C
  H9       1.0000 0.91180  0.70290  0.24170  Biso   1.000  H
  C22      1.0000 0.09070  0.73770  0.30190  Biso   1.000  C
  H10      1.0000 0.10980  0.70040  0.23970  Biso   1.000  H
  C23      1.0000 0.31380  0.80050  0.38590  Biso   1.000  C
  C24      1.0000 0.81040  0.78400  0.40150  Biso   1.000  C
  N4       1.0000 0.23860  0.89560  0.58480  Biso   1.000  N
  O22      1.0000 0.40610  0.90750  0.40050  Biso   1.000  O
  O23      1.0000 0.32300  0.69460  0.36270  Biso   1.000  O
  O24      1.0000 0.78720  0.83810  0.48350  Biso   1.000  O
  O25      1.0000 0.72500  0.72570  0.31710  Biso   1.000  O
  O26      1.0000 0.23660  0.98300  0.64890  Biso   1.000  O
  O27      1.0000 0.30760  0.84290  0.60000  Biso   1.000  O
  C25      1.0000 0.11850  0.49440  0.49780  Biso   1.000  C
  C26      1.0000 0.02420  0.44240  0.40940  Biso   1.000  C
  C27      1.0000 0.09250  0.55270  0.59040  Biso   1.000  C
  H11      1.0000 0.15520  0.58910  0.65360  Biso   1.000  H
  C28      1.0000 0.24760  0.49040  0.49790  Biso   1.000  C
  O28      1.0000 0.26540  0.43360  0.41130  Biso   1.000  O
  O29      1.0000 0.32550  0.54700  0.58420  Biso   1.000  O
  C29      1.0000 0.08010  0.13340  0.02830  Biso   1.000  C
  C30      1.0000 0.06580  0.05660  0.10000  Biso   1.000  C
  C31      1.0000 0.01320  0.07370  0.92630  Biso   1.000  C
  H12      1.0000 0.02190  0.12350  0.87430  Biso   1.000  H
  C32      1.0000 0.16090  0.27620  0.05590  Biso   1.000  C
  O30      1.0000 0.22300  0.33050  0.14940  Biso   1.000  O
  O31      1.0000 0.16380  0.33650  0.98850  Biso   1.000  O
  N5       1.0000 0.12100  0.11380  0.21470  Biso   1.000  N
  O32      1.0000 0.22900  0.13100  0.23800  Biso   1.000  O
  O33      1.0000 0.05200  0.13700  0.27300  Biso   1.000  O
  N6       1.0000 0.03190  0.37390  0.30460  Biso   1.000  N
  O34      1.0000 0.00410  0.25940  0.29260  Biso   1.000  O
  O35      1.0000 0.05610  0.43230  0.23610  Biso   1.000  O
  H13      1.0000 0.04100  0.40100  0.34500  Biso   1.000  H
  H14      1.0000 0.11240  0.09660  0.17080  Biso   1.000  H
  O36      1.0000 0.22500  0.17200  0.31800  Biso   1.000  O
