data_image0
_cell_length_a       6.5554
_cell_length_b       15.384
_cell_length_c       18.135
_cell_angle_alpha    90
_cell_angle_beta     90
_cell_angle_gamma    90

_symmetry_space_group_name_H-M    "P 1"
_symmetry_int_tables_number       1

loop_
  _symmetry_equiv_pos_as_xyz
  'x, y, z'

loop_
  _atom_site_label
  _atom_site_occupancy
  _atom_site_fract_x
  _atom_site_fract_y
  _atom_site_fract_z
  _atom_site_thermal_displace_type
  _atom_site_B_iso_or_equiv
  _atom_site_type_symbol
  O1       1.0000 0.68680  0.63070  0.56960  Biso   1.000  O
  O2       1.0000 0.68620  0.67470  0.58660  Biso   1.000  O
  O3       1.0000 0.18680  0.13070  0.56960  Biso   1.000  O
  O4       1.0000 0.18620  0.17470  0.58660  Biso   1.000  O
  O5       1.0000 0.31320  0.36930  0.06960  Biso   1.000  O
  O6       1.0000 0.31380  0.32530  0.08660  Biso   1.000  O
  O7       1.0000 0.81320  0.86930  0.06960  Biso   1.000  O
  O8       1.0000 0.81380  0.82530  0.08660  Biso   1.000  O
  O9       1.0000 0.31320  0.63070  0.93040  Biso   1.000  O
  O10      1.0000 0.31380  0.67470  0.91340  Biso   1.000  O
  O11      1.0000 0.81320  0.13070  0.93040  Biso   1.000  O
  O12      1.0000 0.81380  0.17470  0.91340  Biso   1.000  O
  O13      1.0000 0.68680  0.36930  0.43040  Biso   1.000  O
  O14      1.0000 0.68620  0.32530  0.41340  Biso   1.000  O
  O15      1.0000 0.18680  0.86930  0.43040  Biso   1.000  O
  O16      1.0000 0.18620  0.82530  0.41340  Biso   1.000  O
  O17      1.0000 0.31320  0.36930  0.43040  Biso   1.000  O
  O18      1.0000 0.31380  0.32530  0.41340  Biso   1.000  O
  O19      1.0000 0.81320  0.86930  0.43040  Biso   1.000  O
  O20      1.0000 0.81380  0.82530  0.41340  Biso   1.000  O
  O21      1.0000 0.68680  0.63070  0.93040  Biso   1.000  O
  O22      1.0000 0.68620  0.67470  0.91340  Biso   1.000  O
  O23      1.0000 0.18680  0.13070  0.93040  Biso   1.000  O
  O24      1.0000 0.18620  0.17470  0.91340  Biso   1.000  O
  O25      1.0000 0.68680  0.36930  0.06960  Biso   1.000  O
  O26      1.0000 0.68620  0.32530  0.08660  Biso   1.000  O
  O27      1.0000 0.18680  0.86930  0.06960  Biso   1.000  O
  O28      1.0000 0.18620  0.82530  0.08660  Biso   1.000  O
  O29      1.0000 0.31320  0.63070  0.56960  Biso   1.000  O
  O30      1.0000 0.31380  0.67470  0.58660  Biso   1.000  O
  O31      1.0000 0.81320  0.13070  0.56960  Biso   1.000  O
  O32      1.0000 0.81380  0.17470  0.58660  Biso   1.000  O
  In1      1.0000 0.50000  0.83529  0.42689  Biso   1.000  In
  P1       1.0000 0.50000  0.66410  0.54248  Biso   1.000  P
  H1       1.0000 0.50000  0.73950  0.58470  Biso   1.000  H
  O33      1.0000 0.50000  0.70950  0.46900  Biso   1.000  O
  O34      1.0000 0.50000  0.79450  0.31720  Biso   1.000  O
  O35      1.0000 0.50000  0.97850  0.40540  Biso   1.000  O
  O36      1.0000 0.50000  0.10550  0.46230  Biso   1.000  O
  C1       1.0000 0.50000  0.02390  0.46180  Biso   1.000  C
  H2       1.0000 0.50000  0.57620  0.52470  Biso   1.000  H
  In2      1.0000 0.00000  0.33529  0.42689  Biso   1.000  In
  P2       1.0000 0.00000  0.16410  0.54248  Biso   1.000  P
  H3       1.0000 0.00000  0.23950  0.58470  Biso   1.000  H
  O37      1.0000 0.00000  0.20950  0.46900  Biso   1.000  O
  O38      1.0000 0.00000  0.29450  0.31720  Biso   1.000  O
  O39      1.0000 0.00000  0.47850  0.40540  Biso   1.000  O
  O40      1.0000 0.00000  0.60550  0.46230  Biso   1.000  O
  C2       1.0000 0.00000  0.52390  0.46180  Biso   1.000  C
  H4       1.0000 0.00000  0.07620  0.52470  Biso   1.000  H
  In3      1.0000 0.50000  0.16471  0.92689  Biso   1.000  In
  P3       1.0000 0.50000  0.33590  0.04248  Biso   1.000  P
  H5       1.0000 0.50000  0.26050  0.08470  Biso   1.000  H
  O41      1.0000 0.50000  0.29050  0.96900  Biso   1.000  O
  O42      1.0000 0.50000  0.20550  0.81720  Biso   1.000  O
  O43      1.0000 0.50000  0.02150  0.90540  Biso   1.000  O
  O44      1.0000 0.50000  0.89450  0.96230  Biso   1.000  O
  C3       1.0000 0.50000  0.97610  0.96180  Biso   1.000  C
  H6       1.0000 0.50000  0.42380  0.02470  Biso   1.000  H
  In4      1.0000 0.00000  0.66471  0.92689  Biso   1.000  In
  P4       1.0000 0.00000  0.83590  0.04248  Biso   1.000  P
  H7       1.0000 0.00000  0.76050  0.08470  Biso   1.000  H
  O45      1.0000 0.00000  0.79050  0.96900  Biso   1.000  O
  O46      1.0000 0.00000  0.70550  0.81720  Biso   1.000  O
  O47      1.0000 0.00000  0.52150  0.90540  Biso   1.000  O
  O48      1.0000 0.00000  0.39450  0.96230  Biso   1.000  O
  C4       1.0000 0.00000  0.47610  0.96180  Biso   1.000  C
  H8       1.0000 0.00000  0.92380  0.02470  Biso   1.000  H
  In5      1.0000 0.50000  0.83529  0.07311  Biso   1.000  In
  P5       1.0000 0.50000  0.66410  0.95752  Biso   1.000  P
  H9       1.0000 0.50000  0.73950  0.91530  Biso   1.000  H
  O49      1.0000 0.50000  0.70950  0.03100  Biso   1.000  O
  O50      1.0000 0.50000  0.79450  0.18280  Biso   1.000  O
  O51      1.0000 0.50000  0.97850  0.09460  Biso   1.000  O
  O52      1.0000 0.50000  0.10550  0.03770  Biso   1.000  O
  C5       1.0000 0.50000  0.02390  0.03820  Biso   1.000  C
  H10      1.0000 0.50000  0.57620  0.97530  Biso   1.000  H
  In6      1.0000 0.00000  0.33529  0.07311  Biso   1.000  In
  P6       1.0000 0.00000  0.16410  0.95752  Biso   1.000  P
  H11      1.0000 0.00000  0.23950  0.91530  Biso   1.000  H
  O53      1.0000 0.00000  0.20950  0.03100  Biso   1.000  O
  O54      1.0000 0.00000  0.29450  0.18280  Biso   1.000  O
  O55      1.0000 0.00000  0.47850  0.09460  Biso   1.000  O
  O56      1.0000 0.00000  0.60550  0.03770  Biso   1.000  O
  C6       1.0000 0.00000  0.52390  0.03820  Biso   1.000  C
  H12      1.0000 0.00000  0.07620  0.97530  Biso   1.000  H
  In7      1.0000 0.50000  0.16471  0.57311  Biso   1.000  In
  P7       1.0000 0.50000  0.33590  0.45752  Biso   1.000  P
  H13      1.0000 0.50000  0.26050  0.41530  Biso   1.000  H
  O57      1.0000 0.50000  0.29050  0.53100  Biso   1.000  O
  O58      1.0000 0.50000  0.20550  0.68280  Biso   1.000  O
  O59      1.0000 0.50000  0.02150  0.59460  Biso   1.000  O
  O60      1.0000 0.50000  0.89450  0.53770  Biso   1.000  O
  C7       1.0000 0.50000  0.97610  0.53820  Biso   1.000  C
  H14      1.0000 0.50000  0.42380  0.47530  Biso   1.000  H
  In8      1.0000 0.00000  0.66471  0.57311  Biso   1.000  In
  P8       1.0000 0.00000  0.83590  0.45752  Biso   1.000  P
  H15      1.0000 0.00000  0.76050  0.41530  Biso   1.000  H
  O61      1.0000 0.00000  0.79050  0.53100  Biso   1.000  O
  O62      1.0000 0.00000  0.70550  0.68280  Biso   1.000  O
  O63      1.0000 0.00000  0.52150  0.59460  Biso   1.000  O
  O64      1.0000 0.00000  0.39450  0.53770  Biso   1.000  O
  C8       1.0000 0.00000  0.47610  0.53820  Biso   1.000  C
  H16      1.0000 0.00000  0.92380  0.47530  Biso   1.000  H
  P9       1.0000 0.60810  0.83720  0.25000  Biso   1.000  P
  H17      1.0000 0.82640  0.84750  0.25000  Biso   1.000  H
  O65      1.0000 0.57400  0.93260  0.25000  Biso   1.000  O
  P10      1.0000 0.10810  0.33720  0.25000  Biso   1.000  P
  H18      1.0000 0.32640  0.34750  0.25000  Biso   1.000  H
  O66      1.0000 0.07400  0.43260  0.25000  Biso   1.000  O
  P11      1.0000 0.39190  0.16280  0.75000  Biso   1.000  P
  H19      1.0000 0.17360  0.15250  0.75000  Biso   1.000  H
  O67      1.0000 0.42600  0.06740  0.75000  Biso   1.000  O
  P12      1.0000 0.89190  0.66280  0.75000  Biso   1.000  P
  H20      1.0000 0.67360  0.65250  0.75000  Biso   1.000  H
  O68      1.0000 0.92600  0.56740  0.75000  Biso   1.000  O
  P13      1.0000 0.39190  0.83720  0.25000  Biso   1.000  P
  H21      1.0000 0.17360  0.84750  0.25000  Biso   1.000  H
  O69      1.0000 0.42600  0.93260  0.25000  Biso   1.000  O
  P14      1.0000 0.89190  0.33720  0.25000  Biso   1.000  P
  H22      1.0000 0.67360  0.34750  0.25000  Biso   1.000  H
  O70      1.0000 0.92600  0.43260  0.25000  Biso   1.000  O
  P15      1.0000 0.60810  0.16280  0.75000  Biso   1.000  P
  H23      1.0000 0.82640  0.15250  0.75000  Biso   1.000  H
  O71      1.0000 0.57400  0.06740  0.75000  Biso   1.000  O
  P16      1.0000 0.10810  0.66280  0.75000  Biso   1.000  P
  H24      1.0000 0.32640  0.65250  0.75000  Biso   1.000  H
  O72      1.0000 0.07400  0.56740  0.75000  Biso   1.000  O
