data_image0
_cell_length_a       23.312
_cell_length_b       10.6627
_cell_length_c       13.167
_cell_angle_alpha    90
_cell_angle_beta     124.168
_cell_angle_gamma    90

_symmetry_space_group_name_H-M    "P 1"
_symmetry_int_tables_number       1

loop_
  _symmetry_equiv_pos_as_xyz
  'x, y, z'

loop_
  _atom_site_label
  _atom_site_occupancy
  _atom_site_fract_x
  _atom_site_fract_y
  _atom_site_fract_z
  _atom_site_thermal_displace_type
  _atom_site_B_iso_or_equiv
  _atom_site_type_symbol
  Ag1      1.0000 0.24296  0.42460  0.37665  Biso   1.000  Ag
  Ag2      1.0000 0.27528  0.08384  0.43201  Biso   1.000  Ag
  Ag3      1.0000 0.34463  0.24916  0.29291  Biso   1.000  Ag
  Ag4      1.0000 0.36350  0.56120  0.64090  Biso   1.000  Ag
  Ag5      1.0000 0.37280  0.55840  0.65490  Biso   1.000  Ag
  Ag6      1.0000 0.49198  0.28813  0.48415  Biso   1.000  Ag
  Ag7      1.0000 0.11266  0.54685  0.32280  Biso   1.000  Ag
  Ag8      1.0000 0.11650  0.55280  0.35230  Biso   1.000  Ag
  F1       1.0000 0.26132  0.24680  0.31610  Biso   1.000  F
  C1       1.0000 0.24580  0.68670  0.49360  Biso   1.000  C
  C2       1.0000 0.23550  0.57280  0.47700  Biso   1.000  C
  C3       1.0000 0.47310  0.27060  0.25650  Biso   1.000  C
  C4       1.0000 0.42540  0.26110  0.27040  Biso   1.000  C
  Ag9      1.0000 0.74296  0.92460  0.37665  Biso   1.000  Ag
  Ag10     1.0000 0.77528  0.58384  0.43201  Biso   1.000  Ag
  Ag11     1.0000 0.84463  0.74916  0.29291  Biso   1.000  Ag
  Ag12     1.0000 0.86350  0.06120  0.64090  Biso   1.000  Ag
  Ag13     1.0000 0.87280  0.05840  0.65490  Biso   1.000  Ag
  Ag14     1.0000 0.99198  0.78813  0.48415  Biso   1.000  Ag
  Ag15     1.0000 0.61266  0.04685  0.32280  Biso   1.000  Ag
  Ag16     1.0000 0.61650  0.05280  0.35230  Biso   1.000  Ag
  F2       1.0000 0.76132  0.74680  0.31610  Biso   1.000  F
  C5       1.0000 0.74580  0.18670  0.49360  Biso   1.000  C
  C6       1.0000 0.73550  0.07280  0.47700  Biso   1.000  C
  C7       1.0000 0.97310  0.77060  0.25650  Biso   1.000  C
  C8       1.0000 0.92540  0.76110  0.27040  Biso   1.000  C
  Ag17     1.0000 0.75704  0.42460  0.12335  Biso   1.000  Ag
  Ag18     1.0000 0.72472  0.08384  0.06799  Biso   1.000  Ag
  Ag19     1.0000 0.65537  0.24916  0.20709  Biso   1.000  Ag
  Ag20     1.0000 0.63650  0.56120  0.85910  Biso   1.000  Ag
  Ag21     1.0000 0.62720  0.55840  0.84510  Biso   1.000  Ag
  Ag22     1.0000 0.50802  0.28813  0.01585  Biso   1.000  Ag
  Ag23     1.0000 0.88734  0.54685  0.17720  Biso   1.000  Ag
  Ag24     1.0000 0.88350  0.55280  0.14770  Biso   1.000  Ag
  F3       1.0000 0.73868  0.24680  0.18390  Biso   1.000  F
  C9       1.0000 0.75420  0.68670  0.00640  Biso   1.000  C
  C10      1.0000 0.76450  0.57280  0.02300  Biso   1.000  C
  C11      1.0000 0.52690  0.27060  0.24350  Biso   1.000  C
  C12      1.0000 0.57460  0.26110  0.22960  Biso   1.000  C
  Ag25     1.0000 0.25704  0.92460  0.12335  Biso   1.000  Ag
  Ag26     1.0000 0.22472  0.58384  0.06799  Biso   1.000  Ag
  Ag27     1.0000 0.15537  0.74916  0.20709  Biso   1.000  Ag
  Ag28     1.0000 0.13650  0.06120  0.85910  Biso   1.000  Ag
  Ag29     1.0000 0.12720  0.05840  0.84510  Biso   1.000  Ag
  Ag30     1.0000 0.00802  0.78813  0.01585  Biso   1.000  Ag
  Ag31     1.0000 0.38734  0.04685  0.17720  Biso   1.000  Ag
  Ag32     1.0000 0.38350  0.05280  0.14770  Biso   1.000  Ag
  F4       1.0000 0.23868  0.74680  0.18390  Biso   1.000  F
  C13      1.0000 0.25420  0.18670  0.00640  Biso   1.000  C
  C14      1.0000 0.26450  0.07280  0.02300  Biso   1.000  C
  C15      1.0000 0.02690  0.77060  0.24350  Biso   1.000  C
  C16      1.0000 0.07460  0.76110  0.22960  Biso   1.000  C
  Ag33     1.0000 0.75704  0.57540  0.62335  Biso   1.000  Ag
  Ag34     1.0000 0.72472  0.91616  0.56799  Biso   1.000  Ag
  Ag35     1.0000 0.65537  0.75084  0.70709  Biso   1.000  Ag
  Ag36     1.0000 0.63650  0.43880  0.35910  Biso   1.000  Ag
  Ag37     1.0000 0.62720  0.44160  0.34510  Biso   1.000  Ag
  Ag38     1.0000 0.50802  0.71187  0.51585  Biso   1.000  Ag
  Ag39     1.0000 0.88734  0.45315  0.67720  Biso   1.000  Ag
  Ag40     1.0000 0.88350  0.44720  0.64770  Biso   1.000  Ag
  F5       1.0000 0.73868  0.75320  0.68390  Biso   1.000  F
  C17      1.0000 0.75420  0.31330  0.50640  Biso   1.000  C
  C18      1.0000 0.76450  0.42720  0.52300  Biso   1.000  C
  C19      1.0000 0.52690  0.72940  0.74350  Biso   1.000  C
  C20      1.0000 0.57460  0.73890  0.72960  Biso   1.000  C
  Ag41     1.0000 0.25704  0.07540  0.62335  Biso   1.000  Ag
  Ag42     1.0000 0.22472  0.41616  0.56799  Biso   1.000  Ag
  Ag43     1.0000 0.15537  0.25084  0.70709  Biso   1.000  Ag
  Ag44     1.0000 0.13650  0.93880  0.35910  Biso   1.000  Ag
  Ag45     1.0000 0.12720  0.94160  0.34510  Biso   1.000  Ag
  Ag46     1.0000 0.00802  0.21187  0.51585  Biso   1.000  Ag
  Ag47     1.0000 0.38734  0.95315  0.67720  Biso   1.000  Ag
  Ag48     1.0000 0.38350  0.94720  0.64770  Biso   1.000  Ag
  F6       1.0000 0.23868  0.25320  0.68390  Biso   1.000  F
  C21      1.0000 0.25420  0.81330  0.50640  Biso   1.000  C
  C22      1.0000 0.26450  0.92720  0.52300  Biso   1.000  C
  C23      1.0000 0.02690  0.22940  0.74350  Biso   1.000  C
  C24      1.0000 0.07460  0.23890  0.72960  Biso   1.000  C
  Ag49     1.0000 0.24296  0.57540  0.87665  Biso   1.000  Ag
  Ag50     1.0000 0.27528  0.91616  0.93201  Biso   1.000  Ag
  Ag51     1.0000 0.34463  0.75084  0.79291  Biso   1.000  Ag
  Ag52     1.0000 0.36350  0.43880  0.14090  Biso   1.000  Ag
  Ag53     1.0000 0.37280  0.44160  0.15490  Biso   1.000  Ag
  Ag54     1.0000 0.49198  0.71187  0.98415  Biso   1.000  Ag
  Ag55     1.0000 0.11266  0.45315  0.82280  Biso   1.000  Ag
  Ag56     1.0000 0.11650  0.44720  0.85230  Biso   1.000  Ag
  F7       1.0000 0.26132  0.75320  0.81610  Biso   1.000  F
  C25      1.0000 0.24580  0.31330  0.99360  Biso   1.000  C
  C26      1.0000 0.23550  0.42720  0.97700  Biso   1.000  C
  C27      1.0000 0.47310  0.72940  0.75650  Biso   1.000  C
  C28      1.0000 0.42540  0.73890  0.77040  Biso   1.000  C
  Ag57     1.0000 0.74296  0.07540  0.87665  Biso   1.000  Ag
  Ag58     1.0000 0.77528  0.41616  0.93201  Biso   1.000  Ag
  Ag59     1.0000 0.84463  0.25084  0.79291  Biso   1.000  Ag
  Ag60     1.0000 0.86350  0.93880  0.14090  Biso   1.000  Ag
  Ag61     1.0000 0.87280  0.94160  0.15490  Biso   1.000  Ag
  Ag62     1.0000 0.99198  0.21187  0.98415  Biso   1.000  Ag
  Ag63     1.0000 0.61266  0.95315  0.82280  Biso   1.000  Ag
  Ag64     1.0000 0.61650  0.94720  0.85230  Biso   1.000  Ag
  F8       1.0000 0.76132  0.25320  0.81610  Biso   1.000  F
  C29      1.0000 0.74580  0.81330  0.99360  Biso   1.000  C
  C30      1.0000 0.73550  0.92720  0.97700  Biso   1.000  C
  C31      1.0000 0.97310  0.22940  0.75650  Biso   1.000  C
  C32      1.0000 0.92540  0.23890  0.77040  Biso   1.000  C
  O1       1.0000 0.00000  0.46240  0.25000  Biso   1.000  O
  O2       1.0000 0.50000  0.96240  0.25000  Biso   1.000  O
  O3       1.0000 0.00000  0.53760  0.75000  Biso   1.000  O
  O4       1.0000 0.50000  0.03760  0.75000  Biso   1.000  O
