data_image0
_cell_length_a       23.1415
_cell_length_b       23.1415
_cell_length_c       15.1463
_cell_angle_alpha    90
_cell_angle_beta     90
_cell_angle_gamma    120

_symmetry_space_group_name_H-M    "P 1"
_symmetry_int_tables_number       1

loop_
  _symmetry_equiv_pos_as_xyz
  'x, y, z'

loop_
  _atom_site_label
  _atom_site_occupancy
  _atom_site_fract_x
  _atom_site_fract_y
  _atom_site_fract_z
  _atom_site_thermal_displace_type
  _atom_site_B_iso_or_equiv
  _atom_site_type_symbol
  Ag1      1.0000 0.04915  0.54333  0.16442  Biso   1.000  Ag
  S1       1.0000 0.17439  0.52070  0.71010  Biso   1.000  S
  C1       1.0000 0.14630  0.54330  0.80420  Biso   1.000  C
  C2       1.0000 0.13130  0.50280  0.88350  Biso   1.000  C
  C3       1.0000 0.11070  0.52600  0.96070  Biso   1.000  C
  C4       1.0000 0.11250  0.58740  0.95340  Biso   1.000  C
  H1       1.0000 0.09820  0.60260  0.00250  Biso   1.000  H
  C5       1.0000 0.13280  0.62490  0.88200  Biso   1.000  C
  C6       1.0000 0.14730  0.60210  0.80750  Biso   1.000  C
  H2       1.0000 0.15860  0.62860  0.75560  Biso   1.000  H
  S2       1.0000 0.13570  0.42990  0.88490  Biso   1.000  S
  C7       1.0000 0.21120  0.46280  0.95290  Biso   1.000  C
  H3       1.0000 0.24040  0.51140  0.94380  Biso   1.000  H
  H4       1.0000 0.19990  0.45420  0.01640  Biso   1.000  H
  C8       1.0000 0.24590  0.42240  0.91820  Biso   1.000  C
  C9       1.0000 0.31150  0.46220  0.89010  Biso   1.000  C
  H5       1.0000 0.33090  0.50930  0.88890  Biso   1.000  H
  N1       1.0000 0.34850  0.43290  0.86370  Biso   1.000  N
  C10      1.0000 0.32010  0.36390  0.86550  Biso   1.000  C
  H6       1.0000 0.34540  0.34400  0.84750  Biso   1.000  H
  C11      1.0000 0.25450  0.32420  0.89360  Biso   1.000  C
  H7       1.0000 0.23510  0.27700  0.89480  Biso   1.000  H
  C12      1.0000 0.21750  0.35340  0.91990  Biso   1.000  C
  H8       1.0000 0.17270  0.32620  0.93910  Biso   1.000  H
  C13      1.0000 0.13420  0.69580  0.88130  Biso   1.000  C
  C14      1.0000 0.08810  0.69350  0.80370  Biso   1.000  C
  H9       1.0000 0.10650  0.68920  0.74740  Biso   1.000  H
  H10      1.0000 0.08590  0.73460  0.80350  Biso   1.000  H
  H11      1.0000 0.04320  0.65510  0.81160  Biso   1.000  H
  C15      1.0000 0.21020  0.75230  0.85970  Biso   1.000  C
  H12      1.0000 0.23890  0.75670  0.90970  Biso   1.000  H
  H13      1.0000 0.21230  0.79510  0.84930  Biso   1.000  H
  H14      1.0000 0.22560  0.73950  0.80680  Biso   1.000  H
  C16      1.0000 0.09710  0.70320  0.96370  Biso   1.000  C
  H15      1.0000 0.08070  0.73380  0.94940  Biso   1.000  H
  H16      1.0000 0.12810  0.72100  0.01360  Biso   1.000  H
  H17      1.0000 0.05940  0.65940  0.97940  Biso   1.000  H
  S3       1.0000 0.09397  0.48380  0.06120  Biso   1.000  S
  C17      1.0000 0.01590  0.41030  0.04110  Biso   1.000  C
  C18      1.0000 0.95940  0.41290  0.02730  Biso   1.000  C
  C19      1.0000 0.90160  0.35110  0.99560  Biso   1.000  C
  C20      1.0000 0.90360  0.29330  0.99830  Biso   1.000  C
  H18      1.0000 0.86350  0.25320  0.98470  Biso   1.000  H
  C21      1.0000 0.95980  0.28790  0.01960  Biso   1.000  C
  C22      1.0000 0.01730  0.35220  0.04270  Biso   1.000  C
  H19      1.0000 0.05750  0.35360  0.05970  Biso   1.000  H
  S4       1.0000 0.94920  0.48190  0.05200  Biso   1.000  S
  C23      1.0000 0.88360  0.44710  0.13630  Biso   1.000  C
  H20      1.0000 0.87270  0.48220  0.15130  Biso   1.000  H
  H21      1.0000 0.84340  0.41020  0.10830  Biso   1.000  H
  C24      1.0000 0.89370  0.42220  0.21740  Biso   1.000  C
  C25      1.0000 0.91670  0.46010  0.29260  Biso   1.000  C
  H22      1.0000 0.92550  0.50480  0.29090  Biso   1.000  H
  N2       1.0000 0.92740  0.43680  0.36910  Biso   1.000  N
  C26      1.0000 0.92460  0.37340  0.37140  Biso   1.000  C
  H23      1.0000 0.93510  0.35790  0.42370  Biso   1.000  H
  C27      1.0000 0.90610  0.33540  0.29440  Biso   1.000  C
  H24      1.0000 0.90420  0.29350  0.29510  Biso   1.000  H
  C28      1.0000 0.89030  0.35590  0.21750  Biso   1.000  C
  H25      1.0000 0.87770  0.32880  0.16610  Biso   1.000  H
  C29      1.0000 0.96180  0.22330  0.02110  Biso   1.000  C
  C30      1.0000 0.03230  0.23560  0.99500  Biso   1.000  C
  H26      1.0000 0.02940  0.19300  0.98080  Biso   1.000  H
  H27      1.0000 0.06300  0.25630  0.04510  Biso   1.000  H
  H28      1.0000 0.04890  0.26530  0.94400  Biso   1.000  H
  C31      1.0000 0.91110  0.17290  0.95500  Biso   1.000  C
  H29      1.0000 0.93220  0.15230  0.92100  Biso   1.000  H
  H30      1.0000 0.89640  0.19600  0.91440  Biso   1.000  H
  H31      1.0000 0.87250  0.13820  0.98690  Biso   1.000  H
  C32      1.0000 0.94260  0.19620  0.11600  Biso   1.000  C
  H32      1.0000 0.89970  0.19230  0.13150  Biso   1.000  H
  H33      1.0000 0.97710  0.22680  0.15710  Biso   1.000  H
  H34      1.0000 0.93890  0.15210  0.11960  Biso   1.000  H
  C33      1.0000 0.94900  0.19400  0.92790  Biso   1.000  C
  H35      1.0000 0.95420  0.15500  0.92690  Biso   1.000  H
  H36      1.0000 0.98070  0.22800  0.88690  Biso   1.000  H
  H37      1.0000 0.90330  0.18170  0.91000  Biso   1.000  H
  C34      1.0000 0.03580  0.24600  0.04800  Biso   1.000  C
  H38      1.0000 0.04490  0.20960  0.03730  Biso   1.000  H
  H39      1.0000 0.04210  0.25770  0.11110  Biso   1.000  H
  H40      1.0000 0.06650  0.28510  0.01320  Biso   1.000  H
  C35      1.0000 0.91600  0.16900  0.09000  Biso   1.000  C
  H41      1.0000 0.92780  0.18810  0.14930  Biso   1.000  H
  H42      1.0000 0.92180  0.13050  0.08490  Biso   1.000  H
  H43      1.0000 0.86920  0.15590  0.07770  Biso   1.000  H
  Ag2      1.0000 0.45667  0.50582  0.83109  Biso   1.000  Ag
  S5       1.0000 0.47930  0.65369  0.37677  Biso   1.000  S
  C36      1.0000 0.45670  0.60300  0.47087  Biso   1.000  C
  C37      1.0000 0.49720  0.62850  0.55017  Biso   1.000  C
  C38      1.0000 0.47400  0.58470  0.62737  Biso   1.000  C
  C39      1.0000 0.41260  0.52510  0.62007  Biso   1.000  C
  H44      1.0000 0.39740  0.49560  0.66917  Biso   1.000  H
  C40      1.0000 0.37510  0.50790  0.54867  Biso   1.000  C
  C41      1.0000 0.39790  0.54520  0.47417  Biso   1.000  C
  H45      1.0000 0.37140  0.53000  0.42227  Biso   1.000  H
  S6       1.0000 0.57010  0.70580  0.55157  Biso   1.000  S
  C42      1.0000 0.53720  0.74840  0.61957  Biso   1.000  C
  H46      1.0000 0.48860  0.72900  0.61047  Biso   1.000  H
  H47      1.0000 0.54580  0.74570  0.68307  Biso   1.000  H
  C43      1.0000 0.57760  0.82350  0.58487  Biso   1.000  C
  C44      1.0000 0.53780  0.84930  0.55677  Biso   1.000  C
  H48      1.0000 0.49070  0.82160  0.55557  Biso   1.000  H
  N3       1.0000 0.56710  0.91560  0.53037  Biso   1.000  N
  C45      1.0000 0.63610  0.95620  0.53217  Biso   1.000  C
  H49      1.0000 0.65600  0.00140  0.51417  Biso   1.000  H
  C46      1.0000 0.67580  0.93030  0.56027  Biso   1.000  C
  H50      1.0000 0.72300  0.95810  0.56147  Biso   1.000  H
  C47      1.0000 0.64660  0.86410  0.58657  Biso   1.000  C
  H51      1.0000 0.67380  0.84650  0.60577  Biso   1.000  H
  C48      1.0000 0.30420  0.43840  0.54797  Biso   1.000  C
  C49      1.0000 0.30650  0.39460  0.47037  Biso   1.000  C
  H52      1.0000 0.31080  0.41730  0.41407  Biso   1.000  H
  H53      1.0000 0.26540  0.35130  0.47017  Biso   1.000  H
  H54      1.0000 0.34490  0.38810  0.47827  Biso   1.000  H
  C50      1.0000 0.24770  0.45790  0.52637  Biso   1.000  C
  H55      1.0000 0.24330  0.48220  0.57637  Biso   1.000  H
  H56      1.0000 0.20490  0.41720  0.51597  Biso   1.000  H
  H57      1.0000 0.26050  0.48610  0.47347  Biso   1.000  H
  C51      1.0000 0.29680  0.39390  0.63037  Biso   1.000  C
  H58      1.0000 0.26620  0.34690  0.61607  Biso   1.000  H
  H59      1.0000 0.27900  0.40710  0.68027  Biso   1.000  H
  H60      1.0000 0.34060  0.40000  0.64607  Biso   1.000  H
  S7       1.0000 0.51620  0.61017  0.72787  Biso   1.000  S
  C52      1.0000 0.58970  0.60560  0.70777  Biso   1.000  C
  C53      1.0000 0.58710  0.54650  0.69397  Biso   1.000  C
  C54      1.0000 0.64890  0.55050  0.66227  Biso   1.000  C
  C55      1.0000 0.70670  0.61030  0.66497  Biso   1.000  C
  H61      1.0000 0.74680  0.61030  0.65137  Biso   1.000  H
  C56      1.0000 0.71210  0.67190  0.68627  Biso   1.000  C
  C57      1.0000 0.64780  0.66510  0.70937  Biso   1.000  C
  H62      1.0000 0.64640  0.70390  0.72637  Biso   1.000  H
  S8       1.0000 0.51810  0.46730  0.71867  Biso   1.000  S
  C58      1.0000 0.55290  0.43650  0.80297  Biso   1.000  C
  H63      1.0000 0.51780  0.39050  0.81797  Biso   1.000  H
  H64      1.0000 0.58980  0.43320  0.77497  Biso   1.000  H
  C59      1.0000 0.57780  0.47150  0.88407  Biso   1.000  C
  C60      1.0000 0.53990  0.45660  0.95927  Biso   1.000  C
  H65      1.0000 0.49520  0.42070  0.95757  Biso   1.000  H
  N4       1.0000 0.56320  0.49060  0.03577  Biso   1.000  N
  C61      1.0000 0.62660  0.55120  0.03807  Biso   1.000  C
  H66      1.0000 0.64210  0.57720  0.09037  Biso   1.000  H
  C62      1.0000 0.66460  0.57070  0.96107  Biso   1.000  C
  H67      1.0000 0.70650  0.61070  0.96177  Biso   1.000  H
  C63      1.0000 0.64410  0.53440  0.88417  Biso   1.000  C
  H68      1.0000 0.67120  0.54890  0.83277  Biso   1.000  H
  C64      1.0000 0.77670  0.73850  0.68777  Biso   1.000  C
  C65      1.0000 0.76440  0.79670  0.66167  Biso   1.000  C
  H69      1.0000 0.80700  0.83640  0.64747  Biso   1.000  H
  H70      1.0000 0.74370  0.80670  0.71177  Biso   1.000  H
  H71      1.0000 0.73470  0.78360  0.61067  Biso   1.000  H
  C66      1.0000 0.82710  0.73820  0.62167  Biso   1.000  C
  H72      1.0000 0.84770  0.77990  0.58767  Biso   1.000  H
  H73      1.0000 0.80400  0.70040  0.58107  Biso   1.000  H
  H74      1.0000 0.86180  0.73430  0.65357  Biso   1.000  H
  C67      1.0000 0.80380  0.74640  0.78267  Biso   1.000  C
  H75      1.0000 0.80770  0.70740  0.79817  Biso   1.000  H
  H76      1.0000 0.77320  0.75030  0.82377  Biso   1.000  H
  H77      1.0000 0.84790  0.78680  0.78627  Biso   1.000  H
  C68      1.0000 0.80600  0.75500  0.59457  Biso   1.000  C
  H78      1.0000 0.84500  0.79920  0.59357  Biso   1.000  H
  H79      1.0000 0.77200  0.75270  0.55357  Biso   1.000  H
  H80      1.0000 0.81830  0.72160  0.57667  Biso   1.000  H
  C69      1.0000 0.75400  0.78980  0.71467  Biso   1.000  C
  H81      1.0000 0.79040  0.83530  0.70397  Biso   1.000  H
  H82      1.0000 0.74230  0.78440  0.77777  Biso   1.000  H
  H83      1.0000 0.71490  0.78140  0.67987  Biso   1.000  H
  C70      1.0000 0.83100  0.74700  0.75667  Biso   1.000  C
  H84      1.0000 0.81190  0.73970  0.81597  Biso   1.000  H
  H85      1.0000 0.86950  0.79130  0.75157  Biso   1.000  H
  H86      1.0000 0.84410  0.71330  0.74437  Biso   1.000  H
  Ag3      1.0000 0.49418  0.95085  0.49775  Biso   1.000  Ag
  S9       1.0000 0.34631  0.82561  0.04343  Biso   1.000  S
  C71      1.0000 0.39700  0.85370  0.13753  Biso   1.000  C
  C72      1.0000 0.37150  0.86870  0.21683  Biso   1.000  C
  C73      1.0000 0.41530  0.88930  0.29403  Biso   1.000  C
  C74      1.0000 0.47490  0.88750  0.28673  Biso   1.000  C
  H87      1.0000 0.50440  0.90180  0.33583  Biso   1.000  H
  C75      1.0000 0.49210  0.86720  0.21533  Biso   1.000  C
  C76      1.0000 0.45480  0.85270  0.14083  Biso   1.000  C
  H88      1.0000 0.47000  0.84140  0.08893  Biso   1.000  H
  S10      1.0000 0.29420  0.86430  0.21823  Biso   1.000  S
  C77      1.0000 0.25160  0.78880  0.28623  Biso   1.000  C
  H89      1.0000 0.27100  0.75960  0.27713  Biso   1.000  H
  H90      1.0000 0.25430  0.80010  0.34973  Biso   1.000  H
  C78      1.0000 0.17650  0.75410  0.25153  Biso   1.000  C
  C79      1.0000 0.15070  0.68850  0.22343  Biso   1.000  C
  H91      1.0000 0.17840  0.66910  0.22223  Biso   1.000  H
  N5       1.0000 0.08440  0.65150  0.19703  Biso   1.000  N
  C80      1.0000 0.04380  0.67990  0.19883  Biso   1.000  C
  H92      1.0000 0.99860  0.65460  0.18083  Biso   1.000  H
  C81      1.0000 0.06970  0.74550  0.22693  Biso   1.000  C
  H93      1.0000 0.04190  0.76490  0.22813  Biso   1.000  H
  C82      1.0000 0.13590  0.78250  0.25323  Biso   1.000  C
  H94      1.0000 0.15350  0.82730  0.27243  Biso   1.000  H
  C83      1.0000 0.56160  0.86580  0.21463  Biso   1.000  C
  C84      1.0000 0.60540  0.91190  0.13703  Biso   1.000  C
  H95      1.0000 0.58270  0.89350  0.08073  Biso   1.000  H
  H96      1.0000 0.64870  0.91410  0.13683  Biso   1.000  H
  H97      1.0000 0.61190  0.95680  0.14493  Biso   1.000  H
  C85      1.0000 0.54210  0.78980  0.19303  Biso   1.000  C
  H98      1.0000 0.51780  0.76110  0.24303  Biso   1.000  H
  H99      1.0000 0.58280  0.78770  0.18263  Biso   1.000  H
  H100     1.0000 0.51390  0.77440  0.14013  Biso   1.000  H
  C86      1.0000 0.60610  0.90290  0.29703  Biso   1.000  C
  H101     1.0000 0.65310  0.91930  0.28273  Biso   1.000  H
  H102     1.0000 0.59290  0.87190  0.34693  Biso   1.000  H
  H103     1.0000 0.60000  0.94060  0.31273  Biso   1.000  H
  S11      1.0000 0.38983  0.90603  0.39453  Biso   1.000  S
  C87      1.0000 0.39440  0.98410  0.37443  Biso   1.000  C
  C88      1.0000 0.45350  0.04060  0.36063  Biso   1.000  C
  C89      1.0000 0.44950  0.09840  0.32893  Biso   1.000  C
  C90      1.0000 0.38970  0.09640  0.33163  Biso   1.000  C
  H104     1.0000 0.38970  0.13650  0.31803  Biso   1.000  H
  C91      1.0000 0.32810  0.04020  0.35293  Biso   1.000  C
  C92      1.0000 0.33490  0.98270  0.37603  Biso   1.000  C
  H105     1.0000 0.29610  0.94250  0.39303  Biso   1.000  H
  S12      1.0000 0.53270  0.05080  0.38533  Biso   1.000  S
  C93      1.0000 0.56350  0.11640  0.46963  Biso   1.000  C
  H106     1.0000 0.60950  0.12730  0.48463  Biso   1.000  H
  H107     1.0000 0.56680  0.15660  0.44163  Biso   1.000  H
  C94      1.0000 0.52850  0.10630  0.55073  Biso   1.000  C
  C95      1.0000 0.54340  0.08330  0.62593  Biso   1.000  C
  H108     1.0000 0.57930  0.07450  0.62423  Biso   1.000  H
  N6       1.0000 0.50940  0.07260  0.70243  Biso   1.000  N
  C96      1.0000 0.44880  0.07540  0.70473  Biso   1.000  C
  H109     1.0000 0.42280  0.06490  0.75703  Biso   1.000  H
  C97      1.0000 0.42930  0.09390  0.62773  Biso   1.000  C
  H110     1.0000 0.38930  0.09580  0.62843  Biso   1.000  H
  C98      1.0000 0.46560  0.10970  0.55083  Biso   1.000  C
  H111     1.0000 0.45110  0.12230  0.49943  Biso   1.000  H
  C99      1.0000 0.26150  0.03820  0.35443  Biso   1.000  C
  C100     1.0000 0.20330  0.96770  0.32833  Biso   1.000  C
  H112     1.0000 0.16360  0.97060  0.31413  Biso   1.000  H
  H113     1.0000 0.19330  0.93700  0.37843  Biso   1.000  H
  H114     1.0000 0.21640  0.95110  0.27733  Biso   1.000  H
  C101     1.0000 0.26180  0.08890  0.28833  Biso   1.000  C
  H115     1.0000 0.22010  0.06780  0.25433  Biso   1.000  H
  H116     1.0000 0.29960  0.10360  0.24773  Biso   1.000  H
  H117     1.0000 0.26570  0.12750  0.32023  Biso   1.000  H
  C102     1.0000 0.25360  0.05740  0.44933  Biso   1.000  C
  H118     1.0000 0.29260  0.10030  0.46483  Biso   1.000  H
  H119     1.0000 0.24970  0.02290  0.49043  Biso   1.000  H
  H120     1.0000 0.21320  0.06110  0.45293  Biso   1.000  H
  C103     1.0000 0.24500  0.05100  0.26123  Biso   1.000  C
  H121     1.0000 0.20080  0.04580  0.26023  Biso   1.000  H
  H122     1.0000 0.24730  0.01930  0.22023  Biso   1.000  H
  H123     1.0000 0.27840  0.09670  0.24333  Biso   1.000  H
  C104     1.0000 0.21020  0.96420  0.38133  Biso   1.000  C
  H124     1.0000 0.16470  0.95510  0.37063  Biso   1.000  H
  H125     1.0000 0.21560  0.95790  0.44443  Biso   1.000  H
  H126     1.0000 0.21860  0.93350  0.34653  Biso   1.000  H
  C105     1.0000 0.25300  0.08400  0.42333  Biso   1.000  C
  H127     1.0000 0.26030  0.07220  0.48263  Biso   1.000  H
  H128     1.0000 0.20870  0.07820  0.41823  Biso   1.000  H
  H129     1.0000 0.28670  0.13080  0.41103  Biso   1.000  H
  Ag4      1.0000 0.54333  0.04915  0.83558  Biso   1.000  Ag
  S13      1.0000 0.52070  0.17439  0.28990  Biso   1.000  S
  C106     1.0000 0.54330  0.14630  0.19580  Biso   1.000  C
  C107     1.0000 0.50280  0.13130  0.11650  Biso   1.000  C
  C108     1.0000 0.52600  0.11070  0.03930  Biso   1.000  C
  C109     1.0000 0.58740  0.11250  0.04660  Biso   1.000  C
  H130     1.0000 0.60260  0.09820  0.99750  Biso   1.000  H
  C110     1.0000 0.62490  0.13280  0.11800  Biso   1.000  C
  C111     1.0000 0.60210  0.14730  0.19250  Biso   1.000  C
  H131     1.0000 0.62860  0.15860  0.24440  Biso   1.000  H
  S14      1.0000 0.42990  0.13570  0.11510  Biso   1.000  S
  C112     1.0000 0.46280  0.21120  0.04710  Biso   1.000  C
  H132     1.0000 0.51140  0.24040  0.05620  Biso   1.000  H
  H133     1.0000 0.45420  0.19990  0.98360  Biso   1.000  H
  C113     1.0000 0.42240  0.24590  0.08180  Biso   1.000  C
  C114     1.0000 0.46220  0.31150  0.10990  Biso   1.000  C
  H134     1.0000 0.50930  0.33090  0.11110  Biso   1.000  H
  N7       1.0000 0.43290  0.34850  0.13630  Biso   1.000  N
  C115     1.0000 0.36390  0.32010  0.13450  Biso   1.000  C
  H135     1.0000 0.34400  0.34540  0.15250  Biso   1.000  H
  C116     1.0000 0.32420  0.25450  0.10640  Biso   1.000  C
  H136     1.0000 0.27700  0.23510  0.10520  Biso   1.000  H
  C117     1.0000 0.35340  0.21750  0.08010  Biso   1.000  C
  H137     1.0000 0.32620  0.17270  0.06090  Biso   1.000  H
  C118     1.0000 0.69580  0.13420  0.11870  Biso   1.000  C
  C119     1.0000 0.69350  0.08810  0.19630  Biso   1.000  C
  H138     1.0000 0.68920  0.10650  0.25260  Biso   1.000  H
  H139     1.0000 0.73460  0.08590  0.19650  Biso   1.000  H
  H140     1.0000 0.65510  0.04320  0.18840  Biso   1.000  H
  C120     1.0000 0.75230  0.21020  0.14030  Biso   1.000  C
  H141     1.0000 0.75670  0.23890  0.09030  Biso   1.000  H
  H142     1.0000 0.79510  0.21230  0.15070  Biso   1.000  H
  H143     1.0000 0.73950  0.22560  0.19320  Biso   1.000  H
  C121     1.0000 0.70320  0.09710  0.03630  Biso   1.000  C
  H144     1.0000 0.73380  0.08070  0.05060  Biso   1.000  H
  H145     1.0000 0.72100  0.12810  0.98640  Biso   1.000  H
  H146     1.0000 0.65940  0.05940  0.02060  Biso   1.000  H
  S15      1.0000 0.48380  0.09397  0.93880  Biso   1.000  S
  C122     1.0000 0.41030  0.01590  0.95890  Biso   1.000  C
  C123     1.0000 0.41290  0.95940  0.97270  Biso   1.000  C
  C124     1.0000 0.35110  0.90160  0.00440  Biso   1.000  C
  C125     1.0000 0.29330  0.90360  0.00170  Biso   1.000  C
  H147     1.0000 0.25320  0.86350  0.01530  Biso   1.000  H
  C126     1.0000 0.28790  0.95980  0.98040  Biso   1.000  C
  C127     1.0000 0.35220  0.01730  0.95730  Biso   1.000  C
  H148     1.0000 0.35360  0.05750  0.94030  Biso   1.000  H
  S16      1.0000 0.48190  0.94920  0.94800  Biso   1.000  S
  C128     1.0000 0.44710  0.88360  0.86370  Biso   1.000  C
  H149     1.0000 0.48220  0.87270  0.84870  Biso   1.000  H
  H150     1.0000 0.41020  0.84340  0.89170  Biso   1.000  H
  C129     1.0000 0.42220  0.89370  0.78260  Biso   1.000  C
  C130     1.0000 0.46010  0.91670  0.70740  Biso   1.000  C
  H151     1.0000 0.50480  0.92550  0.70910  Biso   1.000  H
  N8       1.0000 0.43680  0.92740  0.63090  Biso   1.000  N
  C131     1.0000 0.37340  0.92460  0.62860  Biso   1.000  C
  H152     1.0000 0.35790  0.93510  0.57630  Biso   1.000  H
  C132     1.0000 0.33540  0.90610  0.70560  Biso   1.000  C
  H153     1.0000 0.29350  0.90420  0.70490  Biso   1.000  H
  C133     1.0000 0.35590  0.89030  0.78250  Biso   1.000  C
  H154     1.0000 0.32880  0.87770  0.83390  Biso   1.000  H
  C134     1.0000 0.22330  0.96180  0.97890  Biso   1.000  C
  C135     1.0000 0.23560  0.03230  0.00500  Biso   1.000  C
  H155     1.0000 0.19300  0.02940  0.01920  Biso   1.000  H
  H156     1.0000 0.25630  0.06300  0.95490  Biso   1.000  H
  H157     1.0000 0.26530  0.04890  0.05600  Biso   1.000  H
  C136     1.0000 0.17290  0.91110  0.04500  Biso   1.000  C
  H158     1.0000 0.15230  0.93220  0.07900  Biso   1.000  H
  H159     1.0000 0.19600  0.89640  0.08560  Biso   1.000  H
  H160     1.0000 0.13820  0.87250  0.01310  Biso   1.000  H
  C137     1.0000 0.19620  0.94260  0.88400  Biso   1.000  C
  H161     1.0000 0.19230  0.89970  0.86850  Biso   1.000  H
  H162     1.0000 0.22680  0.97710  0.84290  Biso   1.000  H
  H163     1.0000 0.15210  0.93890  0.88040  Biso   1.000  H
  C138     1.0000 0.19400  0.94900  0.07210  Biso   1.000  C
  H164     1.0000 0.15500  0.95420  0.07310  Biso   1.000  H
  H165     1.0000 0.22800  0.98070  0.11310  Biso   1.000  H
  H166     1.0000 0.18170  0.90330  0.09000  Biso   1.000  H
  C139     1.0000 0.24600  0.03580  0.95200  Biso   1.000  C
  H167     1.0000 0.20960  0.04490  0.96270  Biso   1.000  H
  H168     1.0000 0.25770  0.04210  0.88890  Biso   1.000  H
  H169     1.0000 0.28510  0.06650  0.98680  Biso   1.000  H
  C140     1.0000 0.16900  0.91600  0.91000  Biso   1.000  C
  H170     1.0000 0.18810  0.92780  0.85070  Biso   1.000  H
  H171     1.0000 0.13050  0.92180  0.91510  Biso   1.000  H
  H172     1.0000 0.15590  0.86920  0.92230  Biso   1.000  H
  Ag5      1.0000 0.50582  0.45667  0.16891  Biso   1.000  Ag
  S17      1.0000 0.65369  0.47930  0.62323  Biso   1.000  S
  C141     1.0000 0.60300  0.45670  0.52913  Biso   1.000  C
  C142     1.0000 0.62850  0.49720  0.44983  Biso   1.000  C
  C143     1.0000 0.58470  0.47400  0.37263  Biso   1.000  C
  C144     1.0000 0.52510  0.41260  0.37993  Biso   1.000  C
  H173     1.0000 0.49560  0.39740  0.33083  Biso   1.000  H
  C145     1.0000 0.50790  0.37510  0.45133  Biso   1.000  C
  C146     1.0000 0.54520  0.39790  0.52583  Biso   1.000  C
  H174     1.0000 0.53000  0.37140  0.57773  Biso   1.000  H
  S18      1.0000 0.70580  0.57010  0.44843  Biso   1.000  S
  C147     1.0000 0.74840  0.53720  0.38043  Biso   1.000  C
  H175     1.0000 0.72900  0.48860  0.38953  Biso   1.000  H
  H176     1.0000 0.74570  0.54580  0.31693  Biso   1.000  H
  C148     1.0000 0.82350  0.57760  0.41513  Biso   1.000  C
  C149     1.0000 0.84930  0.53780  0.44323  Biso   1.000  C
  H177     1.0000 0.82160  0.49070  0.44443  Biso   1.000  H
  N9       1.0000 0.91560  0.56710  0.46963  Biso   1.000  N
  C150     1.0000 0.95620  0.63610  0.46783  Biso   1.000  C
  H178     1.0000 0.00140  0.65600  0.48583  Biso   1.000  H
  C151     1.0000 0.93030  0.67580  0.43973  Biso   1.000  C
  H179     1.0000 0.95810  0.72300  0.43853  Biso   1.000  H
  C152     1.0000 0.86410  0.64660  0.41343  Biso   1.000  C
  H180     1.0000 0.84650  0.67380  0.39423  Biso   1.000  H
  C153     1.0000 0.43840  0.30420  0.45203  Biso   1.000  C
  C154     1.0000 0.39460  0.30650  0.52963  Biso   1.000  C
  H181     1.0000 0.41730  0.31080  0.58593  Biso   1.000  H
  H182     1.0000 0.35130  0.26540  0.52983  Biso   1.000  H
  H183     1.0000 0.38810  0.34490  0.52173  Biso   1.000  H
  C155     1.0000 0.45790  0.24770  0.47363  Biso   1.000  C
  H184     1.0000 0.48220  0.24330  0.42363  Biso   1.000  H
  H185     1.0000 0.41720  0.20490  0.48403  Biso   1.000  H
  H186     1.0000 0.48610  0.26050  0.52653  Biso   1.000  H
  C156     1.0000 0.39390  0.29680  0.36963  Biso   1.000  C
  H187     1.0000 0.34690  0.26620  0.38393  Biso   1.000  H
  H188     1.0000 0.40710  0.27900  0.31973  Biso   1.000  H
  H189     1.0000 0.40000  0.34060  0.35393  Biso   1.000  H
  S19      1.0000 0.61017  0.51620  0.27213  Biso   1.000  S
  C157     1.0000 0.60560  0.58970  0.29223  Biso   1.000  C
  C158     1.0000 0.54650  0.58710  0.30603  Biso   1.000  C
  C159     1.0000 0.55050  0.64890  0.33773  Biso   1.000  C
  C160     1.0000 0.61030  0.70670  0.33503  Biso   1.000  C
  H190     1.0000 0.61030  0.74680  0.34863  Biso   1.000  H
  C161     1.0000 0.67190  0.71210  0.31373  Biso   1.000  C
  C162     1.0000 0.66510  0.64780  0.29063  Biso   1.000  C
  H191     1.0000 0.70390  0.64640  0.27363  Biso   1.000  H
  S20      1.0000 0.46730  0.51810  0.28133  Biso   1.000  S
  C163     1.0000 0.43650  0.55290  0.19703  Biso   1.000  C
  H192     1.0000 0.39050  0.51780  0.18203  Biso   1.000  H
  H193     1.0000 0.43320  0.58980  0.22503  Biso   1.000  H
  C164     1.0000 0.47150  0.57780  0.11593  Biso   1.000  C
  C165     1.0000 0.45660  0.53990  0.04073  Biso   1.000  C
  H194     1.0000 0.42070  0.49520  0.04243  Biso   1.000  H
  N10      1.0000 0.49060  0.56320  0.96423  Biso   1.000  N
  C166     1.0000 0.55120  0.62660  0.96193  Biso   1.000  C
  H195     1.0000 0.57720  0.64210  0.90963  Biso   1.000  H
  C167     1.0000 0.57070  0.66460  0.03893  Biso   1.000  C
  H196     1.0000 0.61070  0.70650  0.03823  Biso   1.000  H
  C168     1.0000 0.53440  0.64410  0.11583  Biso   1.000  C
  H197     1.0000 0.54890  0.67120  0.16723  Biso   1.000  H
  C169     1.0000 0.73850  0.77670  0.31223  Biso   1.000  C
  C170     1.0000 0.79670  0.76440  0.33833  Biso   1.000  C
  H198     1.0000 0.83640  0.80700  0.35253  Biso   1.000  H
  H199     1.0000 0.80670  0.74370  0.28823  Biso   1.000  H
  H200     1.0000 0.78360  0.73470  0.38933  Biso   1.000  H
  C171     1.0000 0.73820  0.82710  0.37833  Biso   1.000  C
  H201     1.0000 0.77990  0.84770  0.41233  Biso   1.000  H
  H202     1.0000 0.70040  0.80400  0.41893  Biso   1.000  H
  H203     1.0000 0.73430  0.86180  0.34643  Biso   1.000  H
  C172     1.0000 0.74640  0.80380  0.21733  Biso   1.000  C
  H204     1.0000 0.70740  0.80770  0.20183  Biso   1.000  H
  H205     1.0000 0.75030  0.77320  0.17623  Biso   1.000  H
  H206     1.0000 0.78680  0.84790  0.21373  Biso   1.000  H
  C173     1.0000 0.75500  0.80600  0.40543  Biso   1.000  C
  H207     1.0000 0.79920  0.84500  0.40643  Biso   1.000  H
  H208     1.0000 0.75270  0.77200  0.44643  Biso   1.000  H
  H209     1.0000 0.72160  0.81830  0.42333  Biso   1.000  H
  C174     1.0000 0.78980  0.75400  0.28533  Biso   1.000  C
  H210     1.0000 0.83530  0.79040  0.29603  Biso   1.000  H
  H211     1.0000 0.78440  0.74230  0.22223  Biso   1.000  H
  H212     1.0000 0.78140  0.71490  0.32013  Biso   1.000  H
  C175     1.0000 0.74700  0.83100  0.24333  Biso   1.000  C
  H213     1.0000 0.73970  0.81190  0.18403  Biso   1.000  H
  H214     1.0000 0.79130  0.86950  0.24843  Biso   1.000  H
  H215     1.0000 0.71330  0.84410  0.25563  Biso   1.000  H
  Ag6      1.0000 0.95085  0.49418  0.50225  Biso   1.000  Ag
  S21      1.0000 0.82561  0.34631  0.95657  Biso   1.000  S
  C176     1.0000 0.85370  0.39700  0.86247  Biso   1.000  C
  C177     1.0000 0.86870  0.37150  0.78317  Biso   1.000  C
  C178     1.0000 0.88930  0.41530  0.70597  Biso   1.000  C
  C179     1.0000 0.88750  0.47490  0.71327  Biso   1.000  C
  H216     1.0000 0.90180  0.50440  0.66417  Biso   1.000  H
  C180     1.0000 0.86720  0.49210  0.78467  Biso   1.000  C
  C181     1.0000 0.85270  0.45480  0.85917  Biso   1.000  C
  H217     1.0000 0.84140  0.47000  0.91107  Biso   1.000  H
  S22      1.0000 0.86430  0.29420  0.78177  Biso   1.000  S
  C182     1.0000 0.78880  0.25160  0.71377  Biso   1.000  C
  H218     1.0000 0.75960  0.27100  0.72287  Biso   1.000  H
  H219     1.0000 0.80010  0.25430  0.65027  Biso   1.000  H
  C183     1.0000 0.75410  0.17650  0.74847  Biso   1.000  C
  C184     1.0000 0.68850  0.15070  0.77657  Biso   1.000  C
  H220     1.0000 0.66910  0.17840  0.77777  Biso   1.000  H
  N11      1.0000 0.65150  0.08440  0.80297  Biso   1.000  N
  C185     1.0000 0.67990  0.04380  0.80117  Biso   1.000  C
  H221     1.0000 0.65460  0.99860  0.81917  Biso   1.000  H
  C186     1.0000 0.74550  0.06970  0.77307  Biso   1.000  C
  H222     1.0000 0.76490  0.04190  0.77187  Biso   1.000  H
  C187     1.0000 0.78250  0.13590  0.74677  Biso   1.000  C
  H223     1.0000 0.82730  0.15350  0.72757  Biso   1.000  H
  C188     1.0000 0.86580  0.56160  0.78537  Biso   1.000  C
  C189     1.0000 0.91190  0.60540  0.86297  Biso   1.000  C
  H224     1.0000 0.89350  0.58270  0.91927  Biso   1.000  H
  H225     1.0000 0.91410  0.64870  0.86317  Biso   1.000  H
  H226     1.0000 0.95680  0.61190  0.85507  Biso   1.000  H
  C190     1.0000 0.78980  0.54210  0.80697  Biso   1.000  C
  H227     1.0000 0.76110  0.51780  0.75697  Biso   1.000  H
  H228     1.0000 0.78770  0.58280  0.81737  Biso   1.000  H
  H229     1.0000 0.77440  0.51390  0.85987  Biso   1.000  H
  C191     1.0000 0.90290  0.60610  0.70297  Biso   1.000  C
  H230     1.0000 0.91930  0.65310  0.71727  Biso   1.000  H
  H231     1.0000 0.87190  0.59290  0.65307  Biso   1.000  H
  H232     1.0000 0.94060  0.60000  0.68727  Biso   1.000  H
  S23      1.0000 0.90603  0.38983  0.60547  Biso   1.000  S
  C192     1.0000 0.98410  0.39440  0.62557  Biso   1.000  C
  C193     1.0000 0.04060  0.45350  0.63937  Biso   1.000  C
  C194     1.0000 0.09840  0.44950  0.67107  Biso   1.000  C
  C195     1.0000 0.09640  0.38970  0.66837  Biso   1.000  C
  H233     1.0000 0.13650  0.38970  0.68197  Biso   1.000  H
  C196     1.0000 0.04020  0.32810  0.64707  Biso   1.000  C
  C197     1.0000 0.98270  0.33490  0.62397  Biso   1.000  C
  H234     1.0000 0.94250  0.29610  0.60697  Biso   1.000  H
  S24      1.0000 0.05080  0.53270  0.61467  Biso   1.000  S
  C198     1.0000 0.11640  0.56350  0.53037  Biso   1.000  C
  H235     1.0000 0.12730  0.60950  0.51537  Biso   1.000  H
  H236     1.0000 0.15660  0.56680  0.55837  Biso   1.000  H
  C199     1.0000 0.10630  0.52850  0.44927  Biso   1.000  C
  C200     1.0000 0.08330  0.54340  0.37407  Biso   1.000  C
  H237     1.0000 0.07450  0.57930  0.37577  Biso   1.000  H
  N12      1.0000 0.07260  0.50940  0.29757  Biso   1.000  N
  C201     1.0000 0.07540  0.44880  0.29527  Biso   1.000  C
  H238     1.0000 0.06490  0.42280  0.24297  Biso   1.000  H
  C202     1.0000 0.09390  0.42930  0.37227  Biso   1.000  C
  H239     1.0000 0.09580  0.38930  0.37157  Biso   1.000  H
  C203     1.0000 0.10970  0.46560  0.44917  Biso   1.000  C
  H240     1.0000 0.12230  0.45110  0.50057  Biso   1.000  H
  C204     1.0000 0.03820  0.26150  0.64557  Biso   1.000  C
  C205     1.0000 0.96770  0.20330  0.67167  Biso   1.000  C
  H241     1.0000 0.97060  0.16360  0.68587  Biso   1.000  H
  H242     1.0000 0.93700  0.19330  0.62157  Biso   1.000  H
  H243     1.0000 0.95110  0.21640  0.72267  Biso   1.000  H
  C206     1.0000 0.08890  0.26180  0.71167  Biso   1.000  C
  H244     1.0000 0.06780  0.22010  0.74567  Biso   1.000  H
  H245     1.0000 0.10360  0.29960  0.75227  Biso   1.000  H
  H246     1.0000 0.12750  0.26570  0.67977  Biso   1.000  H
  C207     1.0000 0.05740  0.25360  0.55067  Biso   1.000  C
  H247     1.0000 0.10030  0.29260  0.53517  Biso   1.000  H
  H248     1.0000 0.02290  0.24970  0.50957  Biso   1.000  H
  H249     1.0000 0.06110  0.21320  0.54707  Biso   1.000  H
  C208     1.0000 0.05100  0.24500  0.73877  Biso   1.000  C
  H250     1.0000 0.04580  0.20080  0.73977  Biso   1.000  H
  H251     1.0000 0.01930  0.24730  0.77977  Biso   1.000  H
  H252     1.0000 0.09670  0.27840  0.75667  Biso   1.000  H
  C209     1.0000 0.96420  0.21020  0.61867  Biso   1.000  C
  H253     1.0000 0.95510  0.16470  0.62937  Biso   1.000  H
  H254     1.0000 0.95790  0.21560  0.55557  Biso   1.000  H
  H255     1.0000 0.93350  0.21860  0.65347  Biso   1.000  H
  C210     1.0000 0.08400  0.25300  0.57667  Biso   1.000  C
  H256     1.0000 0.07220  0.26030  0.51737  Biso   1.000  H
  H257     1.0000 0.07820  0.20870  0.58177  Biso   1.000  H
  H258     1.0000 0.13080  0.28670  0.58897  Biso   1.000  H
