data_image0
_cell_length_a       13.4003
_cell_length_b       13.4003
_cell_length_c       24.3669
_cell_angle_alpha    90
_cell_angle_beta     90
_cell_angle_gamma    90

_symmetry_space_group_name_H-M    "P 1"
_symmetry_int_tables_number       1

loop_
  _symmetry_equiv_pos_as_xyz
  'x, y, z'

loop_
  _atom_site_label
  _atom_site_occupancy
  _atom_site_fract_x
  _atom_site_fract_y
  _atom_site_fract_z
  _atom_site_thermal_displace_type
  _atom_site_B_iso_or_equiv
  _atom_site_type_symbol
  Cd1      1.0000 0.88472  0.42743  0.15551  Biso   1.000  Cd
  O1       1.0000 0.72530  0.42210  0.20310  Biso   1.000  O
  O2       1.0000 0.86550  0.40420  0.25000  Biso   1.000  O
  O3       1.0000 0.69250  0.08080  0.38540  Biso   1.000  O
  O4       1.0000 0.55840  0.08690  0.33240  Biso   1.000  O
  O5       1.0000 0.84390  0.27320  0.12380  Biso   1.000  O
  O6       1.0000 0.92060  0.36840  0.06570  Biso   1.000  O
  C1       1.0000 0.71550  0.37620  0.29750  Biso   1.000  C
  C2       1.0000 0.66900  0.27400  0.29350  Biso   1.000  C
  C3       1.0000 0.63880  0.24460  0.35080  Biso   1.000  C
  H1       1.0000 0.57240  0.27240  0.35800  Biso   1.000  H
  C4       1.0000 0.71130  0.29350  0.38920  Biso   1.000  C
  H2       1.0000 0.75390  0.24480  0.40700  Biso   1.000  H
  H3       1.0000 0.67710  0.33260  0.41700  Biso   1.000  H
  C5       1.0000 0.77050  0.36000  0.35010  Biso   1.000  C
  H4       1.0000 0.78300  0.42390  0.36750  Biso   1.000  H
  H5       1.0000 0.83440  0.32910  0.34240  Biso   1.000  H
  C6       1.0000 0.62520  0.44190  0.30050  Biso   1.000  C
  H6       1.0000 0.64570  0.51040  0.30280  Biso   1.000  H
  H7       1.0000 0.58680  0.42490  0.33250  Biso   1.000  H
  H8       1.0000 0.58510  0.43230  0.26830  Biso   1.000  H
  C7       1.0000 0.58060  0.25900  0.25610  Biso   1.000  C
  H9       1.0000 0.60140  0.26640  0.21860  Biso   1.000  H
  H10      1.0000 0.53040  0.30800  0.26440  Biso   1.000  H
  H11      1.0000 0.55380  0.19340  0.26150  Biso   1.000  H
  C8       1.0000 0.73330  0.19670  0.26740  Biso   1.000  C
  H12      1.0000 0.75270  0.21870  0.23140  Biso   1.000  H
  H13      1.0000 0.69680  0.13530  0.26450  Biso   1.000  H
  H14      1.0000 0.79170  0.18630  0.28940  Biso   1.000  H
  C9       1.0000 0.76950  0.40380  0.24650  Biso   1.000  C
  C10      1.0000 0.63380  0.13050  0.36000  Biso   1.000  C
  C11      1.0000 0.88930  0.19750  0.03560  Biso   1.000  C
  C12      1.0000 0.89400  0.09480  0.06260  Biso   1.000  C
  C13      1.0000 0.88710  0.28910  0.07810  Biso   1.000  C
  C14      1.0000 0.78250  0.17740  0.01580  Biso   1.000  C
  C15      1.0000 0.95520  0.21900  0.98560  Biso   1.000  C
  C16      1.0000 0.72500  0.11400  0.05700  Biso   1.000  C
  Cd2      1.0000 0.11528  0.57257  0.15551  Biso   1.000  Cd
  O7       1.0000 0.27470  0.57790  0.20310  Biso   1.000  O
  O8       1.0000 0.13450  0.59580  0.25000  Biso   1.000  O
  O9       1.0000 0.30750  0.91920  0.38540  Biso   1.000  O
  O10      1.0000 0.44160  0.91310  0.33240  Biso   1.000  O
  O11      1.0000 0.15610  0.72680  0.12380  Biso   1.000  O
  O12      1.0000 0.07940  0.63160  0.06570  Biso   1.000  O
  C17      1.0000 0.28450  0.62380  0.29750  Biso   1.000  C
  C18      1.0000 0.33100  0.72600  0.29350  Biso   1.000  C
  C19      1.0000 0.36120  0.75540  0.35080  Biso   1.000  C
  H15      1.0000 0.42760  0.72760  0.35800  Biso   1.000  H
  C20      1.0000 0.28870  0.70650  0.38920  Biso   1.000  C
  H16      1.0000 0.24610  0.75520  0.40700  Biso   1.000  H
  H17      1.0000 0.32290  0.66740  0.41700  Biso   1.000  H
  C21      1.0000 0.22950  0.64000  0.35010  Biso   1.000  C
  H18      1.0000 0.21700  0.57610  0.36750  Biso   1.000  H
  H19      1.0000 0.16560  0.67090  0.34240  Biso   1.000  H
  C22      1.0000 0.37480  0.55810  0.30050  Biso   1.000  C
  H20      1.0000 0.35430  0.48960  0.30280  Biso   1.000  H
  H21      1.0000 0.41320  0.57510  0.33250  Biso   1.000  H
  H22      1.0000 0.41490  0.56770  0.26830  Biso   1.000  H
  C23      1.0000 0.41940  0.74100  0.25610  Biso   1.000  C
  H23      1.0000 0.39860  0.73360  0.21860  Biso   1.000  H
  H24      1.0000 0.46960  0.69200  0.26440  Biso   1.000  H
  H25      1.0000 0.44620  0.80660  0.26150  Biso   1.000  H
  C24      1.0000 0.26670  0.80330  0.26740  Biso   1.000  C
  H26      1.0000 0.24730  0.78130  0.23140  Biso   1.000  H
  H27      1.0000 0.30320  0.86470  0.26450  Biso   1.000  H
  H28      1.0000 0.20830  0.81370  0.28940  Biso   1.000  H
  C25      1.0000 0.23050  0.59620  0.24650  Biso   1.000  C
  C26      1.0000 0.36620  0.86950  0.36000  Biso   1.000  C
  C27      1.0000 0.11070  0.80250  0.03560  Biso   1.000  C
  C28      1.0000 0.10600  0.90520  0.06260  Biso   1.000  C
  C29      1.0000 0.11290  0.71090  0.07810  Biso   1.000  C
  C30      1.0000 0.21750  0.82260  0.01580  Biso   1.000  C
  C31      1.0000 0.04480  0.78100  0.98560  Biso   1.000  C
  C32      1.0000 0.27500  0.88600  0.05700  Biso   1.000  C
  Cd3      1.0000 0.07257  0.38472  0.65551  Biso   1.000  Cd
  O13      1.0000 0.07790  0.22530  0.70310  Biso   1.000  O
  O14      1.0000 0.09580  0.36550  0.75000  Biso   1.000  O
  O15      1.0000 0.41920  0.19250  0.88540  Biso   1.000  O
  O16      1.0000 0.41310  0.05840  0.83240  Biso   1.000  O
  O17      1.0000 0.22680  0.34390  0.62380  Biso   1.000  O
  O18      1.0000 0.13160  0.42060  0.56570  Biso   1.000  O
  C33      1.0000 0.12380  0.21550  0.79750  Biso   1.000  C
  C34      1.0000 0.22600  0.16900  0.79350  Biso   1.000  C
  C35      1.0000 0.25540  0.13880  0.85080  Biso   1.000  C
  H29      1.0000 0.22760  0.07240  0.85800  Biso   1.000  H
  C36      1.0000 0.20650  0.21130  0.88920  Biso   1.000  C
  H30      1.0000 0.25520  0.25390  0.90700  Biso   1.000  H
  H31      1.0000 0.16740  0.17710  0.91700  Biso   1.000  H
  C37      1.0000 0.14000  0.27050  0.85010  Biso   1.000  C
  H32      1.0000 0.07610  0.28300  0.86750  Biso   1.000  H
  H33      1.0000 0.17090  0.33440  0.84240  Biso   1.000  H
  C38      1.0000 0.05810  0.12520  0.80050  Biso   1.000  C
  H34      1.0000 0.98960  0.14570  0.80280  Biso   1.000  H
  H35      1.0000 0.07510  0.08680  0.83250  Biso   1.000  H
  H36      1.0000 0.06770  0.08510  0.76830  Biso   1.000  H
  C39      1.0000 0.24100  0.08060  0.75610  Biso   1.000  C
  H37      1.0000 0.23360  0.10140  0.71860  Biso   1.000  H
  H38      1.0000 0.19200  0.03040  0.76440  Biso   1.000  H
  H39      1.0000 0.30660  0.05380  0.76150  Biso   1.000  H
  C40      1.0000 0.30330  0.23330  0.76740  Biso   1.000  C
  H40      1.0000 0.28130  0.25270  0.73140  Biso   1.000  H
  H41      1.0000 0.36470  0.19680  0.76450  Biso   1.000  H
  H42      1.0000 0.31370  0.29170  0.78940  Biso   1.000  H
  C41      1.0000 0.09620  0.26950  0.74650  Biso   1.000  C
  C42      1.0000 0.36950  0.13380  0.86000  Biso   1.000  C
  C43      1.0000 0.30250  0.38930  0.53560  Biso   1.000  C
  C44      1.0000 0.40520  0.39400  0.56260  Biso   1.000  C
  C45      1.0000 0.21090  0.38710  0.57810  Biso   1.000  C
  C46      1.0000 0.32260  0.28250  0.51580  Biso   1.000  C
  C47      1.0000 0.28100  0.45520  0.48560  Biso   1.000  C
  C48      1.0000 0.38600  0.22500  0.55700  Biso   1.000  C
  Cd4      1.0000 0.92743  0.61528  0.65551  Biso   1.000  Cd
  O19      1.0000 0.92210  0.77470  0.70310  Biso   1.000  O
  O20      1.0000 0.90420  0.63450  0.75000  Biso   1.000  O
  O21      1.0000 0.58080  0.80750  0.88540  Biso   1.000  O
  O22      1.0000 0.58690  0.94160  0.83240  Biso   1.000  O
  O23      1.0000 0.77320  0.65610  0.62380  Biso   1.000  O
  O24      1.0000 0.86840  0.57940  0.56570  Biso   1.000  O
  C49      1.0000 0.87620  0.78450  0.79750  Biso   1.000  C
  C50      1.0000 0.77400  0.83100  0.79350  Biso   1.000  C
  C51      1.0000 0.74460  0.86120  0.85080  Biso   1.000  C
  H43      1.0000 0.77240  0.92760  0.85800  Biso   1.000  H
  C52      1.0000 0.79350  0.78870  0.88920  Biso   1.000  C
  H44      1.0000 0.74480  0.74610  0.90700  Biso   1.000  H
  H45      1.0000 0.83260  0.82290  0.91700  Biso   1.000  H
  C53      1.0000 0.86000  0.72950  0.85010  Biso   1.000  C
  H46      1.0000 0.92390  0.71700  0.86750  Biso   1.000  H
  H47      1.0000 0.82910  0.66560  0.84240  Biso   1.000  H
  C54      1.0000 0.94190  0.87480  0.80050  Biso   1.000  C
  H48      1.0000 0.01040  0.85430  0.80280  Biso   1.000  H
  H49      1.0000 0.92490  0.91320  0.83250  Biso   1.000  H
  H50      1.0000 0.93230  0.91490  0.76830  Biso   1.000  H
  C55      1.0000 0.75900  0.91940  0.75610  Biso   1.000  C
  H51      1.0000 0.76640  0.89860  0.71860  Biso   1.000  H
  H52      1.0000 0.80800  0.96960  0.76440  Biso   1.000  H
  H53      1.0000 0.69340  0.94620  0.76150  Biso   1.000  H
  C56      1.0000 0.69670  0.76670  0.76740  Biso   1.000  C
  H54      1.0000 0.71870  0.74730  0.73140  Biso   1.000  H
  H55      1.0000 0.63530  0.80320  0.76450  Biso   1.000  H
  H56      1.0000 0.68630  0.70830  0.78940  Biso   1.000  H
  C57      1.0000 0.90380  0.73050  0.74650  Biso   1.000  C
  C58      1.0000 0.63050  0.86620  0.86000  Biso   1.000  C
  C59      1.0000 0.69750  0.61070  0.53560  Biso   1.000  C
  C60      1.0000 0.59480  0.60600  0.56260  Biso   1.000  C
  C61      1.0000 0.78910  0.61290  0.57810  Biso   1.000  C
  C62      1.0000 0.67740  0.71750  0.51580  Biso   1.000  C
  C63      1.0000 0.71900  0.54480  0.48560  Biso   1.000  C
  C64      1.0000 0.61400  0.77500  0.55700  Biso   1.000  C
  Cd5      1.0000 0.61528  0.92743  0.34449  Biso   1.000  Cd
  O25      1.0000 0.77470  0.92210  0.29690  Biso   1.000  O
  O26      1.0000 0.63450  0.90420  0.25000  Biso   1.000  O
  O27      1.0000 0.80750  0.58080  0.11460  Biso   1.000  O
  O28      1.0000 0.94160  0.58690  0.16760  Biso   1.000  O
  O29      1.0000 0.65610  0.77320  0.37620  Biso   1.000  O
  O30      1.0000 0.57940  0.86840  0.43430  Biso   1.000  O
  C65      1.0000 0.78450  0.87620  0.20250  Biso   1.000  C
  C66      1.0000 0.83100  0.77400  0.20650  Biso   1.000  C
  C67      1.0000 0.86120  0.74460  0.14920  Biso   1.000  C
  H57      1.0000 0.92760  0.77240  0.14200  Biso   1.000  H
  C68      1.0000 0.78870  0.79350  0.11080  Biso   1.000  C
  H58      1.0000 0.74610  0.74480  0.09300  Biso   1.000  H
  H59      1.0000 0.82290  0.83260  0.08300  Biso   1.000  H
  C69      1.0000 0.72950  0.86000  0.14990  Biso   1.000  C
  H60      1.0000 0.71700  0.92390  0.13250  Biso   1.000  H
  H61      1.0000 0.66560  0.82910  0.15760  Biso   1.000  H
  C70      1.0000 0.87480  0.94190  0.19950  Biso   1.000  C
  H62      1.0000 0.85430  0.01040  0.19720  Biso   1.000  H
  H63      1.0000 0.91320  0.92490  0.16750  Biso   1.000  H
  H64      1.0000 0.91490  0.93230  0.23170  Biso   1.000  H
  C71      1.0000 0.91940  0.75900  0.24390  Biso   1.000  C
  H65      1.0000 0.89860  0.76640  0.28140  Biso   1.000  H
  H66      1.0000 0.96960  0.80800  0.23560  Biso   1.000  H
  H67      1.0000 0.94620  0.69340  0.23850  Biso   1.000  H
  C72      1.0000 0.76670  0.69670  0.23260  Biso   1.000  C
  H68      1.0000 0.74730  0.71870  0.26860  Biso   1.000  H
  H69      1.0000 0.80320  0.63530  0.23550  Biso   1.000  H
  H70      1.0000 0.70830  0.68630  0.21060  Biso   1.000  H
  C73      1.0000 0.73050  0.90380  0.25350  Biso   1.000  C
  C74      1.0000 0.86620  0.63050  0.14000  Biso   1.000  C
  C75      1.0000 0.61070  0.69750  0.46440  Biso   1.000  C
  C76      1.0000 0.60600  0.59480  0.43740  Biso   1.000  C
  C77      1.0000 0.61290  0.78910  0.42190  Biso   1.000  C
  C78      1.0000 0.71750  0.67740  0.48420  Biso   1.000  C
  C79      1.0000 0.54480  0.71900  0.51440  Biso   1.000  C
  C80      1.0000 0.77500  0.61400  0.44300  Biso   1.000  C
  Cd6      1.0000 0.38472  0.07257  0.34449  Biso   1.000  Cd
  O31      1.0000 0.22530  0.07790  0.29690  Biso   1.000  O
  O32      1.0000 0.36550  0.09580  0.25000  Biso   1.000  O
  O33      1.0000 0.19250  0.41920  0.11460  Biso   1.000  O
  O34      1.0000 0.05840  0.41310  0.16760  Biso   1.000  O
  O35      1.0000 0.34390  0.22680  0.37620  Biso   1.000  O
  O36      1.0000 0.42060  0.13160  0.43430  Biso   1.000  O
  C81      1.0000 0.21550  0.12380  0.20250  Biso   1.000  C
  C82      1.0000 0.16900  0.22600  0.20650  Biso   1.000  C
  C83      1.0000 0.13880  0.25540  0.14920  Biso   1.000  C
  H71      1.0000 0.07240  0.22760  0.14200  Biso   1.000  H
  C84      1.0000 0.21130  0.20650  0.11080  Biso   1.000  C
  H72      1.0000 0.25390  0.25520  0.09300  Biso   1.000  H
  H73      1.0000 0.17710  0.16740  0.08300  Biso   1.000  H
  C85      1.0000 0.27050  0.14000  0.14990  Biso   1.000  C
  H74      1.0000 0.28300  0.07610  0.13250  Biso   1.000  H
  H75      1.0000 0.33440  0.17090  0.15760  Biso   1.000  H
  C86      1.0000 0.12520  0.05810  0.19950  Biso   1.000  C
  H76      1.0000 0.14570  0.98960  0.19720  Biso   1.000  H
  H77      1.0000 0.08680  0.07510  0.16750  Biso   1.000  H
  H78      1.0000 0.08510  0.06770  0.23170  Biso   1.000  H
  C87      1.0000 0.08060  0.24100  0.24390  Biso   1.000  C
  H79      1.0000 0.10140  0.23360  0.28140  Biso   1.000  H
  H80      1.0000 0.03040  0.19200  0.23560  Biso   1.000  H
  H81      1.0000 0.05380  0.30660  0.23850  Biso   1.000  H
  C88      1.0000 0.23330  0.30330  0.23260  Biso   1.000  C
  H82      1.0000 0.25270  0.28130  0.26860  Biso   1.000  H
  H83      1.0000 0.19680  0.36470  0.23550  Biso   1.000  H
  H84      1.0000 0.29170  0.31370  0.21060  Biso   1.000  H
  C89      1.0000 0.26950  0.09620  0.25350  Biso   1.000  C
  C90      1.0000 0.13380  0.36950  0.14000  Biso   1.000  C
  C91      1.0000 0.38930  0.30250  0.46440  Biso   1.000  C
  C92      1.0000 0.39400  0.40520  0.43740  Biso   1.000  C
  C93      1.0000 0.38710  0.21090  0.42190  Biso   1.000  C
  C94      1.0000 0.28250  0.32260  0.48420  Biso   1.000  C
  C95      1.0000 0.45520  0.28100  0.51440  Biso   1.000  C
  C96      1.0000 0.22500  0.38600  0.44300  Biso   1.000  C
  Cd7      1.0000 0.42743  0.88472  0.84449  Biso   1.000  Cd
  O37      1.0000 0.42210  0.72530  0.79690  Biso   1.000  O
  O38      1.0000 0.40420  0.86550  0.75000  Biso   1.000  O
  O39      1.0000 0.08080  0.69250  0.61460  Biso   1.000  O
  O40      1.0000 0.08690  0.55840  0.66760  Biso   1.000  O
  O41      1.0000 0.27320  0.84390  0.87620  Biso   1.000  O
  O42      1.0000 0.36840  0.92060  0.93430  Biso   1.000  O
  C97      1.0000 0.37620  0.71550  0.70250  Biso   1.000  C
  C98      1.0000 0.27400  0.66900  0.70650  Biso   1.000  C
  C99      1.0000 0.24460  0.63880  0.64920  Biso   1.000  C
  H85      1.0000 0.27240  0.57240  0.64200  Biso   1.000  H
  C100     1.0000 0.29350  0.71130  0.61080  Biso   1.000  C
  H86      1.0000 0.24480  0.75390  0.59300  Biso   1.000  H
  H87      1.0000 0.33260  0.67710  0.58300  Biso   1.000  H
  C101     1.0000 0.36000  0.77050  0.64990  Biso   1.000  C
  H88      1.0000 0.42390  0.78300  0.63250  Biso   1.000  H
  H89      1.0000 0.32910  0.83440  0.65760  Biso   1.000  H
  C102     1.0000 0.44190  0.62520  0.69950  Biso   1.000  C
  H90      1.0000 0.51040  0.64570  0.69720  Biso   1.000  H
  H91      1.0000 0.42490  0.58680  0.66750  Biso   1.000  H
  H92      1.0000 0.43230  0.58510  0.73170  Biso   1.000  H
  C103     1.0000 0.25900  0.58060  0.74390  Biso   1.000  C
  H93      1.0000 0.26640  0.60140  0.78140  Biso   1.000  H
  H94      1.0000 0.30800  0.53040  0.73560  Biso   1.000  H
  H95      1.0000 0.19340  0.55380  0.73850  Biso   1.000  H
  C104     1.0000 0.19670  0.73330  0.73260  Biso   1.000  C
  H96      1.0000 0.21870  0.75270  0.76860  Biso   1.000  H
  H97      1.0000 0.13530  0.69680  0.73550  Biso   1.000  H
  H98      1.0000 0.18630  0.79170  0.71060  Biso   1.000  H
  C105     1.0000 0.40380  0.76950  0.75350  Biso   1.000  C
  C106     1.0000 0.13050  0.63380  0.64000  Biso   1.000  C
  C107     1.0000 0.19750  0.88930  0.96440  Biso   1.000  C
  C108     1.0000 0.09480  0.89400  0.93740  Biso   1.000  C
  C109     1.0000 0.28910  0.88710  0.92190  Biso   1.000  C
  C110     1.0000 0.17740  0.78250  0.98420  Biso   1.000  C
  C111     1.0000 0.21900  0.95520  0.01440  Biso   1.000  C
  C112     1.0000 0.11400  0.72500  0.94300  Biso   1.000  C
  Cd8      1.0000 0.57257  0.11528  0.84449  Biso   1.000  Cd
  O43      1.0000 0.57790  0.27470  0.79690  Biso   1.000  O
  O44      1.0000 0.59580  0.13450  0.75000  Biso   1.000  O
  O45      1.0000 0.91920  0.30750  0.61460  Biso   1.000  O
  O46      1.0000 0.91310  0.44160  0.66760  Biso   1.000  O
  O47      1.0000 0.72680  0.15610  0.87620  Biso   1.000  O
  O48      1.0000 0.63160  0.07940  0.93430  Biso   1.000  O
  C113     1.0000 0.62380  0.28450  0.70250  Biso   1.000  C
  C114     1.0000 0.72600  0.33100  0.70650  Biso   1.000  C
  C115     1.0000 0.75540  0.36120  0.64920  Biso   1.000  C
  H99      1.0000 0.72760  0.42760  0.64200  Biso   1.000  H
  C116     1.0000 0.70650  0.28870  0.61080  Biso   1.000  C
  H100     1.0000 0.75520  0.24610  0.59300  Biso   1.000  H
  H101     1.0000 0.66740  0.32290  0.58300  Biso   1.000  H
  C117     1.0000 0.64000  0.22950  0.64990  Biso   1.000  C
  H102     1.0000 0.57610  0.21700  0.63250  Biso   1.000  H
  H103     1.0000 0.67090  0.16560  0.65760  Biso   1.000  H
  C118     1.0000 0.55810  0.37480  0.69950  Biso   1.000  C
  H104     1.0000 0.48960  0.35430  0.69720  Biso   1.000  H
  H105     1.0000 0.57510  0.41320  0.66750  Biso   1.000  H
  H106     1.0000 0.56770  0.41490  0.73170  Biso   1.000  H
  C119     1.0000 0.74100  0.41940  0.74390  Biso   1.000  C
  H107     1.0000 0.73360  0.39860  0.78140  Biso   1.000  H
  H108     1.0000 0.69200  0.46960  0.73560  Biso   1.000  H
  H109     1.0000 0.80660  0.44620  0.73850  Biso   1.000  H
  C120     1.0000 0.80330  0.26670  0.73260  Biso   1.000  C
  H110     1.0000 0.78130  0.24730  0.76860  Biso   1.000  H
  H111     1.0000 0.86470  0.30320  0.73550  Biso   1.000  H
  H112     1.0000 0.81370  0.20830  0.71060  Biso   1.000  H
  C121     1.0000 0.59620  0.23050  0.75350  Biso   1.000  C
  C122     1.0000 0.86950  0.36620  0.64000  Biso   1.000  C
  C123     1.0000 0.80250  0.11070  0.96440  Biso   1.000  C
  C124     1.0000 0.90520  0.10600  0.93740  Biso   1.000  C
  C125     1.0000 0.71090  0.11290  0.92190  Biso   1.000  C
  C126     1.0000 0.82260  0.21750  0.98420  Biso   1.000  C
  C127     1.0000 0.78100  0.04480  0.01440  Biso   1.000  C
  C128     1.0000 0.88600  0.27500  0.94300  Biso   1.000  C
  C129     1.0000 0.72810  0.27190  0.00000  Biso   1.000  C
  C130     1.0000 0.27190  0.72810  0.00000  Biso   1.000  C
  C131     1.0000 0.22810  0.22810  0.50000  Biso   1.000  C
  C132     1.0000 0.77190  0.77190  0.50000  Biso   1.000  C
