data_image0
_cell_length_a       10.4926
_cell_length_b       11.2193
_cell_length_c       12.7812
_cell_angle_alpha    101.079
_cell_angle_beta     110.206
_cell_angle_gamma    99.87

_symmetry_space_group_name_H-M    "P 1"
_symmetry_int_tables_number       1

loop_
  _symmetry_equiv_pos_as_xyz
  'x, y, z'

loop_
  _atom_site_label
  _atom_site_occupancy
  _atom_site_fract_x
  _atom_site_fract_y
  _atom_site_fract_z
  _atom_site_thermal_displace_type
  _atom_site_B_iso_or_equiv
  _atom_site_type_symbol
  Gd1      1.0000 0.39392  0.45096  0.32474  Biso   1.000  Gd
  O1       1.0000 0.31770  0.26410  0.15940  Biso   1.000  O
  O2       1.0000 0.16570  0.29280  0.23620  Biso   1.000  O
  C1       1.0000 0.20050  0.22810  0.16500  Biso   1.000  C
  C2       1.0000 0.09630  0.11080  0.07870  Biso   1.000  C
  C3       1.0000 0.13750  0.03020  0.00810  Biso   1.000  C
  H1       1.0000 0.23210  0.04850  0.01420  Biso   1.000  H
  N1       1.0000 0.27600  0.05210  0.01290  Biso   1.000  N
  H2       1.0000 0.34080  0.11950  0.06230  Biso   1.000  H
  H3       1.0000 0.29830  0.99840  0.96630  Biso   1.000  H
  C4       1.0000 0.96090  0.07910  0.07290  Biso   1.000  C
  H4       1.0000 0.93350  0.13180  0.12420  Biso   1.000  H
  N2       1.0000 0.09150  0.84180  0.85740  Biso   1.000  N
  H5       1.0000 0.03610  0.76980  0.80850  Biso   1.000  H
  H6       1.0000 0.17890  0.86560  0.86380  Biso   1.000  H
  O3       1.0000 0.50040  0.67190  0.40380  Biso   1.000  O
  O4       1.0000 0.57040  0.72210  0.59690  Biso   1.000  O
  C5       1.0000 0.53050  0.74670  0.50120  Biso   1.000  C
  C6       1.0000 0.51690  0.87920  0.50260  Biso   1.000  C
  C7       1.0000 0.51280  0.96010  0.60010  Biso   1.000  C
  H7       1.0000 0.47760  0.06650  0.33200  Biso   1.000  H
  N3       1.0000 0.48270  0.07930  0.29760  Biso   1.000  N
  H8       1.0000 0.47700  0.15780  0.29460  Biso   1.000  H
  H9       1.0000 0.48550  0.02520  0.23700  Biso   1.000  H
  H10      1.0000 0.52700  0.84380  0.69830  Biso   1.000  H
  C8       1.0000 0.51000  0.97500  0.80000  Biso   1.000  C
  O5       1.0000 0.52200  0.09000  0.84000  Biso   1.000  O
  C9       1.0000 0.45900  0.89000  0.84800  Biso   1.000  C
  C10      1.0000 0.50550  0.92060  0.40460  Biso   1.000  C
  H11      1.0000 0.51030  0.86670  0.33970  Biso   1.000  H
  O6       1.0000 0.62080  0.43700  0.32510  Biso   1.000  O
  O7       1.0000 0.65380  0.50290  0.50800  Biso   1.000  O
  C11      1.0000 0.70160  0.47430  0.43210  Biso   1.000  C
  C12      1.0000 0.85520  0.48670  0.46630  Biso   1.000  C
  C13      1.0000 0.90940  0.44110  0.38470  Biso   1.000  C
  H12      1.0000 0.15160  0.59880  0.69380  Biso   1.000  H
  N4       1.0000 0.82890  0.38190  0.27300  Biso   1.000  N
  H13      1.0000 0.86790  0.35380  0.22560  Biso   1.000  H
  H14      1.0000 0.73720  0.37110  0.24710  Biso   1.000  H
  C14      1.0000 0.94560  0.54450  0.57920  Biso   1.000  C
  H15      1.0000 0.90880  0.57560  0.63410  Biso   1.000  H
  O8       1.0000 0.20770  0.55980  0.26100  Biso   1.000  O
  C15      1.0000 0.19180  0.65910  0.26250  Biso   1.000  C
  H16      1.0000 0.26000  0.72270  0.32790  Biso   1.000  H
  N5       1.0000 0.09890  0.70170  0.19260  Biso   1.000  N
  C16      1.0000 0.98500  0.62100  0.08700  Biso   1.000  C
  C17      1.0000 0.10200  0.83380  0.21440  Biso   1.000  C
  O9       1.0000 0.19900  0.53470  0.23840  Biso   1.000  O
  C18      1.0000 0.19690  0.63350  0.22000  Biso   1.000  C
  H17      1.0000 0.28420  0.69420  0.24580  Biso   1.000  H
  N6       1.0000 0.08050  0.66560  0.16540  Biso   1.000  N
  C19      1.0000 0.94100  0.58700  0.12100  Biso   1.000  C
  C20      1.0000 0.10300  0.79400  0.15200  Biso   1.000  C
  Gd2      1.0000 0.60608  0.54904  0.67526  Biso   1.000  Gd
  O10      1.0000 0.68230  0.73590  0.84060  Biso   1.000  O
  O11      1.0000 0.83430  0.70720  0.76380  Biso   1.000  O
  C21      1.0000 0.79950  0.77190  0.83500  Biso   1.000  C
  C22      1.0000 0.90370  0.88920  0.92130  Biso   1.000  C
  C23      1.0000 0.86250  0.96980  0.99190  Biso   1.000  C
  H18      1.0000 0.76790  0.95150  0.98580  Biso   1.000  H
  N7       1.0000 0.72400  0.94790  0.98710  Biso   1.000  N
  H19      1.0000 0.65920  0.88050  0.93770  Biso   1.000  H
  H20      1.0000 0.70170  0.00160  0.03370  Biso   1.000  H
  C24      1.0000 0.03910  0.92090  0.92710  Biso   1.000  C
  H21      1.0000 0.06650  0.86820  0.87580  Biso   1.000  H
  N8       1.0000 0.90850  0.15820  0.14260  Biso   1.000  N
  H22      1.0000 0.96390  0.23020  0.19150  Biso   1.000  H
  H23      1.0000 0.82110  0.13440  0.13620  Biso   1.000  H
  O12      1.0000 0.49960  0.32810  0.59620  Biso   1.000  O
  O13      1.0000 0.42960  0.27790  0.40310  Biso   1.000  O
  C25      1.0000 0.46950  0.25330  0.49880  Biso   1.000  C
  C26      1.0000 0.48310  0.12080  0.49740  Biso   1.000  C
  C27      1.0000 0.48720  0.03990  0.39990  Biso   1.000  C
  H24      1.0000 0.52240  0.93350  0.66800  Biso   1.000  H
  N9       1.0000 0.51730  0.92070  0.70240  Biso   1.000  N
  H25      1.0000 0.52300  0.84220  0.70540  Biso   1.000  H
  H26      1.0000 0.51450  0.97480  0.76300  Biso   1.000  H
  H27      1.0000 0.47300  0.15620  0.30170  Biso   1.000  H
  C28      1.0000 0.49000  0.02500  0.20000  Biso   1.000  C
  O14      1.0000 0.47800  0.91000  0.16000  Biso   1.000  O
  C29      1.0000 0.54100  0.11000  0.15200  Biso   1.000  C
  C30      1.0000 0.49450  0.07940  0.59540  Biso   1.000  C
  H28      1.0000 0.48970  0.13330  0.66030  Biso   1.000  H
  O15      1.0000 0.37920  0.56300  0.67490  Biso   1.000  O
  O16      1.0000 0.34620  0.49710  0.49200  Biso   1.000  O
  C31      1.0000 0.29840  0.52570  0.56790  Biso   1.000  C
  C32      1.0000 0.14480  0.51330  0.53370  Biso   1.000  C
  C33      1.0000 0.09060  0.55890  0.61530  Biso   1.000  C
  H29      1.0000 0.84840  0.40120  0.30620  Biso   1.000  H
  N10      1.0000 0.17110  0.61810  0.72700  Biso   1.000  N
  H30      1.0000 0.13210  0.64620  0.77440  Biso   1.000  H
  H31      1.0000 0.26280  0.62890  0.75290  Biso   1.000  H
  C34      1.0000 0.05440  0.45550  0.42080  Biso   1.000  C
  H32      1.0000 0.09120  0.42440  0.36590  Biso   1.000  H
  O17      1.0000 0.79230  0.44020  0.73900  Biso   1.000  O
  C35      1.0000 0.80820  0.34090  0.73750  Biso   1.000  C
  H33      1.0000 0.74000  0.27730  0.67210  Biso   1.000  H
  N11      1.0000 0.90110  0.29830  0.80740  Biso   1.000  N
  C36      1.0000 0.01500  0.37900  0.91300  Biso   1.000  C
  C37      1.0000 0.89800  0.16620  0.78560  Biso   1.000  C
  O18      1.0000 0.80100  0.46530  0.76160  Biso   1.000  O
  C38      1.0000 0.80310  0.36650  0.78000  Biso   1.000  C
  H34      1.0000 0.71580  0.30580  0.75420  Biso   1.000  H
  N12      1.0000 0.91950  0.33440  0.83460  Biso   1.000  N
  C39      1.0000 0.05900  0.41300  0.87900  Biso   1.000  C
  C40      1.0000 0.89700  0.20600  0.84800  Biso   1.000  C
