data_image0
_cell_length_a       10.5226
_cell_length_b       11.2071
_cell_length_c       12.8682
_cell_angle_alpha    100.129
_cell_angle_beta     110.717
_cell_angle_gamma    100.768

_symmetry_space_group_name_H-M    "P 1"
_symmetry_int_tables_number       1

loop_
  _symmetry_equiv_pos_as_xyz
  'x, y, z'

loop_
  _atom_site_label
  _atom_site_occupancy
  _atom_site_fract_x
  _atom_site_fract_y
  _atom_site_fract_z
  _atom_site_thermal_displace_type
  _atom_site_B_iso_or_equiv
  _atom_site_type_symbol
  Gd1      1.0000 0.39209  0.45251  0.32524  Biso   1.000  Gd
  O1       1.0000 0.31570  0.26740  0.16080  Biso   1.000  O
  O2       1.0000 0.16320  0.29000  0.23600  Biso   1.000  O
  C1       1.0000 0.19770  0.22860  0.16550  Biso   1.000  C
  C2       1.0000 0.09540  0.11120  0.07940  Biso   1.000  C
  C3       1.0000 0.13780  0.03360  0.01000  Biso   1.000  C
  H1       1.0000 0.23280  0.05470  0.01710  Biso   1.000  H
  N1       1.0000 0.27900  0.05880  0.01570  Biso   1.000  N
  H2       1.0000 0.34360  0.12650  0.06520  Biso   1.000  H
  H3       1.0000 0.30110  0.00660  0.96960  Biso   1.000  H
  C4       1.0000 0.95930  0.07680  0.07140  Biso   1.000  C
  H4       1.0000 0.06970  0.87210  0.87900  Biso   1.000  H
  N2       1.0000 0.90610  0.15420  0.14150  Biso   1.000  N
  H5       1.0000 0.96200  0.22570  0.19110  Biso   1.000  H
  H6       1.0000 0.81820  0.12920  0.13400  Biso   1.000  H
  O3       1.0000 0.49830  0.67300  0.40500  Biso   1.000  O
  O4       1.0000 0.57010  0.72080  0.59590  Biso   1.000  O
  C5       1.0000 0.52980  0.74720  0.50170  Biso   1.000  C
  C6       1.0000 0.51700  0.87950  0.50190  Biso   1.000  C
  C7       1.0000 0.51390  0.95870  0.59950  Biso   1.000  C
  H7       1.0000 0.47700  0.06960  0.33340  Biso   1.000  H
  N3       1.0000 0.52260  0.91990  0.70280  Biso   1.000  N
  H8       1.0000 0.53000  0.84210  0.70720  Biso   1.000  H
  H9       1.0000 0.52030  0.97350  0.76260  Biso   1.000  H
  H10      1.0000 0.44650  0.14760  0.29300  Biso   1.000  H
  C8       1.0000 0.50700  0.03500  0.20400  Biso   1.000  C
  O5       1.0000 0.49800  0.92400  0.16900  Biso   1.000  O
  O6       1.0000 0.54100  0.12100  0.16700  Biso   1.000  O
  C9       1.0000 0.50270  0.92210  0.40450  Biso   1.000  C
  H11      1.0000 0.50430  0.86850  0.33920  Biso   1.000  H
  O7       1.0000 0.61950  0.44140  0.32820  Biso   1.000  O
  O8       1.0000 0.65720  0.50680  0.51100  Biso   1.000  O
  C10      1.0000 0.70180  0.47780  0.43350  Biso   1.000  C
  C11      1.0000 0.85560  0.48790  0.46650  Biso   1.000  C
  C12      1.0000 0.90580  0.44240  0.38560  Biso   1.000  C
  H12      1.0000 0.15690  0.59580  0.69250  Biso   1.000  H
  N4       1.0000 0.82230  0.38200  0.27590  Biso   1.000  N
  H13      1.0000 0.73030  0.36930  0.25170  Biso   1.000  H
  H14      1.0000 0.85930  0.35500  0.22780  Biso   1.000  H
  C13      1.0000 0.94950  0.54590  0.57880  Biso   1.000  C
  H15      1.0000 0.91490  0.57890  0.63340  Biso   1.000  H
  O9       1.0000 0.19910  0.53950  0.23760  Biso   1.000  O
  C14      1.0000 0.19030  0.65010  0.25650  Biso   1.000  C
  H16      1.0000 0.25600  0.70610  0.32800  Biso   1.000  H
  N5       1.0000 0.09920  0.69720  0.18760  Biso   1.000  N
  C15      1.0000 0.99400  0.61700  0.07490  Biso   1.000  C
  C16      1.0000 0.09140  0.82700  0.21020  Biso   1.000  C
  O10      1.0000 0.20400  0.55860  0.27010  Biso   1.000  O
  C17      1.0000 0.20100  0.63110  0.21150  Biso   1.000  C
  H17      1.0000 0.28880  0.67710  0.21570  Biso   1.000  H
  N6       1.0000 0.08480  0.65270  0.14110  Biso   1.000  N
  H18      1.0000 0.09530  0.70810  0.10200  Biso   1.000  H
  C18      1.0000 0.94200  0.59100  0.12400  Biso   1.000  C
  H19      1.0000 0.93180  0.60880  0.19870  Biso   1.000  H
  H20      1.0000 0.92310  0.49880  0.09610  Biso   1.000  H
  C19      1.0000 0.83500  0.63900  0.03700  Biso   1.000  C
  H21      1.0000 0.73970  0.60230  0.03040  Biso   1.000  H
  H22      1.0000 0.83940  0.61450  0.96120  Biso   1.000  H
  H23      1.0000 0.85810  0.73110  0.06220  Biso   1.000  H
  Gd2      1.0000 0.60791  0.54749  0.67476  Biso   1.000  Gd
  O11      1.0000 0.68430  0.73260  0.83920  Biso   1.000  O
  O12      1.0000 0.83680  0.71000  0.76400  Biso   1.000  O
  C20      1.0000 0.80230  0.77140  0.83450  Biso   1.000  C
  C21      1.0000 0.90460  0.88880  0.92060  Biso   1.000  C
  C22      1.0000 0.86220  0.96640  0.99000  Biso   1.000  C
  H24      1.0000 0.76720  0.94530  0.98290  Biso   1.000  H
  N7       1.0000 0.72100  0.94120  0.98430  Biso   1.000  N
  H25      1.0000 0.65640  0.87350  0.93480  Biso   1.000  H
  H26      1.0000 0.69890  0.99340  0.03040  Biso   1.000  H
  C23      1.0000 0.04070  0.92320  0.92860  Biso   1.000  C
  H27      1.0000 0.93030  0.12790  0.12100  Biso   1.000  H
  N8       1.0000 0.09390  0.84580  0.85850  Biso   1.000  N
  H28      1.0000 0.03800  0.77430  0.80890  Biso   1.000  H
  H29      1.0000 0.18180  0.87080  0.86600  Biso   1.000  H
  O13      1.0000 0.50170  0.32700  0.59500  Biso   1.000  O
  O14      1.0000 0.42990  0.27920  0.40410  Biso   1.000  O
  C24      1.0000 0.47020  0.25280  0.49830  Biso   1.000  C
  C25      1.0000 0.48300  0.12050  0.49810  Biso   1.000  C
  C26      1.0000 0.48610  0.04130  0.40050  Biso   1.000  C
  H30      1.0000 0.52300  0.93040  0.66660  Biso   1.000  H
  N9       1.0000 0.47740  0.08010  0.29720  Biso   1.000  N
  H31      1.0000 0.47000  0.15790  0.29280  Biso   1.000  H
  H32      1.0000 0.47970  0.02650  0.23740  Biso   1.000  H
  H33      1.0000 0.55350  0.85240  0.70700  Biso   1.000  H
  C27      1.0000 0.49300  0.96500  0.79600  Biso   1.000  C
  O15      1.0000 0.50200  0.07600  0.83100  Biso   1.000  O
  O16      1.0000 0.45900  0.87900  0.83300  Biso   1.000  O
  C28      1.0000 0.49730  0.07790  0.59550  Biso   1.000  C
  H34      1.0000 0.49570  0.13150  0.66080  Biso   1.000  H
  O17      1.0000 0.38050  0.55860  0.67180  Biso   1.000  O
  O18      1.0000 0.34280  0.49320  0.48900  Biso   1.000  O
  C29      1.0000 0.29820  0.52220  0.56650  Biso   1.000  C
  C30      1.0000 0.14440  0.51210  0.53350  Biso   1.000  C
  C31      1.0000 0.09420  0.55760  0.61440  Biso   1.000  C
  H35      1.0000 0.84310  0.40420  0.30750  Biso   1.000  H
  N10      1.0000 0.17770  0.61800  0.72410  Biso   1.000  N
  H36      1.0000 0.26970  0.63070  0.74830  Biso   1.000  H
  H37      1.0000 0.14070  0.64500  0.77220  Biso   1.000  H
  C32      1.0000 0.05050  0.45410  0.42120  Biso   1.000  C
  H38      1.0000 0.08510  0.42110  0.36660  Biso   1.000  H
  O19      1.0000 0.80090  0.46050  0.76240  Biso   1.000  O
  C33      1.0000 0.80970  0.34990  0.74350  Biso   1.000  C
  H39      1.0000 0.74400  0.29390  0.67200  Biso   1.000  H
  N11      1.0000 0.90080  0.30280  0.81240  Biso   1.000  N
  C34      1.0000 0.00600  0.38300  0.92510  Biso   1.000  C
  C35      1.0000 0.90860  0.17300  0.78980  Biso   1.000  C
  O20      1.0000 0.79600  0.44140  0.72990  Biso   1.000  O
  C36      1.0000 0.79900  0.36890  0.78850  Biso   1.000  C
  H40      1.0000 0.71120  0.32290  0.78430  Biso   1.000  H
  N12      1.0000 0.91520  0.34730  0.85890  Biso   1.000  N
  H41      1.0000 0.90470  0.29190  0.89800  Biso   1.000  H
  C37      1.0000 0.05800  0.40900  0.87600  Biso   1.000  C
  H42      1.0000 0.06820  0.39120  0.80130  Biso   1.000  H
  H43      1.0000 0.07690  0.50120  0.90390  Biso   1.000  H
  C38      1.0000 0.16500  0.36100  0.96300  Biso   1.000  C
  H44      1.0000 0.26030  0.39770  0.96960  Biso   1.000  H
  H45      1.0000 0.16060  0.38550  0.03880  Biso   1.000  H
  H46      1.0000 0.14190  0.26890  0.93780  Biso   1.000  H
