data_image0
_cell_length_a       17.9054
_cell_length_b       17.9054
_cell_length_c       10.7305
_cell_angle_alpha    90
_cell_angle_beta     90
_cell_angle_gamma    90

_symmetry_space_group_name_H-M    "P 1"
_symmetry_int_tables_number       1

loop_
  _symmetry_equiv_pos_as_xyz
  'x, y, z'

loop_
  _atom_site_label
  _atom_site_occupancy
  _atom_site_fract_x
  _atom_site_fract_y
  _atom_site_fract_z
  _atom_site_thermal_displace_type
  _atom_site_B_iso_or_equiv
  _atom_site_type_symbol
  O1       1.0000 0.57390  0.05620  0.40670  Biso   1.000  O
  O2       1.0000 0.59680  0.07260  0.20810  Biso   1.000  O
  C1       1.0000 0.61450  0.08250  0.32280  Biso   1.000  C
  C2       1.0000 0.68440  0.12800  0.35270  Biso   1.000  C
  C3       1.0000 0.67900  0.17260  0.47150  Biso   1.000  C
  C4       1.0000 0.71220  0.17520  0.24400  Biso   1.000  C
  C5       1.0000 0.75250  0.07460  0.33650  Biso   1.000  C
  C6       1.0000 0.76660  0.05340  0.20040  Biso   1.000  C
  O3       1.0000 0.07390  0.55620  0.90670  Biso   1.000  O
  O4       1.0000 0.09680  0.57260  0.70810  Biso   1.000  O
  C7       1.0000 0.11450  0.58250  0.82280  Biso   1.000  C
  C8       1.0000 0.18440  0.62800  0.85270  Biso   1.000  C
  C9       1.0000 0.17900  0.67260  0.97150  Biso   1.000  C
  C10      1.0000 0.21220  0.67520  0.74400  Biso   1.000  C
  C11      1.0000 0.25250  0.57460  0.83650  Biso   1.000  C
  C12      1.0000 0.26660  0.55340  0.70040  Biso   1.000  C
  O5       1.0000 0.42610  0.94380  0.40670  Biso   1.000  O
  O6       1.0000 0.40320  0.92740  0.20810  Biso   1.000  O
  C13      1.0000 0.38550  0.91750  0.32280  Biso   1.000  C
  C14      1.0000 0.31560  0.87200  0.35270  Biso   1.000  C
  C15      1.0000 0.32100  0.82740  0.47150  Biso   1.000  C
  C16      1.0000 0.28780  0.82480  0.24400  Biso   1.000  C
  C17      1.0000 0.24750  0.92540  0.33650  Biso   1.000  C
  C18      1.0000 0.23340  0.94660  0.20040  Biso   1.000  C
  O7       1.0000 0.92610  0.44380  0.90670  Biso   1.000  O
  O8       1.0000 0.90320  0.42740  0.70810  Biso   1.000  O
  C19      1.0000 0.88550  0.41750  0.82280  Biso   1.000  C
  C20      1.0000 0.81560  0.37200  0.85270  Biso   1.000  C
  C21      1.0000 0.82100  0.32740  0.97150  Biso   1.000  C
  C22      1.0000 0.78780  0.32480  0.74400  Biso   1.000  C
  C23      1.0000 0.74750  0.42540  0.83650  Biso   1.000  C
  C24      1.0000 0.73340  0.44660  0.70040  Biso   1.000  C
  O9       1.0000 0.05620  0.42610  0.59330  Biso   1.000  O
  O10      1.0000 0.07260  0.40320  0.79190  Biso   1.000  O
  C25      1.0000 0.08250  0.38550  0.67720  Biso   1.000  C
  C26      1.0000 0.12800  0.31560  0.64730  Biso   1.000  C
  C27      1.0000 0.17260  0.32100  0.52850  Biso   1.000  C
  C28      1.0000 0.17520  0.28780  0.75600  Biso   1.000  C
  C29      1.0000 0.07460  0.24750  0.66350  Biso   1.000  C
  C30      1.0000 0.05340  0.23340  0.79960  Biso   1.000  C
  O11      1.0000 0.55620  0.92610  0.09330  Biso   1.000  O
  O12      1.0000 0.57260  0.90320  0.29190  Biso   1.000  O
  C31      1.0000 0.58250  0.88550  0.17720  Biso   1.000  C
  C32      1.0000 0.62800  0.81560  0.14730  Biso   1.000  C
  C33      1.0000 0.67260  0.82100  0.02850  Biso   1.000  C
  C34      1.0000 0.67520  0.78780  0.25600  Biso   1.000  C
  C35      1.0000 0.57460  0.74750  0.16350  Biso   1.000  C
  C36      1.0000 0.55340  0.73340  0.29960  Biso   1.000  C
  O13      1.0000 0.94380  0.57390  0.59330  Biso   1.000  O
  O14      1.0000 0.92740  0.59680  0.79190  Biso   1.000  O
  C37      1.0000 0.91750  0.61450  0.67720  Biso   1.000  C
  C38      1.0000 0.87200  0.68440  0.64730  Biso   1.000  C
  C39      1.0000 0.82740  0.67900  0.52850  Biso   1.000  C
  C40      1.0000 0.82480  0.71220  0.75600  Biso   1.000  C
  C41      1.0000 0.92540  0.75250  0.66350  Biso   1.000  C
  C42      1.0000 0.94660  0.76660  0.79960  Biso   1.000  C
  O15      1.0000 0.44380  0.07390  0.09330  Biso   1.000  O
  O16      1.0000 0.42740  0.09680  0.29190  Biso   1.000  O
  C43      1.0000 0.41750  0.11450  0.17720  Biso   1.000  C
  C44      1.0000 0.37200  0.18440  0.14730  Biso   1.000  C
  C45      1.0000 0.32740  0.17900  0.02850  Biso   1.000  C
  C46      1.0000 0.32480  0.21220  0.25600  Biso   1.000  C
  C47      1.0000 0.42540  0.25250  0.16350  Biso   1.000  C
  C48      1.0000 0.44660  0.26660  0.29960  Biso   1.000  C
  O17      1.0000 0.92610  0.05620  0.34330  Biso   1.000  O
  O18      1.0000 0.90320  0.07260  0.54190  Biso   1.000  O
  C49      1.0000 0.88550  0.08250  0.42720  Biso   1.000  C
  C50      1.0000 0.81560  0.12800  0.39730  Biso   1.000  C
  C51      1.0000 0.82100  0.17260  0.27850  Biso   1.000  C
  C52      1.0000 0.78780  0.17520  0.50600  Biso   1.000  C
  C53      1.0000 0.74750  0.07460  0.41350  Biso   1.000  C
  C54      1.0000 0.73340  0.05340  0.54960  Biso   1.000  C
  O19      1.0000 0.42610  0.55620  0.84330  Biso   1.000  O
  O20      1.0000 0.40320  0.57260  0.04190  Biso   1.000  O
  C55      1.0000 0.38550  0.58250  0.92720  Biso   1.000  C
  C56      1.0000 0.31560  0.62800  0.89730  Biso   1.000  C
  C57      1.0000 0.32100  0.67260  0.77850  Biso   1.000  C
  C58      1.0000 0.28780  0.67520  0.00600  Biso   1.000  C
  C59      1.0000 0.24750  0.57460  0.91350  Biso   1.000  C
  C60      1.0000 0.23340  0.55340  0.04960  Biso   1.000  C
  O21      1.0000 0.07390  0.94380  0.34330  Biso   1.000  O
  O22      1.0000 0.09680  0.92740  0.54190  Biso   1.000  O
  C61      1.0000 0.11450  0.91750  0.42720  Biso   1.000  C
  C62      1.0000 0.18440  0.87200  0.39730  Biso   1.000  C
  C63      1.0000 0.17900  0.82740  0.27850  Biso   1.000  C
  C64      1.0000 0.21220  0.82480  0.50600  Biso   1.000  C
  C65      1.0000 0.25250  0.92540  0.41350  Biso   1.000  C
  C66      1.0000 0.26660  0.94660  0.54960  Biso   1.000  C
  O23      1.0000 0.57390  0.44380  0.84330  Biso   1.000  O
  O24      1.0000 0.59680  0.42740  0.04190  Biso   1.000  O
  C67      1.0000 0.61450  0.41750  0.92720  Biso   1.000  C
  C68      1.0000 0.68440  0.37200  0.89730  Biso   1.000  C
  C69      1.0000 0.67900  0.32740  0.77850  Biso   1.000  C
  C70      1.0000 0.71220  0.32480  0.00600  Biso   1.000  C
  C71      1.0000 0.75250  0.42540  0.91350  Biso   1.000  C
  C72      1.0000 0.76660  0.44660  0.04960  Biso   1.000  C
  O25      1.0000 0.44380  0.42610  0.15670  Biso   1.000  O
  O26      1.0000 0.42740  0.40320  0.95810  Biso   1.000  O
  C73      1.0000 0.41750  0.38550  0.07280  Biso   1.000  C
  C74      1.0000 0.37200  0.31560  0.10270  Biso   1.000  C
  C75      1.0000 0.32740  0.32100  0.22150  Biso   1.000  C
  C76      1.0000 0.32480  0.28780  0.99400  Biso   1.000  C
  C77      1.0000 0.42540  0.24750  0.08650  Biso   1.000  C
  C78      1.0000 0.44660  0.23340  0.95040  Biso   1.000  C
  O27      1.0000 0.94380  0.92610  0.65670  Biso   1.000  O
  O28      1.0000 0.92740  0.90320  0.45810  Biso   1.000  O
  C79      1.0000 0.91750  0.88550  0.57280  Biso   1.000  C
  C80      1.0000 0.87200  0.81560  0.60270  Biso   1.000  C
  C81      1.0000 0.82740  0.82100  0.72150  Biso   1.000  C
  C82      1.0000 0.82480  0.78780  0.49400  Biso   1.000  C
  C83      1.0000 0.92540  0.74750  0.58650  Biso   1.000  C
  C84      1.0000 0.94660  0.73340  0.45040  Biso   1.000  C
  O29      1.0000 0.55620  0.57390  0.15670  Biso   1.000  O
  O30      1.0000 0.57260  0.59680  0.95810  Biso   1.000  O
  C85      1.0000 0.58250  0.61450  0.07280  Biso   1.000  C
  C86      1.0000 0.62800  0.68440  0.10270  Biso   1.000  C
  C87      1.0000 0.67260  0.67900  0.22150  Biso   1.000  C
  C88      1.0000 0.67520  0.71220  0.99400  Biso   1.000  C
  C89      1.0000 0.57460  0.75250  0.08650  Biso   1.000  C
  C90      1.0000 0.55340  0.76660  0.95040  Biso   1.000  C
  O31      1.0000 0.05620  0.07390  0.65670  Biso   1.000  O
  O32      1.0000 0.07260  0.09680  0.45810  Biso   1.000  O
  C91      1.0000 0.08250  0.11450  0.57280  Biso   1.000  C
  C92      1.0000 0.12800  0.18440  0.60270  Biso   1.000  C
  C93      1.0000 0.17260  0.17900  0.72150  Biso   1.000  C
  C94      1.0000 0.17520  0.21220  0.49400  Biso   1.000  C
  C95      1.0000 0.07460  0.25250  0.58650  Biso   1.000  C
  C96      1.0000 0.05340  0.26660  0.45040  Biso   1.000  C
  In1      1.0000 0.50000  0.00000  0.25000  Biso   1.000  In
  In2      1.0000 0.00000  0.50000  0.75000  Biso   1.000  In
  In3      1.0000 0.00000  0.00000  0.50000  Biso   1.000  In
  In4      1.0000 0.50000  0.50000  0.00000  Biso   1.000  In
  C97      1.0000 0.75000  0.00600  0.37500  Biso   1.000  C
  C98      1.0000 0.25000  0.50600  0.87500  Biso   1.000  C
  C99      1.0000 0.25000  0.99400  0.37500  Biso   1.000  C
  C100     1.0000 0.75000  0.49400  0.87500  Biso   1.000  C
  C101     1.0000 0.00600  0.25000  0.62500  Biso   1.000  C
  C102     1.0000 0.99400  0.75000  0.62500  Biso   1.000  C
  C103     1.0000 0.49400  0.25000  0.12500  Biso   1.000  C
  C104     1.0000 0.50600  0.75000  0.12500  Biso   1.000  C
