data_image0
_cell_length_a       8.0654
_cell_length_b       15.3504
_cell_length_c       19.3388
_cell_angle_alpha    90
_cell_angle_beta     90
_cell_angle_gamma    90

_symmetry_space_group_name_H-M    "P 1"
_symmetry_int_tables_number       1

loop_
  _symmetry_equiv_pos_as_xyz
  'x, y, z'

loop_
  _atom_site_label
  _atom_site_occupancy
  _atom_site_fract_x
  _atom_site_fract_y
  _atom_site_fract_z
  _atom_site_thermal_displace_type
  _atom_site_B_iso_or_equiv
  _atom_site_type_symbol
  Fe1      1.0000 0.20726  0.16979  0.34343  Biso   1.000  Fe
  N1       1.0000 0.39980  0.16720  0.27458  Biso   1.000  N
  N2       1.0000 0.06620  0.26670  0.30182  Biso   1.000  N
  N3       1.0000 0.28830  0.18260  0.44210  Biso   1.000  N
  N4       1.0000 0.12850  0.04350  0.34390  Biso   1.000  N
  N5       1.0000 0.01860  0.08320  0.34110  Biso   1.000  N
  C1       1.0000 0.49110  0.23810  0.26090  Biso   1.000  C
  C2       1.0000 0.02260  0.34670  0.32730  Biso   1.000  C
  C3       1.0000 0.42030  0.11270  0.21850  Biso   1.000  C
  C4       1.0000 0.50290  0.31390  0.30800  Biso   1.000  C
  C5       1.0000 0.44760  0.16600  0.46490  Biso   1.000  C
  C6       1.0000 0.97500  0.00620  0.34540  Biso   1.000  C
  C7       1.0000 0.23440  0.97230  0.33700  Biso   1.000  C
  C8       1.0000 0.85290  0.10510  0.33930  Biso   1.000  C
  C9       1.0000 0.18640  0.94380  0.35250  Biso   1.000  C
  H1       1.0000 0.05940  0.37090  0.37160  Biso   1.000  H
  H2       1.0000 0.37000  0.05510  0.21260  Biso   1.000  H
  H3       1.0000 0.55220  0.29540  0.35190  Biso   1.000  H
  H4       1.0000 0.57250  0.35890  0.28680  Biso   1.000  H
  H5       1.0000 0.39180  0.33740  0.31640  Biso   1.000  H
  H6       1.0000 0.54440  0.15600  0.43540  Biso   1.000  H
  H7       1.0000 0.97680  0.21170  0.54780  Biso   1.000  H
  H8       1.0000 0.99240  0.26160  0.47540  Biso   1.000  H
  H9       1.0000 0.96030  0.15870  0.47680  Biso   1.000  H
  H10      1.0000 0.35490  0.97660  0.33140  Biso   1.000  H
  H11      1.0000 0.80610  0.16400  0.33950  Biso   1.000  H
  H12      1.0000 0.81410  0.08890  0.39610  Biso   1.000  H
  H13      1.0000 0.19780  0.90320  0.31370  Biso   1.000  H
  H14      1.0000 0.27960  0.98470  0.35240  Biso   1.000  H
  Fe2      1.0000 0.79274  0.83021  0.34343  Biso   1.000  Fe
  N6       1.0000 0.60020  0.83280  0.27458  Biso   1.000  N
  N7       1.0000 0.93380  0.73330  0.30182  Biso   1.000  N
  N8       1.0000 0.71170  0.81740  0.44210  Biso   1.000  N
  N9       1.0000 0.87150  0.95650  0.34390  Biso   1.000  N
  N10      1.0000 0.98140  0.91680  0.34110  Biso   1.000  N
  C10      1.0000 0.50890  0.76190  0.26090  Biso   1.000  C
  C11      1.0000 0.97740  0.65330  0.32730  Biso   1.000  C
  C12      1.0000 0.57970  0.88730  0.21850  Biso   1.000  C
  C13      1.0000 0.49710  0.68610  0.30800  Biso   1.000  C
  C14      1.0000 0.55240  0.83400  0.46490  Biso   1.000  C
  C15      1.0000 0.02500  0.99380  0.34540  Biso   1.000  C
  C16      1.0000 0.76560  0.02770  0.33700  Biso   1.000  C
  C17      1.0000 0.14710  0.89490  0.33930  Biso   1.000  C
  C18      1.0000 0.81360  0.05620  0.35250  Biso   1.000  C
  H15      1.0000 0.94060  0.62910  0.37160  Biso   1.000  H
  H16      1.0000 0.63000  0.94490  0.21260  Biso   1.000  H
  H17      1.0000 0.44780  0.70460  0.35190  Biso   1.000  H
  H18      1.0000 0.42750  0.64110  0.28680  Biso   1.000  H
  H19      1.0000 0.60820  0.66260  0.31640  Biso   1.000  H
  H20      1.0000 0.45560  0.84400  0.43540  Biso   1.000  H
  H21      1.0000 0.02320  0.78830  0.54780  Biso   1.000  H
  H22      1.0000 0.00760  0.73840  0.47540  Biso   1.000  H
  H23      1.0000 0.03970  0.84130  0.47680  Biso   1.000  H
  H24      1.0000 0.64510  0.02340  0.33140  Biso   1.000  H
  H25      1.0000 0.19390  0.83600  0.33950  Biso   1.000  H
  H26      1.0000 0.18590  0.91110  0.39610  Biso   1.000  H
  H27      1.0000 0.80220  0.09680  0.31370  Biso   1.000  H
  H28      1.0000 0.72040  0.01530  0.35240  Biso   1.000  H
  Fe3      1.0000 0.29274  0.66979  0.15657  Biso   1.000  Fe
  N11      1.0000 0.10020  0.66720  0.22542  Biso   1.000  N
  N12      1.0000 0.43380  0.76670  0.19818  Biso   1.000  N
  N13      1.0000 0.21170  0.68260  0.05790  Biso   1.000  N
  N14      1.0000 0.37150  0.54350  0.15610  Biso   1.000  N
  N15      1.0000 0.48140  0.58320  0.15890  Biso   1.000  N
  C19      1.0000 0.00890  0.73810  0.23910  Biso   1.000  C
  C20      1.0000 0.47740  0.84670  0.17270  Biso   1.000  C
  C21      1.0000 0.07970  0.61270  0.28150  Biso   1.000  C
  C22      1.0000 0.99710  0.81390  0.19200  Biso   1.000  C
  C23      1.0000 0.05240  0.66600  0.03510  Biso   1.000  C
  C24      1.0000 0.52500  0.50620  0.15460  Biso   1.000  C
  C25      1.0000 0.26560  0.47230  0.16300  Biso   1.000  C
  C26      1.0000 0.64710  0.60510  0.16070  Biso   1.000  C
  C27      1.0000 0.31360  0.44380  0.14750  Biso   1.000  C
  H29      1.0000 0.44060  0.87090  0.12840  Biso   1.000  H
  H30      1.0000 0.13000  0.55510  0.28740  Biso   1.000  H
  H31      1.0000 0.94780  0.79540  0.14810  Biso   1.000  H
  H32      1.0000 0.92750  0.85890  0.21320  Biso   1.000  H
  H33      1.0000 0.10820  0.83740  0.18360  Biso   1.000  H
  H34      1.0000 0.95560  0.65600  0.06460  Biso   1.000  H
  H35      1.0000 0.52320  0.71170  0.95220  Biso   1.000  H
  H36      1.0000 0.50760  0.76160  0.02460  Biso   1.000  H
  H37      1.0000 0.53970  0.65870  0.02320  Biso   1.000  H
  H38      1.0000 0.14510  0.47660  0.16860  Biso   1.000  H
  H39      1.0000 0.69390  0.66400  0.16050  Biso   1.000  H
  H40      1.0000 0.68590  0.58890  0.10390  Biso   1.000  H
  H41      1.0000 0.30220  0.40320  0.18630  Biso   1.000  H
  H42      1.0000 0.22040  0.48470  0.14760  Biso   1.000  H
  Fe4      1.0000 0.70726  0.33021  0.15657  Biso   1.000  Fe
  N16      1.0000 0.89980  0.33280  0.22542  Biso   1.000  N
  N17      1.0000 0.56620  0.23330  0.19818  Biso   1.000  N
  N18      1.0000 0.78830  0.31740  0.05790  Biso   1.000  N
  N19      1.0000 0.62850  0.45650  0.15610  Biso   1.000  N
  N20      1.0000 0.51860  0.41680  0.15890  Biso   1.000  N
  C28      1.0000 0.99110  0.26190  0.23910  Biso   1.000  C
  C29      1.0000 0.52260  0.15330  0.17270  Biso   1.000  C
  C30      1.0000 0.92030  0.38730  0.28150  Biso   1.000  C
  C31      1.0000 0.00290  0.18610  0.19200  Biso   1.000  C
  C32      1.0000 0.94760  0.33400  0.03510  Biso   1.000  C
  C33      1.0000 0.47500  0.49380  0.15460  Biso   1.000  C
  C34      1.0000 0.73440  0.52770  0.16300  Biso   1.000  C
  C35      1.0000 0.35290  0.39490  0.16070  Biso   1.000  C
  C36      1.0000 0.68640  0.55620  0.14750  Biso   1.000  C
  H43      1.0000 0.55940  0.12910  0.12840  Biso   1.000  H
  H44      1.0000 0.87000  0.44490  0.28740  Biso   1.000  H
  H45      1.0000 0.05220  0.20460  0.14810  Biso   1.000  H
  H46      1.0000 0.07250  0.14110  0.21320  Biso   1.000  H
  H47      1.0000 0.89180  0.16260  0.18360  Biso   1.000  H
  H48      1.0000 0.04440  0.34400  0.06460  Biso   1.000  H
  H49      1.0000 0.47680  0.28830  0.95220  Biso   1.000  H
  H50      1.0000 0.49240  0.23840  0.02460  Biso   1.000  H
  H51      1.0000 0.46030  0.34130  0.02320  Biso   1.000  H
  H52      1.0000 0.85490  0.52340  0.16860  Biso   1.000  H
  H53      1.0000 0.30610  0.33600  0.16050  Biso   1.000  H
  H54      1.0000 0.31410  0.41110  0.10390  Biso   1.000  H
  H55      1.0000 0.69780  0.59680  0.18630  Biso   1.000  H
  H56      1.0000 0.77960  0.51530  0.14760  Biso   1.000  H
  Fe5      1.0000 0.79274  0.83021  0.65657  Biso   1.000  Fe
  N21      1.0000 0.60020  0.83280  0.72542  Biso   1.000  N
  N22      1.0000 0.93380  0.73330  0.69818  Biso   1.000  N
  N23      1.0000 0.71170  0.81740  0.55790  Biso   1.000  N
  N24      1.0000 0.87150  0.95650  0.65610  Biso   1.000  N
  N25      1.0000 0.98140  0.91680  0.65890  Biso   1.000  N
  C37      1.0000 0.50890  0.76190  0.73910  Biso   1.000  C
  C38      1.0000 0.97740  0.65330  0.67270  Biso   1.000  C
  C39      1.0000 0.57970  0.88730  0.78150  Biso   1.000  C
  C40      1.0000 0.49710  0.68610  0.69200  Biso   1.000  C
  C41      1.0000 0.55240  0.83400  0.53510  Biso   1.000  C
  C42      1.0000 0.02500  0.99380  0.65460  Biso   1.000  C
  C43      1.0000 0.76560  0.02770  0.66300  Biso   1.000  C
  C44      1.0000 0.14710  0.89490  0.66070  Biso   1.000  C
  C45      1.0000 0.81360  0.05620  0.64750  Biso   1.000  C
  H57      1.0000 0.94060  0.62910  0.62840  Biso   1.000  H
  H58      1.0000 0.63000  0.94490  0.78740  Biso   1.000  H
  H59      1.0000 0.44780  0.70460  0.64810  Biso   1.000  H
  H60      1.0000 0.42750  0.64110  0.71320  Biso   1.000  H
  H61      1.0000 0.60820  0.66260  0.68360  Biso   1.000  H
  H62      1.0000 0.45560  0.84400  0.56460  Biso   1.000  H
  H63      1.0000 0.02320  0.78830  0.45220  Biso   1.000  H
  H64      1.0000 0.00760  0.73840  0.52460  Biso   1.000  H
  H65      1.0000 0.03970  0.84130  0.52320  Biso   1.000  H
  H66      1.0000 0.64510  0.02340  0.66860  Biso   1.000  H
  H67      1.0000 0.19390  0.83600  0.66050  Biso   1.000  H
  H68      1.0000 0.18590  0.91110  0.60390  Biso   1.000  H
  H69      1.0000 0.80220  0.09680  0.68630  Biso   1.000  H
  H70      1.0000 0.72040  0.01530  0.64760  Biso   1.000  H
  Fe6      1.0000 0.20726  0.16979  0.65657  Biso   1.000  Fe
  N26      1.0000 0.39980  0.16720  0.72542  Biso   1.000  N
  N27      1.0000 0.06620  0.26670  0.69818  Biso   1.000  N
  N28      1.0000 0.28830  0.18260  0.55790  Biso   1.000  N
  N29      1.0000 0.12850  0.04350  0.65610  Biso   1.000  N
  N30      1.0000 0.01860  0.08320  0.65890  Biso   1.000  N
  C46      1.0000 0.49110  0.23810  0.73910  Biso   1.000  C
  C47      1.0000 0.02260  0.34670  0.67270  Biso   1.000  C
  C48      1.0000 0.42030  0.11270  0.78150  Biso   1.000  C
  C49      1.0000 0.50290  0.31390  0.69200  Biso   1.000  C
  C50      1.0000 0.44760  0.16600  0.53510  Biso   1.000  C
  C51      1.0000 0.97500  0.00620  0.65460  Biso   1.000  C
  C52      1.0000 0.23440  0.97230  0.66300  Biso   1.000  C
  C53      1.0000 0.85290  0.10510  0.66070  Biso   1.000  C
  C54      1.0000 0.18640  0.94380  0.64750  Biso   1.000  C
  H71      1.0000 0.05940  0.37090  0.62840  Biso   1.000  H
  H72      1.0000 0.37000  0.05510  0.78740  Biso   1.000  H
  H73      1.0000 0.55220  0.29540  0.64810  Biso   1.000  H
  H74      1.0000 0.57250  0.35890  0.71320  Biso   1.000  H
  H75      1.0000 0.39180  0.33740  0.68360  Biso   1.000  H
  H76      1.0000 0.54440  0.15600  0.56460  Biso   1.000  H
  H77      1.0000 0.97680  0.21170  0.45220  Biso   1.000  H
  H78      1.0000 0.99240  0.26160  0.52460  Biso   1.000  H
  H79      1.0000 0.96030  0.15870  0.52320  Biso   1.000  H
  H80      1.0000 0.35490  0.97660  0.66860  Biso   1.000  H
  H81      1.0000 0.80610  0.16400  0.66050  Biso   1.000  H
  H82      1.0000 0.81410  0.08890  0.60390  Biso   1.000  H
  H83      1.0000 0.19780  0.90320  0.68630  Biso   1.000  H
  H84      1.0000 0.27960  0.98470  0.64760  Biso   1.000  H
  Fe7      1.0000 0.70726  0.33021  0.84343  Biso   1.000  Fe
  N31      1.0000 0.89980  0.33280  0.77458  Biso   1.000  N
  N32      1.0000 0.56620  0.23330  0.80182  Biso   1.000  N
  N33      1.0000 0.78830  0.31740  0.94210  Biso   1.000  N
  N34      1.0000 0.62850  0.45650  0.84390  Biso   1.000  N
  N35      1.0000 0.51860  0.41680  0.84110  Biso   1.000  N
  C55      1.0000 0.99110  0.26190  0.76090  Biso   1.000  C
  C56      1.0000 0.52260  0.15330  0.82730  Biso   1.000  C
  C57      1.0000 0.92030  0.38730  0.71850  Biso   1.000  C
  C58      1.0000 0.00290  0.18610  0.80800  Biso   1.000  C
  C59      1.0000 0.94760  0.33400  0.96490  Biso   1.000  C
  C60      1.0000 0.47500  0.49380  0.84540  Biso   1.000  C
  C61      1.0000 0.73440  0.52770  0.83700  Biso   1.000  C
  C62      1.0000 0.35290  0.39490  0.83930  Biso   1.000  C
  C63      1.0000 0.68640  0.55620  0.85250  Biso   1.000  C
  H85      1.0000 0.55940  0.12910  0.87160  Biso   1.000  H
  H86      1.0000 0.87000  0.44490  0.71260  Biso   1.000  H
  H87      1.0000 0.05220  0.20460  0.85190  Biso   1.000  H
  H88      1.0000 0.07250  0.14110  0.78680  Biso   1.000  H
  H89      1.0000 0.89180  0.16260  0.81640  Biso   1.000  H
  H90      1.0000 0.04440  0.34400  0.93540  Biso   1.000  H
  H91      1.0000 0.47680  0.28830  0.04780  Biso   1.000  H
  H92      1.0000 0.49240  0.23840  0.97540  Biso   1.000  H
  H93      1.0000 0.46030  0.34130  0.97680  Biso   1.000  H
  H94      1.0000 0.85490  0.52340  0.83140  Biso   1.000  H
  H95      1.0000 0.30610  0.33600  0.83950  Biso   1.000  H
  H96      1.0000 0.31410  0.41110  0.89610  Biso   1.000  H
  H97      1.0000 0.69780  0.59680  0.81370  Biso   1.000  H
  H98      1.0000 0.77960  0.51530  0.85240  Biso   1.000  H
  Fe8      1.0000 0.29274  0.66979  0.84343  Biso   1.000  Fe
  N36      1.0000 0.10020  0.66720  0.77458  Biso   1.000  N
  N37      1.0000 0.43380  0.76670  0.80182  Biso   1.000  N
  N38      1.0000 0.21170  0.68260  0.94210  Biso   1.000  N
  N39      1.0000 0.37150  0.54350  0.84390  Biso   1.000  N
  N40      1.0000 0.48140  0.58320  0.84110  Biso   1.000  N
  C64      1.0000 0.00890  0.73810  0.76090  Biso   1.000  C
  C65      1.0000 0.47740  0.84670  0.82730  Biso   1.000  C
  C66      1.0000 0.07970  0.61270  0.71850  Biso   1.000  C
  C67      1.0000 0.99710  0.81390  0.80800  Biso   1.000  C
  C68      1.0000 0.05240  0.66600  0.96490  Biso   1.000  C
  C69      1.0000 0.52500  0.50620  0.84540  Biso   1.000  C
  C70      1.0000 0.26560  0.47230  0.83700  Biso   1.000  C
  C71      1.0000 0.64710  0.60510  0.83930  Biso   1.000  C
  C72      1.0000 0.31360  0.44380  0.85250  Biso   1.000  C
  H99      1.0000 0.44060  0.87090  0.87160  Biso   1.000  H
  H100     1.0000 0.13000  0.55510  0.71260  Biso   1.000  H
  H101     1.0000 0.94780  0.79540  0.85190  Biso   1.000  H
  H102     1.0000 0.92750  0.85890  0.78680  Biso   1.000  H
  H103     1.0000 0.10820  0.83740  0.81640  Biso   1.000  H
  H104     1.0000 0.95560  0.65600  0.93540  Biso   1.000  H
  H105     1.0000 0.52320  0.71170  0.04780  Biso   1.000  H
  H106     1.0000 0.50760  0.76160  0.97540  Biso   1.000  H
  H107     1.0000 0.53970  0.65870  0.97680  Biso   1.000  H
  H108     1.0000 0.14510  0.47660  0.83140  Biso   1.000  H
  H109     1.0000 0.69390  0.66400  0.83950  Biso   1.000  H
  H110     1.0000 0.68590  0.58890  0.89610  Biso   1.000  H
  H111     1.0000 0.30220  0.40320  0.81370  Biso   1.000  H
  H112     1.0000 0.22040  0.48470  0.85240  Biso   1.000  H
  C73      1.0000 0.19820  0.19160  0.50000  Biso   1.000  C
  C74      1.0000 0.01650  0.20720  0.50000  Biso   1.000  C
  C75      1.0000 0.80180  0.80840  0.50000  Biso   1.000  C
  C76      1.0000 0.98350  0.79280  0.50000  Biso   1.000  C
  C77      1.0000 0.30180  0.69160  0.00000  Biso   1.000  C
  C78      1.0000 0.48350  0.70720  0.00000  Biso   1.000  C
  C79      1.0000 0.69820  0.30840  0.00000  Biso   1.000  C
  C80      1.0000 0.51650  0.29280  0.00000  Biso   1.000  C
