data_image0
_cell_length_a       15.5918
_cell_length_b       15.3726
_cell_length_c       18.2802
_cell_angle_alpha    90
_cell_angle_beta     90
_cell_angle_gamma    90

_symmetry_space_group_name_H-M    "P 1"
_symmetry_int_tables_number       1

loop_
  _symmetry_equiv_pos_as_xyz
  'x, y, z'

loop_
  _atom_site_label
  _atom_site_occupancy
  _atom_site_fract_x
  _atom_site_fract_y
  _atom_site_fract_z
  _atom_site_thermal_displace_type
  _atom_site_B_iso_or_equiv
  _atom_site_type_symbol
  O1       1.0000 0.40920  0.74130  0.18980  Biso   1.000  O
  O2       1.0000 0.09050  0.42510  0.31110  Biso   1.000  O
  C1       1.0000 0.28230  0.61550  0.31630  Biso   1.000  C
  H1       1.0000 0.30240  0.63880  0.36000  Biso   1.000  H
  C2       1.0000 0.21870  0.55050  0.31730  Biso   1.000  C
  N1       1.0000 0.19400  0.52800  0.37940  Biso   1.000  N
  O3       1.0000 0.90920  0.24130  0.18980  Biso   1.000  O
  O4       1.0000 0.59050  0.92510  0.31110  Biso   1.000  O
  C3       1.0000 0.78230  0.11550  0.31630  Biso   1.000  C
  H2       1.0000 0.80240  0.13880  0.36000  Biso   1.000  H
  C4       1.0000 0.71870  0.05050  0.31730  Biso   1.000  C
  N2       1.0000 0.69400  0.02800  0.37940  Biso   1.000  N
  O5       1.0000 0.59080  0.74130  0.31020  Biso   1.000  O
  O6       1.0000 0.90950  0.42510  0.18890  Biso   1.000  O
  C5       1.0000 0.71770  0.61550  0.18370  Biso   1.000  C
  H3       1.0000 0.69760  0.63880  0.14000  Biso   1.000  H
  C6       1.0000 0.78130  0.55050  0.18270  Biso   1.000  C
  N3       1.0000 0.80600  0.52800  0.12060  Biso   1.000  N
  O7       1.0000 0.09080  0.24130  0.31020  Biso   1.000  O
  O8       1.0000 0.40950  0.92510  0.18890  Biso   1.000  O
  C7       1.0000 0.21770  0.11550  0.18370  Biso   1.000  C
  H4       1.0000 0.19760  0.13880  0.14000  Biso   1.000  H
  C8       1.0000 0.28130  0.05050  0.18270  Biso   1.000  C
  N4       1.0000 0.30600  0.02800  0.12060  Biso   1.000  N
  O9       1.0000 0.40920  0.74130  0.31020  Biso   1.000  O
  O10      1.0000 0.09050  0.42510  0.18890  Biso   1.000  O
  C9       1.0000 0.28230  0.61550  0.18370  Biso   1.000  C
  H5       1.0000 0.30240  0.63880  0.14000  Biso   1.000  H
  C10      1.0000 0.21870  0.55050  0.18270  Biso   1.000  C
  N5       1.0000 0.19400  0.52800  0.12060  Biso   1.000  N
  O11      1.0000 0.90920  0.24130  0.31020  Biso   1.000  O
  O12      1.0000 0.59050  0.92510  0.18890  Biso   1.000  O
  C11      1.0000 0.78230  0.11550  0.18370  Biso   1.000  C
  H6       1.0000 0.80240  0.13880  0.14000  Biso   1.000  H
  C12      1.0000 0.71870  0.05050  0.18270  Biso   1.000  C
  N6       1.0000 0.69400  0.02800  0.12060  Biso   1.000  N
  O13      1.0000 0.59080  0.74130  0.18980  Biso   1.000  O
  O14      1.0000 0.90950  0.42510  0.31110  Biso   1.000  O
  C13      1.0000 0.71770  0.61550  0.31630  Biso   1.000  C
  H7       1.0000 0.69760  0.63880  0.36000  Biso   1.000  H
  C14      1.0000 0.78130  0.55050  0.31730  Biso   1.000  C
  N7       1.0000 0.80600  0.52800  0.37940  Biso   1.000  N
  O15      1.0000 0.09080  0.24130  0.18980  Biso   1.000  O
  O16      1.0000 0.40950  0.92510  0.31110  Biso   1.000  O
  C15      1.0000 0.21770  0.11550  0.31630  Biso   1.000  C
  H8       1.0000 0.19760  0.13880  0.36000  Biso   1.000  H
  C16      1.0000 0.28130  0.05050  0.31730  Biso   1.000  C
  N8       1.0000 0.30600  0.02800  0.37940  Biso   1.000  N
  Cd1      1.0000 0.50000  0.83372  0.17023  Biso   1.000  Cd
  N9       1.0000 0.50000  0.83710  0.06100  Biso   1.000  N
  C17      1.0000 0.50000  0.91620  0.02090  Biso   1.000  C
  C18      1.0000 0.50000  0.76300  0.01930  Biso   1.000  C
  H9       1.0000 0.50000  0.96740  0.04800  Biso   1.000  H
  C19      1.0000 0.50000  0.92430  0.94950  Biso   1.000  C
  C20      1.0000 0.50000  0.77600  0.94070  Biso   1.000  C
  H10      1.0000 0.50000  0.70780  0.04010  Biso   1.000  H
  C21      1.0000 0.50000  0.84700  0.90760  Biso   1.000  C
  H11      1.0000 0.50000  0.97870  0.92730  Biso   1.000  H
  H12      1.0000 0.50000  0.72630  0.91190  Biso   1.000  H
  C22      1.0000 0.50000  0.85400  0.83310  Biso   1.000  C
  N10      1.0000 0.50000  0.80680  0.78670  Biso   1.000  N
  Cd2      1.0000 0.00000  0.33372  0.17023  Biso   1.000  Cd
  N11      1.0000 0.00000  0.33710  0.06100  Biso   1.000  N
  C23      1.0000 0.00000  0.41620  0.02090  Biso   1.000  C
  C24      1.0000 0.00000  0.26300  0.01930  Biso   1.000  C
  H13      1.0000 0.00000  0.46740  0.04800  Biso   1.000  H
  C25      1.0000 0.00000  0.42430  0.94950  Biso   1.000  C
  C26      1.0000 0.00000  0.27600  0.94070  Biso   1.000  C
  H14      1.0000 0.00000  0.20780  0.04010  Biso   1.000  H
  C27      1.0000 0.00000  0.34700  0.90760  Biso   1.000  C
  H15      1.0000 0.00000  0.47870  0.92730  Biso   1.000  H
  H16      1.0000 0.00000  0.22630  0.91190  Biso   1.000  H
  C28      1.0000 0.00000  0.35400  0.83310  Biso   1.000  C
  N12      1.0000 0.00000  0.30680  0.78670  Biso   1.000  N
  Cd3      1.0000 0.50000  0.83372  0.32977  Biso   1.000  Cd
  N13      1.0000 0.50000  0.83710  0.43900  Biso   1.000  N
  C29      1.0000 0.50000  0.91620  0.47910  Biso   1.000  C
  C30      1.0000 0.50000  0.76300  0.48070  Biso   1.000  C
  H17      1.0000 0.50000  0.96740  0.45200  Biso   1.000  H
  C31      1.0000 0.50000  0.92430  0.55050  Biso   1.000  C
  C32      1.0000 0.50000  0.77600  0.55930  Biso   1.000  C
  H18      1.0000 0.50000  0.70780  0.45990  Biso   1.000  H
  C33      1.0000 0.50000  0.84700  0.59240  Biso   1.000  C
  H19      1.0000 0.50000  0.97870  0.57270  Biso   1.000  H
  H20      1.0000 0.50000  0.72630  0.58810  Biso   1.000  H
  C34      1.0000 0.50000  0.85400  0.66690  Biso   1.000  C
  N14      1.0000 0.50000  0.80680  0.71330  Biso   1.000  N
  Cd4      1.0000 0.00000  0.33372  0.32977  Biso   1.000  Cd
  N15      1.0000 0.00000  0.33710  0.43900  Biso   1.000  N
  C35      1.0000 0.00000  0.41620  0.47910  Biso   1.000  C
  C36      1.0000 0.00000  0.26300  0.48070  Biso   1.000  C
  H21      1.0000 0.00000  0.46740  0.45200  Biso   1.000  H
  C37      1.0000 0.00000  0.42430  0.55050  Biso   1.000  C
  C38      1.0000 0.00000  0.27600  0.55930  Biso   1.000  C
  H22      1.0000 0.00000  0.20780  0.45990  Biso   1.000  H
  C39      1.0000 0.00000  0.34700  0.59240  Biso   1.000  C
  H23      1.0000 0.00000  0.47870  0.57270  Biso   1.000  H
  H24      1.0000 0.00000  0.22630  0.58810  Biso   1.000  H
  C40      1.0000 0.00000  0.35400  0.66690  Biso   1.000  C
  N16      1.0000 0.00000  0.30680  0.71330  Biso   1.000  N
  C41      1.0000 0.38320  0.71590  0.25000  Biso   1.000  C
  C42      1.0000 0.31520  0.64510  0.25000  Biso   1.000  C
  C43      1.0000 0.18680  0.51910  0.25000  Biso   1.000  C
  C44      1.0000 0.11700  0.45320  0.25000  Biso   1.000  C
  C45      1.0000 0.88320  0.21590  0.25000  Biso   1.000  C
  C46      1.0000 0.81520  0.14510  0.25000  Biso   1.000  C
  C47      1.0000 0.68680  0.01910  0.25000  Biso   1.000  C
  C48      1.0000 0.61700  0.95320  0.25000  Biso   1.000  C
  C49      1.0000 0.61680  0.71590  0.25000  Biso   1.000  C
  C50      1.0000 0.68480  0.64510  0.25000  Biso   1.000  C
  C51      1.0000 0.81320  0.51910  0.25000  Biso   1.000  C
  C52      1.0000 0.88300  0.45320  0.25000  Biso   1.000  C
  C53      1.0000 0.11680  0.21590  0.25000  Biso   1.000  C
  C54      1.0000 0.18480  0.14510  0.25000  Biso   1.000  C
  C55      1.0000 0.31320  0.01910  0.25000  Biso   1.000  C
  C56      1.0000 0.38300  0.95320  0.25000  Biso   1.000  C
  O17      1.0000 0.59080  0.25870  0.68980  Biso   1.000  O
  O18      1.0000 0.90950  0.57490  0.81110  Biso   1.000  O
  C57      1.0000 0.71770  0.38450  0.81630  Biso   1.000  C
  H25      1.0000 0.69760  0.36120  0.86000  Biso   1.000  H
  C58      1.0000 0.78130  0.44950  0.81730  Biso   1.000  C
  N17      1.0000 0.80600  0.47200  0.87940  Biso   1.000  N
  O19      1.0000 0.09080  0.75870  0.68980  Biso   1.000  O
  O20      1.0000 0.40950  0.07490  0.81110  Biso   1.000  O
  C59      1.0000 0.21770  0.88450  0.81630  Biso   1.000  C
  H26      1.0000 0.19760  0.86120  0.86000  Biso   1.000  H
  C60      1.0000 0.28130  0.94950  0.81730  Biso   1.000  C
  N18      1.0000 0.30600  0.97200  0.87940  Biso   1.000  N
  O21      1.0000 0.40920  0.25870  0.81020  Biso   1.000  O
  O22      1.0000 0.09050  0.57490  0.68890  Biso   1.000  O
  C61      1.0000 0.28230  0.38450  0.68370  Biso   1.000  C
  H27      1.0000 0.30240  0.36120  0.64000  Biso   1.000  H
  C62      1.0000 0.21870  0.44950  0.68270  Biso   1.000  C
  N19      1.0000 0.19400  0.47200  0.62060  Biso   1.000  N
  O23      1.0000 0.90920  0.75870  0.81020  Biso   1.000  O
  O24      1.0000 0.59050  0.07490  0.68890  Biso   1.000  O
  C63      1.0000 0.78230  0.88450  0.68370  Biso   1.000  C
  H28      1.0000 0.80240  0.86120  0.64000  Biso   1.000  H
  C64      1.0000 0.71870  0.94950  0.68270  Biso   1.000  C
  N20      1.0000 0.69400  0.97200  0.62060  Biso   1.000  N
  O25      1.0000 0.59080  0.25870  0.81020  Biso   1.000  O
  O26      1.0000 0.90950  0.57490  0.68890  Biso   1.000  O
  C65      1.0000 0.71770  0.38450  0.68370  Biso   1.000  C
  H29      1.0000 0.69760  0.36120  0.64000  Biso   1.000  H
  C66      1.0000 0.78130  0.44950  0.68270  Biso   1.000  C
  N21      1.0000 0.80600  0.47200  0.62060  Biso   1.000  N
  O27      1.0000 0.09080  0.75870  0.81020  Biso   1.000  O
  O28      1.0000 0.40950  0.07490  0.68890  Biso   1.000  O
  C67      1.0000 0.21770  0.88450  0.68370  Biso   1.000  C
  H30      1.0000 0.19760  0.86120  0.64000  Biso   1.000  H
  C68      1.0000 0.28130  0.94950  0.68270  Biso   1.000  C
  N22      1.0000 0.30600  0.97200  0.62060  Biso   1.000  N
  O29      1.0000 0.40920  0.25870  0.68980  Biso   1.000  O
  O30      1.0000 0.09050  0.57490  0.81110  Biso   1.000  O
  C69      1.0000 0.28230  0.38450  0.81630  Biso   1.000  C
  H31      1.0000 0.30240  0.36120  0.86000  Biso   1.000  H
  C70      1.0000 0.21870  0.44950  0.81730  Biso   1.000  C
  N23      1.0000 0.19400  0.47200  0.87940  Biso   1.000  N
  O31      1.0000 0.90920  0.75870  0.68980  Biso   1.000  O
  O32      1.0000 0.59050  0.07490  0.81110  Biso   1.000  O
  C71      1.0000 0.78230  0.88450  0.81630  Biso   1.000  C
  H32      1.0000 0.80240  0.86120  0.86000  Biso   1.000  H
  C72      1.0000 0.71870  0.94950  0.81730  Biso   1.000  C
  N24      1.0000 0.69400  0.97200  0.87940  Biso   1.000  N
  Cd5      1.0000 0.50000  0.16628  0.67023  Biso   1.000  Cd
  N25      1.0000 0.50000  0.16290  0.56100  Biso   1.000  N
  C73      1.0000 0.50000  0.08380  0.52090  Biso   1.000  C
  C74      1.0000 0.50000  0.23700  0.51930  Biso   1.000  C
  H33      1.0000 0.50000  0.03260  0.54800  Biso   1.000  H
  C75      1.0000 0.50000  0.07570  0.44950  Biso   1.000  C
  C76      1.0000 0.50000  0.22400  0.44070  Biso   1.000  C
  H34      1.0000 0.50000  0.29220  0.54010  Biso   1.000  H
  C77      1.0000 0.50000  0.15300  0.40760  Biso   1.000  C
  H35      1.0000 0.50000  0.02130  0.42730  Biso   1.000  H
  H36      1.0000 0.50000  0.27370  0.41190  Biso   1.000  H
  C78      1.0000 0.50000  0.14600  0.33310  Biso   1.000  C
  N26      1.0000 0.50000  0.19320  0.28670  Biso   1.000  N
  Cd6      1.0000 0.00000  0.66628  0.67023  Biso   1.000  Cd
  N27      1.0000 0.00000  0.66290  0.56100  Biso   1.000  N
  C79      1.0000 0.00000  0.58380  0.52090  Biso   1.000  C
  C80      1.0000 0.00000  0.73700  0.51930  Biso   1.000  C
  H37      1.0000 0.00000  0.53260  0.54800  Biso   1.000  H
  C81      1.0000 0.00000  0.57570  0.44950  Biso   1.000  C
  C82      1.0000 0.00000  0.72400  0.44070  Biso   1.000  C
  H38      1.0000 0.00000  0.79220  0.54010  Biso   1.000  H
  C83      1.0000 0.00000  0.65300  0.40760  Biso   1.000  C
  H39      1.0000 0.00000  0.52130  0.42730  Biso   1.000  H
  H40      1.0000 0.00000  0.77370  0.41190  Biso   1.000  H
  C84      1.0000 0.00000  0.64600  0.33310  Biso   1.000  C
  N28      1.0000 0.00000  0.69320  0.28670  Biso   1.000  N
  Cd7      1.0000 0.50000  0.16628  0.82977  Biso   1.000  Cd
  N29      1.0000 0.50000  0.16290  0.93900  Biso   1.000  N
  C85      1.0000 0.50000  0.08380  0.97910  Biso   1.000  C
  C86      1.0000 0.50000  0.23700  0.98070  Biso   1.000  C
  H41      1.0000 0.50000  0.03260  0.95200  Biso   1.000  H
  C87      1.0000 0.50000  0.07570  0.05050  Biso   1.000  C
  C88      1.0000 0.50000  0.22400  0.05930  Biso   1.000  C
  H42      1.0000 0.50000  0.29220  0.95990  Biso   1.000  H
  C89      1.0000 0.50000  0.15300  0.09240  Biso   1.000  C
  H43      1.0000 0.50000  0.02130  0.07270  Biso   1.000  H
  H44      1.0000 0.50000  0.27370  0.08810  Biso   1.000  H
  C90      1.0000 0.50000  0.14600  0.16690  Biso   1.000  C
  N30      1.0000 0.50000  0.19320  0.21330  Biso   1.000  N
  Cd8      1.0000 0.00000  0.66628  0.82977  Biso   1.000  Cd
  N31      1.0000 0.00000  0.66290  0.93900  Biso   1.000  N
  C91      1.0000 0.00000  0.58380  0.97910  Biso   1.000  C
  C92      1.0000 0.00000  0.73700  0.98070  Biso   1.000  C
  H45      1.0000 0.00000  0.53260  0.95200  Biso   1.000  H
  C93      1.0000 0.00000  0.57570  0.05050  Biso   1.000  C
  C94      1.0000 0.00000  0.72400  0.05930  Biso   1.000  C
  H46      1.0000 0.00000  0.79220  0.95990  Biso   1.000  H
  C95      1.0000 0.00000  0.65300  0.09240  Biso   1.000  C
  H47      1.0000 0.00000  0.52130  0.07270  Biso   1.000  H
  H48      1.0000 0.00000  0.77370  0.08810  Biso   1.000  H
  C96      1.0000 0.00000  0.64600  0.16690  Biso   1.000  C
  N32      1.0000 0.00000  0.69320  0.21330  Biso   1.000  N
  C97      1.0000 0.61680  0.28410  0.75000  Biso   1.000  C
  C98      1.0000 0.68480  0.35490  0.75000  Biso   1.000  C
  C99      1.0000 0.81320  0.48090  0.75000  Biso   1.000  C
  C100     1.0000 0.88300  0.54680  0.75000  Biso   1.000  C
  C101     1.0000 0.11680  0.78410  0.75000  Biso   1.000  C
  C102     1.0000 0.18480  0.85490  0.75000  Biso   1.000  C
  C103     1.0000 0.31320  0.98090  0.75000  Biso   1.000  C
  C104     1.0000 0.38300  0.04680  0.75000  Biso   1.000  C
  C105     1.0000 0.38320  0.28410  0.75000  Biso   1.000  C
  C106     1.0000 0.31520  0.35490  0.75000  Biso   1.000  C
  C107     1.0000 0.18680  0.48090  0.75000  Biso   1.000  C
  C108     1.0000 0.11700  0.54680  0.75000  Biso   1.000  C
  C109     1.0000 0.88320  0.78410  0.75000  Biso   1.000  C
  C110     1.0000 0.81520  0.85490  0.75000  Biso   1.000  C
  C111     1.0000 0.68680  0.98090  0.75000  Biso   1.000  C
  C112     1.0000 0.61700  0.04680  0.75000  Biso   1.000  C
