data_image0
_cell_length_a       18.6179
_cell_length_b       18.6179
_cell_length_c       34.147
_cell_angle_alpha    90
_cell_angle_beta     90
_cell_angle_gamma    120

_symmetry_space_group_name_H-M    "P 1"
_symmetry_int_tables_number       1

loop_
  _symmetry_equiv_pos_as_xyz
  'x, y, z'

loop_
  _atom_site_label
  _atom_site_occupancy
  _atom_site_fract_x
  _atom_site_fract_y
  _atom_site_fract_z
  _atom_site_thermal_displace_type
  _atom_site_B_iso_or_equiv
  _atom_site_type_symbol
  O1       1.0000 0.58919  0.02920  0.05004  Biso   1.000  O
  O2       1.0000 0.62896  0.10993  0.99662  Biso   1.000  O
  C1       1.0000 0.63970  0.09150  0.03110  Biso   1.000  C
  C2       1.0000 0.72110  0.14970  0.05002  Biso   1.000  C
  C3       1.0000 0.73780  0.13430  0.08805  Biso   1.000  C
  H1       1.0000 0.70010  0.08570  0.10070  Biso   1.000  H
  C4       1.0000 0.80050  0.09850  0.16240  Biso   1.000  C
  H2       1.0000 0.78220  0.05570  0.14420  Biso   1.000  H
  C5       1.0000 0.80370  0.07990  0.20150  Biso   1.000  C
  H3       1.0000 0.78360  0.02620  0.21070  Biso   1.000  H
  C6       1.0000 0.85190  0.24170  0.17630  Biso   1.000  C
  H4       1.0000 0.86810  0.29570  0.16860  Biso   1.000  H
  C7       1.0000 0.85520  0.22190  0.21620  Biso   1.000  C
  O3       1.0000 0.97080  0.55999  0.05004  Biso   1.000  O
  O4       1.0000 0.89007  0.51903  0.99662  Biso   1.000  O
  C8       1.0000 0.90850  0.54820  0.03110  Biso   1.000  C
  C9       1.0000 0.85030  0.57140  0.05002  Biso   1.000  C
  C10      1.0000 0.86570  0.60350  0.08805  Biso   1.000  C
  H5       1.0000 0.91430  0.61440  0.10070  Biso   1.000  H
  C11      1.0000 0.90150  0.70200  0.16240  Biso   1.000  C
  H6       1.0000 0.94430  0.72650  0.14420  Biso   1.000  H
  C12      1.0000 0.92010  0.72380  0.20150  Biso   1.000  C
  H7       1.0000 0.97380  0.75740  0.21070  Biso   1.000  H
  C13      1.0000 0.75830  0.61020  0.17630  Biso   1.000  C
  H8       1.0000 0.70430  0.57240  0.16860  Biso   1.000  H
  C14      1.0000 0.77810  0.63330  0.21620  Biso   1.000  C
  O5       1.0000 0.44001  0.41081  0.05004  Biso   1.000  O
  O6       1.0000 0.48097  0.37104  0.99662  Biso   1.000  O
  C15      1.0000 0.45180  0.36030  0.03110  Biso   1.000  C
  C16      1.0000 0.42860  0.27890  0.05002  Biso   1.000  C
  C17      1.0000 0.39650  0.26220  0.08805  Biso   1.000  C
  H9       1.0000 0.38560  0.29990  0.10070  Biso   1.000  H
  C18      1.0000 0.29800  0.19950  0.16240  Biso   1.000  C
  H10      1.0000 0.27350  0.21780  0.14420  Biso   1.000  H
  C19      1.0000 0.27620  0.19630  0.20150  Biso   1.000  C
  H11      1.0000 0.24260  0.21640  0.21070  Biso   1.000  H
  C20      1.0000 0.38980  0.14810  0.17630  Biso   1.000  C
  H12      1.0000 0.42760  0.13190  0.16860  Biso   1.000  H
  C21      1.0000 0.36670  0.14480  0.21620  Biso   1.000  C
  O7       1.0000 0.41081  0.97080  0.55004  Biso   1.000  O
  O8       1.0000 0.37104  0.89007  0.49662  Biso   1.000  O
  C22      1.0000 0.36030  0.90850  0.53110  Biso   1.000  C
  C23      1.0000 0.27890  0.85030  0.55002  Biso   1.000  C
  C24      1.0000 0.26220  0.86570  0.58805  Biso   1.000  C
  H13      1.0000 0.29990  0.91430  0.60070  Biso   1.000  H
  C25      1.0000 0.19950  0.90150  0.66240  Biso   1.000  C
  H14      1.0000 0.21780  0.94430  0.64420  Biso   1.000  H
  C26      1.0000 0.19630  0.92010  0.70150  Biso   1.000  C
  H15      1.0000 0.21640  0.97380  0.71070  Biso   1.000  H
  C27      1.0000 0.14810  0.75830  0.67630  Biso   1.000  C
  H16      1.0000 0.13190  0.70430  0.66860  Biso   1.000  H
  C28      1.0000 0.14480  0.77810  0.71620  Biso   1.000  C
  O9       1.0000 0.02920  0.44001  0.55004  Biso   1.000  O
  O10      1.0000 0.10993  0.48097  0.49662  Biso   1.000  O
  C29      1.0000 0.09150  0.45180  0.53110  Biso   1.000  C
  C30      1.0000 0.14970  0.42860  0.55002  Biso   1.000  C
  C31      1.0000 0.13430  0.39650  0.58805  Biso   1.000  C
  H17      1.0000 0.08570  0.38560  0.60070  Biso   1.000  H
  C32      1.0000 0.09850  0.29800  0.66240  Biso   1.000  C
  H18      1.0000 0.05570  0.27350  0.64420  Biso   1.000  H
  C33      1.0000 0.07990  0.27620  0.70150  Biso   1.000  C
  H19      1.0000 0.02620  0.24260  0.71070  Biso   1.000  H
  C34      1.0000 0.24170  0.38980  0.67630  Biso   1.000  C
  H20      1.0000 0.29570  0.42760  0.66860  Biso   1.000  H
  C35      1.0000 0.22190  0.36670  0.71620  Biso   1.000  C
  O11      1.0000 0.55999  0.58919  0.55004  Biso   1.000  O
  O12      1.0000 0.51903  0.62896  0.49662  Biso   1.000  O
  C36      1.0000 0.54820  0.63970  0.53110  Biso   1.000  C
  C37      1.0000 0.57140  0.72110  0.55002  Biso   1.000  C
  C38      1.0000 0.60350  0.73780  0.58805  Biso   1.000  C
  H21      1.0000 0.61440  0.70010  0.60070  Biso   1.000  H
  C39      1.0000 0.70200  0.80050  0.66240  Biso   1.000  C
  H22      1.0000 0.72650  0.78220  0.64420  Biso   1.000  H
  C40      1.0000 0.72380  0.80370  0.70150  Biso   1.000  C
  H23      1.0000 0.75740  0.78360  0.71070  Biso   1.000  H
  C41      1.0000 0.61020  0.85190  0.67630  Biso   1.000  C
  H24      1.0000 0.57240  0.86810  0.66860  Biso   1.000  H
  C42      1.0000 0.63330  0.85520  0.71620  Biso   1.000  C
  O13      1.0000 0.02920  0.58919  0.94996  Biso   1.000  O
  O14      1.0000 0.10993  0.62896  0.00338  Biso   1.000  O
  C43      1.0000 0.09150  0.63970  0.96890  Biso   1.000  C
  C44      1.0000 0.14970  0.72110  0.94998  Biso   1.000  C
  C45      1.0000 0.13430  0.73780  0.91195  Biso   1.000  C
  H25      1.0000 0.08570  0.70010  0.89930  Biso   1.000  H
  C46      1.0000 0.09850  0.80050  0.83760  Biso   1.000  C
  H26      1.0000 0.05570  0.78220  0.85580  Biso   1.000  H
  C47      1.0000 0.07990  0.80370  0.79850  Biso   1.000  C
  H27      1.0000 0.02620  0.78360  0.78930  Biso   1.000  H
  C48      1.0000 0.24170  0.85190  0.82370  Biso   1.000  C
  H28      1.0000 0.29570  0.86810  0.83140  Biso   1.000  H
  C49      1.0000 0.22190  0.85520  0.78380  Biso   1.000  C
  O15      1.0000 0.55999  0.97080  0.94996  Biso   1.000  O
  O16      1.0000 0.51903  0.89007  0.00338  Biso   1.000  O
  C50      1.0000 0.54820  0.90850  0.96890  Biso   1.000  C
  C51      1.0000 0.57140  0.85030  0.94998  Biso   1.000  C
  C52      1.0000 0.60350  0.86570  0.91195  Biso   1.000  C
  H29      1.0000 0.61440  0.91430  0.89930  Biso   1.000  H
  C53      1.0000 0.70200  0.90150  0.83760  Biso   1.000  C
  H30      1.0000 0.72650  0.94430  0.85580  Biso   1.000  H
  C54      1.0000 0.72380  0.92010  0.79850  Biso   1.000  C
  H31      1.0000 0.75740  0.97380  0.78930  Biso   1.000  H
  C55      1.0000 0.61020  0.75830  0.82370  Biso   1.000  C
  H32      1.0000 0.57240  0.70430  0.83140  Biso   1.000  H
  C56      1.0000 0.63330  0.77810  0.78380  Biso   1.000  C
  O17      1.0000 0.41081  0.44001  0.94996  Biso   1.000  O
  O18      1.0000 0.37104  0.48097  0.00338  Biso   1.000  O
  C57      1.0000 0.36030  0.45180  0.96890  Biso   1.000  C
  C58      1.0000 0.27890  0.42860  0.94998  Biso   1.000  C
  C59      1.0000 0.26220  0.39650  0.91195  Biso   1.000  C
  H33      1.0000 0.29990  0.38560  0.89930  Biso   1.000  H
  C60      1.0000 0.19950  0.29800  0.83760  Biso   1.000  C
  H34      1.0000 0.21780  0.27350  0.85580  Biso   1.000  H
  C61      1.0000 0.19630  0.27620  0.79850  Biso   1.000  C
  H35      1.0000 0.21640  0.24260  0.78930  Biso   1.000  H
  C62      1.0000 0.14810  0.38980  0.82370  Biso   1.000  C
  H36      1.0000 0.13190  0.42760  0.83140  Biso   1.000  H
  C63      1.0000 0.14480  0.36670  0.78380  Biso   1.000  C
  O19      1.0000 0.97080  0.41081  0.44996  Biso   1.000  O
  O20      1.0000 0.89007  0.37104  0.50338  Biso   1.000  O
  C64      1.0000 0.90850  0.36030  0.46890  Biso   1.000  C
  C65      1.0000 0.85030  0.27890  0.44998  Biso   1.000  C
  C66      1.0000 0.86570  0.26220  0.41195  Biso   1.000  C
  H37      1.0000 0.91430  0.29990  0.39930  Biso   1.000  H
  C67      1.0000 0.90150  0.19950  0.33760  Biso   1.000  C
  H38      1.0000 0.94430  0.21780  0.35580  Biso   1.000  H
  C68      1.0000 0.92010  0.19630  0.29850  Biso   1.000  C
  H39      1.0000 0.97380  0.21640  0.28930  Biso   1.000  H
  C69      1.0000 0.75830  0.14810  0.32370  Biso   1.000  C
  H40      1.0000 0.70430  0.13190  0.33140  Biso   1.000  H
  C70      1.0000 0.77810  0.14480  0.28380  Biso   1.000  C
  O21      1.0000 0.44001  0.02920  0.44996  Biso   1.000  O
  O22      1.0000 0.48097  0.10993  0.50338  Biso   1.000  O
  C71      1.0000 0.45180  0.09150  0.46890  Biso   1.000  C
  C72      1.0000 0.42860  0.14970  0.44998  Biso   1.000  C
  C73      1.0000 0.39650  0.13430  0.41195  Biso   1.000  C
  H41      1.0000 0.38560  0.08570  0.39930  Biso   1.000  H
  C74      1.0000 0.29800  0.09850  0.33760  Biso   1.000  C
  H42      1.0000 0.27350  0.05570  0.35580  Biso   1.000  H
  C75      1.0000 0.27620  0.07990  0.29850  Biso   1.000  C
  H43      1.0000 0.24260  0.02620  0.28930  Biso   1.000  H
  C76      1.0000 0.38980  0.24170  0.32370  Biso   1.000  C
  H44      1.0000 0.42760  0.29570  0.33140  Biso   1.000  H
  C77      1.0000 0.36670  0.22190  0.28380  Biso   1.000  C
  O23      1.0000 0.58919  0.55999  0.44996  Biso   1.000  O
  O24      1.0000 0.62896  0.51903  0.50338  Biso   1.000  O
  C78      1.0000 0.63970  0.54820  0.46890  Biso   1.000  C
  C79      1.0000 0.72110  0.57140  0.44998  Biso   1.000  C
  C80      1.0000 0.73780  0.60350  0.41195  Biso   1.000  C
  H45      1.0000 0.70010  0.61440  0.39930  Biso   1.000  H
  C81      1.0000 0.80050  0.70200  0.33760  Biso   1.000  C
  H46      1.0000 0.78220  0.72650  0.35580  Biso   1.000  H
  C82      1.0000 0.80370  0.72380  0.29850  Biso   1.000  C
  H47      1.0000 0.78360  0.75740  0.28930  Biso   1.000  H
  C83      1.0000 0.85190  0.61020  0.32370  Biso   1.000  C
  H48      1.0000 0.86810  0.57240  0.33140  Biso   1.000  H
  C84      1.0000 0.85520  0.63330  0.28380  Biso   1.000  C
  O25      1.0000 0.41081  0.97080  0.94996  Biso   1.000  O
  O26      1.0000 0.37104  0.89007  0.00338  Biso   1.000  O
  C85      1.0000 0.36030  0.90850  0.96890  Biso   1.000  C
  C86      1.0000 0.27890  0.85030  0.94998  Biso   1.000  C
  C87      1.0000 0.26220  0.86570  0.91195  Biso   1.000  C
  H49      1.0000 0.29990  0.91430  0.89930  Biso   1.000  H
  C88      1.0000 0.19950  0.90150  0.83760  Biso   1.000  C
  H50      1.0000 0.21780  0.94430  0.85580  Biso   1.000  H
  C89      1.0000 0.19630  0.92010  0.79850  Biso   1.000  C
  H51      1.0000 0.21640  0.97380  0.78930  Biso   1.000  H
  C90      1.0000 0.14810  0.75830  0.82370  Biso   1.000  C
  H52      1.0000 0.13190  0.70430  0.83140  Biso   1.000  H
  C91      1.0000 0.14480  0.77810  0.78380  Biso   1.000  C
  O27      1.0000 0.02920  0.44001  0.94996  Biso   1.000  O
  O28      1.0000 0.10993  0.48097  0.00338  Biso   1.000  O
  C92      1.0000 0.09150  0.45180  0.96890  Biso   1.000  C
  C93      1.0000 0.14970  0.42860  0.94998  Biso   1.000  C
  C94      1.0000 0.13430  0.39650  0.91195  Biso   1.000  C
  H53      1.0000 0.08570  0.38560  0.89930  Biso   1.000  H
  C95      1.0000 0.09850  0.29800  0.83760  Biso   1.000  C
  H54      1.0000 0.05570  0.27350  0.85580  Biso   1.000  H
  C96      1.0000 0.07990  0.27620  0.79850  Biso   1.000  C
  H55      1.0000 0.02620  0.24260  0.78930  Biso   1.000  H
  C97      1.0000 0.24170  0.38980  0.82370  Biso   1.000  C
  H56      1.0000 0.29570  0.42760  0.83140  Biso   1.000  H
  C98      1.0000 0.22190  0.36670  0.78380  Biso   1.000  C
  O29      1.0000 0.55999  0.58919  0.94996  Biso   1.000  O
  O30      1.0000 0.51903  0.62896  0.00338  Biso   1.000  O
  C99      1.0000 0.54820  0.63970  0.96890  Biso   1.000  C
  C100     1.0000 0.57140  0.72110  0.94998  Biso   1.000  C
  C101     1.0000 0.60350  0.73780  0.91195  Biso   1.000  C
  H57      1.0000 0.61440  0.70010  0.89930  Biso   1.000  H
  C102     1.0000 0.70200  0.80050  0.83760  Biso   1.000  C
  H58      1.0000 0.72650  0.78220  0.85580  Biso   1.000  H
  C103     1.0000 0.72380  0.80370  0.79850  Biso   1.000  C
  H59      1.0000 0.75740  0.78360  0.78930  Biso   1.000  H
  C104     1.0000 0.61020  0.85190  0.82370  Biso   1.000  C
  H60      1.0000 0.57240  0.86810  0.83140  Biso   1.000  H
  C105     1.0000 0.63330  0.85520  0.78380  Biso   1.000  C
  O31      1.0000 0.58919  0.02920  0.44996  Biso   1.000  O
  O32      1.0000 0.62896  0.10993  0.50338  Biso   1.000  O
  C106     1.0000 0.63970  0.09150  0.46890  Biso   1.000  C
  C107     1.0000 0.72110  0.14970  0.44998  Biso   1.000  C
  C108     1.0000 0.73780  0.13430  0.41195  Biso   1.000  C
  H61      1.0000 0.70010  0.08570  0.39930  Biso   1.000  H
  C109     1.0000 0.80050  0.09850  0.33760  Biso   1.000  C
  H62      1.0000 0.78220  0.05570  0.35580  Biso   1.000  H
  C110     1.0000 0.80370  0.07990  0.29850  Biso   1.000  C
  H63      1.0000 0.78360  0.02620  0.28930  Biso   1.000  H
  C111     1.0000 0.85190  0.24170  0.32370  Biso   1.000  C
  H64      1.0000 0.86810  0.29570  0.33140  Biso   1.000  H
  C112     1.0000 0.85520  0.22190  0.28380  Biso   1.000  C
  O33      1.0000 0.97080  0.55999  0.44996  Biso   1.000  O
  O34      1.0000 0.89007  0.51903  0.50338  Biso   1.000  O
  C113     1.0000 0.90850  0.54820  0.46890  Biso   1.000  C
  C114     1.0000 0.85030  0.57140  0.44998  Biso   1.000  C
  C115     1.0000 0.86570  0.60350  0.41195  Biso   1.000  C
  H65      1.0000 0.91430  0.61440  0.39930  Biso   1.000  H
  C116     1.0000 0.90150  0.70200  0.33760  Biso   1.000  C
  H66      1.0000 0.94430  0.72650  0.35580  Biso   1.000  H
  C117     1.0000 0.92010  0.72380  0.29850  Biso   1.000  C
  H67      1.0000 0.97380  0.75740  0.28930  Biso   1.000  H
  C118     1.0000 0.75830  0.61020  0.32370  Biso   1.000  C
  H68      1.0000 0.70430  0.57240  0.33140  Biso   1.000  H
  C119     1.0000 0.77810  0.63330  0.28380  Biso   1.000  C
  O35      1.0000 0.44001  0.41081  0.44996  Biso   1.000  O
  O36      1.0000 0.48097  0.37104  0.50338  Biso   1.000  O
  C120     1.0000 0.45180  0.36030  0.46890  Biso   1.000  C
  C121     1.0000 0.42860  0.27890  0.44998  Biso   1.000  C
  C122     1.0000 0.39650  0.26220  0.41195  Biso   1.000  C
  H69      1.0000 0.38560  0.29990  0.39930  Biso   1.000  H
  C123     1.0000 0.29800  0.19950  0.33760  Biso   1.000  C
  H70      1.0000 0.27350  0.21780  0.35580  Biso   1.000  H
  C124     1.0000 0.27620  0.19630  0.29850  Biso   1.000  C
  H71      1.0000 0.24260  0.21640  0.28930  Biso   1.000  H
  C125     1.0000 0.38980  0.14810  0.32370  Biso   1.000  C
  H72      1.0000 0.42760  0.13190  0.33140  Biso   1.000  H
  C126     1.0000 0.36670  0.14480  0.28380  Biso   1.000  C
  O37      1.0000 0.97080  0.41081  0.05004  Biso   1.000  O
  O38      1.0000 0.89007  0.37104  0.99662  Biso   1.000  O
  C127     1.0000 0.90850  0.36030  0.03110  Biso   1.000  C
  C128     1.0000 0.85030  0.27890  0.05002  Biso   1.000  C
  C129     1.0000 0.86570  0.26220  0.08805  Biso   1.000  C
  H73      1.0000 0.91430  0.29990  0.10070  Biso   1.000  H
  C130     1.0000 0.90150  0.19950  0.16240  Biso   1.000  C
  H74      1.0000 0.94430  0.21780  0.14420  Biso   1.000  H
  C131     1.0000 0.92010  0.19630  0.20150  Biso   1.000  C
  H75      1.0000 0.97380  0.21640  0.21070  Biso   1.000  H
  C132     1.0000 0.75830  0.14810  0.17630  Biso   1.000  C
  H76      1.0000 0.70430  0.13190  0.16860  Biso   1.000  H
  C133     1.0000 0.77810  0.14480  0.21620  Biso   1.000  C
  O39      1.0000 0.44001  0.02920  0.05004  Biso   1.000  O
  O40      1.0000 0.48097  0.10993  0.99662  Biso   1.000  O
  C134     1.0000 0.45180  0.09150  0.03110  Biso   1.000  C
  C135     1.0000 0.42860  0.14970  0.05002  Biso   1.000  C
  C136     1.0000 0.39650  0.13430  0.08805  Biso   1.000  C
  H77      1.0000 0.38560  0.08570  0.10070  Biso   1.000  H
  C137     1.0000 0.29800  0.09850  0.16240  Biso   1.000  C
  H78      1.0000 0.27350  0.05570  0.14420  Biso   1.000  H
  C138     1.0000 0.27620  0.07990  0.20150  Biso   1.000  C
  H79      1.0000 0.24260  0.02620  0.21070  Biso   1.000  H
  C139     1.0000 0.38980  0.24170  0.17630  Biso   1.000  C
  H80      1.0000 0.42760  0.29570  0.16860  Biso   1.000  H
  C140     1.0000 0.36670  0.22190  0.21620  Biso   1.000  C
  O41      1.0000 0.58919  0.55999  0.05004  Biso   1.000  O
  O42      1.0000 0.62896  0.51903  0.99662  Biso   1.000  O
  C141     1.0000 0.63970  0.54820  0.03110  Biso   1.000  C
  C142     1.0000 0.72110  0.57140  0.05002  Biso   1.000  C
  C143     1.0000 0.73780  0.60350  0.08805  Biso   1.000  C
  H81      1.0000 0.70010  0.61440  0.10070  Biso   1.000  H
  C144     1.0000 0.80050  0.70200  0.16240  Biso   1.000  C
  H82      1.0000 0.78220  0.72650  0.14420  Biso   1.000  H
  C145     1.0000 0.80370  0.72380  0.20150  Biso   1.000  C
  H83      1.0000 0.78360  0.75740  0.21070  Biso   1.000  H
  C146     1.0000 0.85190  0.61020  0.17630  Biso   1.000  C
  H84      1.0000 0.86810  0.57240  0.16860  Biso   1.000  H
  C147     1.0000 0.85520  0.63330  0.21620  Biso   1.000  C
  O43      1.0000 0.02920  0.58919  0.55004  Biso   1.000  O
  O44      1.0000 0.10993  0.62896  0.49662  Biso   1.000  O
  C148     1.0000 0.09150  0.63970  0.53110  Biso   1.000  C
  C149     1.0000 0.14970  0.72110  0.55002  Biso   1.000  C
  C150     1.0000 0.13430  0.73780  0.58805  Biso   1.000  C
  H85      1.0000 0.08570  0.70010  0.60070  Biso   1.000  H
  C151     1.0000 0.09850  0.80050  0.66240  Biso   1.000  C
  H86      1.0000 0.05570  0.78220  0.64420  Biso   1.000  H
  C152     1.0000 0.07990  0.80370  0.70150  Biso   1.000  C
  H87      1.0000 0.02620  0.78360  0.71070  Biso   1.000  H
  C153     1.0000 0.24170  0.85190  0.67630  Biso   1.000  C
  H88      1.0000 0.29570  0.86810  0.66860  Biso   1.000  H
  C154     1.0000 0.22190  0.85520  0.71620  Biso   1.000  C
  O45      1.0000 0.55999  0.97080  0.55004  Biso   1.000  O
  O46      1.0000 0.51903  0.89007  0.49662  Biso   1.000  O
  C155     1.0000 0.54820  0.90850  0.53110  Biso   1.000  C
  C156     1.0000 0.57140  0.85030  0.55002  Biso   1.000  C
  C157     1.0000 0.60350  0.86570  0.58805  Biso   1.000  C
  H89      1.0000 0.61440  0.91430  0.60070  Biso   1.000  H
  C158     1.0000 0.70200  0.90150  0.66240  Biso   1.000  C
  H90      1.0000 0.72650  0.94430  0.64420  Biso   1.000  H
  C159     1.0000 0.72380  0.92010  0.70150  Biso   1.000  C
  H91      1.0000 0.75740  0.97380  0.71070  Biso   1.000  H
  C160     1.0000 0.61020  0.75830  0.67630  Biso   1.000  C
  H92      1.0000 0.57240  0.70430  0.66860  Biso   1.000  H
  C161     1.0000 0.63330  0.77810  0.71620  Biso   1.000  C
  O47      1.0000 0.41081  0.44001  0.55004  Biso   1.000  O
  O48      1.0000 0.37104  0.48097  0.49662  Biso   1.000  O
  C162     1.0000 0.36030  0.45180  0.53110  Biso   1.000  C
  C163     1.0000 0.27890  0.42860  0.55002  Biso   1.000  C
  C164     1.0000 0.26220  0.39650  0.58805  Biso   1.000  C
  H93      1.0000 0.29990  0.38560  0.60070  Biso   1.000  H
  C165     1.0000 0.19950  0.29800  0.66240  Biso   1.000  C
  H94      1.0000 0.21780  0.27350  0.64420  Biso   1.000  H
  C166     1.0000 0.19630  0.27620  0.70150  Biso   1.000  C
  H95      1.0000 0.21640  0.24260  0.71070  Biso   1.000  H
  C167     1.0000 0.14810  0.38980  0.67630  Biso   1.000  C
  H96      1.0000 0.13190  0.42760  0.66860  Biso   1.000  H
  C168     1.0000 0.14480  0.36670  0.71620  Biso   1.000  C
  Cu1      1.0000 0.47610  0.95219  0.03172  Biso   1.000  Cu
  Cu2      1.0000 0.04781  0.52390  0.03172  Biso   1.000  Cu
  Cu3      1.0000 0.47610  0.52390  0.03172  Biso   1.000  Cu
  Cu4      1.0000 0.52390  0.04781  0.53172  Biso   1.000  Cu
  Cu5      1.0000 0.95219  0.47610  0.53172  Biso   1.000  Cu
  Cu6      1.0000 0.52390  0.47610  0.53172  Biso   1.000  Cu
  Cu7      1.0000 0.95219  0.47609  0.96828  Biso   1.000  Cu
  Cu8      1.0000 0.52390  0.04781  0.96828  Biso   1.000  Cu
  Cu9      1.0000 0.52390  0.47610  0.96828  Biso   1.000  Cu
  Cu10     1.0000 0.04781  0.52390  0.46828  Biso   1.000  Cu
  Cu11     1.0000 0.47610  0.95219  0.46828  Biso   1.000  Cu
  Cu12     1.0000 0.47610  0.52390  0.46828  Biso   1.000  Cu
  O49      1.0000 0.90340  0.35460  0.25000  Biso   1.000  O
  C169     1.0000 0.87410  0.27700  0.25000  Biso   1.000  C
  O50      1.0000 0.64540  0.54880  0.25000  Biso   1.000  O
  C170     1.0000 0.72300  0.59710  0.25000  Biso   1.000  C
  O51      1.0000 0.45120  0.09660  0.25000  Biso   1.000  O
  C171     1.0000 0.40290  0.12590  0.25000  Biso   1.000  C
  O52      1.0000 0.09660  0.64540  0.75000  Biso   1.000  O
  C172     1.0000 0.12590  0.72300  0.75000  Biso   1.000  C
  O53      1.0000 0.35460  0.45120  0.75000  Biso   1.000  O
  C173     1.0000 0.27700  0.40290  0.75000  Biso   1.000  C
  O54      1.0000 0.54880  0.90340  0.75000  Biso   1.000  O
  C174     1.0000 0.59710  0.87410  0.75000  Biso   1.000  C
  O55      1.0000 0.35460  0.90340  0.75000  Biso   1.000  O
  C175     1.0000 0.27700  0.87410  0.75000  Biso   1.000  C
  O56      1.0000 0.54880  0.64540  0.75000  Biso   1.000  O
  C176     1.0000 0.59710  0.72300  0.75000  Biso   1.000  C
  O57      1.0000 0.09660  0.45120  0.75000  Biso   1.000  O
  C177     1.0000 0.12590  0.40290  0.75000  Biso   1.000  C
  O58      1.0000 0.64540  0.09660  0.25000  Biso   1.000  O
  C178     1.0000 0.72300  0.12590  0.25000  Biso   1.000  C
  O59      1.0000 0.45120  0.35460  0.25000  Biso   1.000  O
  C179     1.0000 0.40290  0.27700  0.25000  Biso   1.000  C
  O60      1.0000 0.90340  0.54880  0.25000  Biso   1.000  O
  C180     1.0000 0.87410  0.59710  0.25000  Biso   1.000  C
  C181     1.0000 0.77804  0.22196  0.03147  Biso   1.000  C
  H97      1.0000 0.76760  0.23240  0.00610  Biso   1.000  H
  C182     1.0000 0.80956  0.19044  0.10695  Biso   1.000  C
  C183     1.0000 0.82310  0.17690  0.14895  Biso   1.000  C
  C184     1.0000 0.84340  0.15660  0.22809  Biso   1.000  C
  C185     1.0000 0.77804  0.55608  0.03147  Biso   1.000  C
  H98      1.0000 0.76760  0.53520  0.00610  Biso   1.000  H
  C186     1.0000 0.80956  0.61912  0.10695  Biso   1.000  C
  C187     1.0000 0.82310  0.64620  0.14895  Biso   1.000  C
  C188     1.0000 0.84340  0.68680  0.22809  Biso   1.000  C
  C189     1.0000 0.44392  0.22196  0.03147  Biso   1.000  C
  H99      1.0000 0.46480  0.23240  0.00610  Biso   1.000  H
  C190     1.0000 0.38088  0.19044  0.10695  Biso   1.000  C
  C191     1.0000 0.35380  0.17690  0.14895  Biso   1.000  C
  C192     1.0000 0.31320  0.15660  0.22809  Biso   1.000  C
  C193     1.0000 0.22196  0.77804  0.53147  Biso   1.000  C
  H100     1.0000 0.23240  0.76760  0.50610  Biso   1.000  H
  C194     1.0000 0.19044  0.80956  0.60695  Biso   1.000  C
  C195     1.0000 0.17690  0.82310  0.64895  Biso   1.000  C
  C196     1.0000 0.15660  0.84340  0.72809  Biso   1.000  C
  C197     1.0000 0.22196  0.44392  0.53147  Biso   1.000  C
  H101     1.0000 0.23240  0.46480  0.50610  Biso   1.000  H
  C198     1.0000 0.19044  0.38088  0.60695  Biso   1.000  C
  C199     1.0000 0.17690  0.35380  0.64895  Biso   1.000  C
  C200     1.0000 0.15660  0.31320  0.72809  Biso   1.000  C
  C201     1.0000 0.55608  0.77804  0.53147  Biso   1.000  C
  H102     1.0000 0.53520  0.76760  0.50610  Biso   1.000  H
  C202     1.0000 0.61912  0.80956  0.60695  Biso   1.000  C
  C203     1.0000 0.64620  0.82310  0.64895  Biso   1.000  C
  C204     1.0000 0.68680  0.84340  0.72809  Biso   1.000  C
  C205     1.0000 0.22196  0.77804  0.96853  Biso   1.000  C
  H103     1.0000 0.23240  0.76760  0.99390  Biso   1.000  H
  C206     1.0000 0.19044  0.80956  0.89305  Biso   1.000  C
  C207     1.0000 0.17690  0.82310  0.85105  Biso   1.000  C
  C208     1.0000 0.15660  0.84340  0.77191  Biso   1.000  C
  C209     1.0000 0.55608  0.77804  0.96853  Biso   1.000  C
  H104     1.0000 0.53520  0.76760  0.99390  Biso   1.000  H
  C210     1.0000 0.61912  0.80956  0.89305  Biso   1.000  C
  C211     1.0000 0.64620  0.82310  0.85105  Biso   1.000  C
  C212     1.0000 0.68680  0.84340  0.77191  Biso   1.000  C
  C213     1.0000 0.22196  0.44392  0.96853  Biso   1.000  C
  H105     1.0000 0.23240  0.46480  0.99390  Biso   1.000  H
  C214     1.0000 0.19044  0.38088  0.89305  Biso   1.000  C
  C215     1.0000 0.17690  0.35380  0.85105  Biso   1.000  C
  C216     1.0000 0.15660  0.31320  0.77191  Biso   1.000  C
  C217     1.0000 0.77804  0.22196  0.46853  Biso   1.000  C
  H106     1.0000 0.76760  0.23240  0.49390  Biso   1.000  H
  C218     1.0000 0.80956  0.19044  0.39305  Biso   1.000  C
  C219     1.0000 0.82310  0.17690  0.35105  Biso   1.000  C
  C220     1.0000 0.84340  0.15660  0.27191  Biso   1.000  C
  C221     1.0000 0.44392  0.22196  0.46853  Biso   1.000  C
  H107     1.0000 0.46480  0.23240  0.49390  Biso   1.000  H
  C222     1.0000 0.38088  0.19044  0.39305  Biso   1.000  C
  C223     1.0000 0.35380  0.17690  0.35105  Biso   1.000  C
  C224     1.0000 0.31320  0.15660  0.27191  Biso   1.000  C
  C225     1.0000 0.77804  0.55608  0.46853  Biso   1.000  C
  H108     1.0000 0.76760  0.53520  0.49390  Biso   1.000  H
  C226     1.0000 0.80956  0.61912  0.39305  Biso   1.000  C
  C227     1.0000 0.82310  0.64620  0.35105  Biso   1.000  C
  C228     1.0000 0.84340  0.68680  0.27191  Biso   1.000  C
