data_image0
_cell_length_a       8.953
_cell_length_b       8.953
_cell_length_c       21.929
_cell_angle_alpha    90
_cell_angle_beta     90
_cell_angle_gamma    120

_symmetry_space_group_name_H-M    "P 1"
_symmetry_int_tables_number       1

loop_
  _symmetry_equiv_pos_as_xyz
  'x, y, z'

loop_
  _atom_site_label
  _atom_site_occupancy
  _atom_site_fract_x
  _atom_site_fract_y
  _atom_site_fract_z
  _atom_site_thermal_displace_type
  _atom_site_B_iso_or_equiv
  _atom_site_type_symbol
  Cd1      1.0000 0.00000  0.00000  0.37498  Biso   1.000  Cd
  C1       1.0000 0.00000  0.00000  0.47610  Biso   1.000  C
  N1       1.0000 0.00000  0.00000  0.52390  Biso   1.000  N
  Cd2      1.0000 0.66667  0.33333  0.70831  Biso   1.000  Cd
  C2       1.0000 0.66667  0.33333  0.80943  Biso   1.000  C
  N2       1.0000 0.66667  0.33333  0.85723  Biso   1.000  N
  Cd3      1.0000 0.33333  0.66667  0.04165  Biso   1.000  Cd
  C3       1.0000 0.33333  0.66667  0.14277  Biso   1.000  C
  N3       1.0000 0.33333  0.66667  0.19057  Biso   1.000  N
  Cd4      1.0000 0.00000  0.00000  0.62502  Biso   1.000  Cd
  Cd5      1.0000 0.66667  0.33333  0.95835  Biso   1.000  Cd
  Cd6      1.0000 0.33333  0.66667  0.29169  Biso   1.000  Cd
  C4       1.0000 0.13380  0.86620  0.34110  Biso   1.000  C
  C5       1.0000 0.80047  0.19953  0.67443  Biso   1.000  C
  C6       1.0000 0.46713  0.53287  0.00777  Biso   1.000  C
  C7       1.0000 0.13380  0.26760  0.34110  Biso   1.000  C
  C8       1.0000 0.80047  0.60093  0.67443  Biso   1.000  C
  C9       1.0000 0.46713  0.93427  0.00777  Biso   1.000  C
  C10      1.0000 0.73240  0.86620  0.34110  Biso   1.000  C
  C11      1.0000 0.39907  0.19953  0.67443  Biso   1.000  C
  C12      1.0000 0.06573  0.53287  0.00777  Biso   1.000  C
  C13      1.0000 0.86620  0.13380  0.65890  Biso   1.000  C
  C14      1.0000 0.53287  0.46713  0.99223  Biso   1.000  C
  C15      1.0000 0.19953  0.80047  0.32557  Biso   1.000  C
  C16      1.0000 0.26760  0.13380  0.65890  Biso   1.000  C
  C17      1.0000 0.93427  0.46713  0.99223  Biso   1.000  C
  C18      1.0000 0.60093  0.80047  0.32557  Biso   1.000  C
  C19      1.0000 0.86620  0.73240  0.65890  Biso   1.000  C
  C20      1.0000 0.53287  0.06573  0.99223  Biso   1.000  C
  C21      1.0000 0.19953  0.39907  0.32557  Biso   1.000  C
