data_image0
_cell_length_a       9.6484
_cell_length_b       11.7939
_cell_length_c       11.8603
_cell_angle_alpha    73.671
_cell_angle_beta     67.426
_cell_angle_gamma    74.356

_symmetry_space_group_name_H-M    "P 1"
_symmetry_int_tables_number       1

loop_
  _symmetry_equiv_pos_as_xyz
  'x, y, z'

loop_
  _atom_site_label
  _atom_site_occupancy
  _atom_site_fract_x
  _atom_site_fract_y
  _atom_site_fract_z
  _atom_site_thermal_displace_type
  _atom_site_B_iso_or_equiv
  _atom_site_type_symbol
  Mg1      1.0000 0.63984  0.26049  0.33464  Biso   1.000  Mg
  S1       1.0000 0.37844  0.70370  0.11655  Biso   1.000  S
  S2       1.0000 0.11196  0.29144  0.39480  Biso   1.000  S
  O1       1.0000 0.50510  0.55608  0.31533  Biso   1.000  O
  O2       1.0000 0.66180  0.41880  0.20383  Biso   1.000  O
  O3       1.0000 0.20560  0.89390  0.97970  Biso   1.000  O
  O4       1.0000 0.30560  0.83243  0.80016  Biso   1.000  O
  O5       1.0000 0.41210  0.29650  0.39376  Biso   1.000  O
  O6       1.0000 0.33320  0.40088  0.54544  Biso   1.000  O
  O7       1.0000 0.86330  0.24830  0.33254  Biso   1.000  O
  O8       1.0000 0.66940  0.34340  0.46483  Biso   1.000  O
  C1       1.0000 0.57210  0.51750  0.21570  Biso   1.000  C
  C2       1.0000 0.53940  0.59400  0.10230  Biso   1.000  C
  C3       1.0000 0.61710  0.58660  0.98030  Biso   1.000  C
  H1       1.0000 0.70730  0.53260  0.95430  Biso   1.000  H
  C4       1.0000 0.54680  0.66930  0.89820  Biso   1.000  C
  H2       1.0000 0.58570  0.67640  0.81210  Biso   1.000  H
  C5       1.0000 0.41520  0.73770  0.95900  Biso   1.000  C
  C6       1.0000 0.30180  0.82710  0.90860  Biso   1.000  C
  C7       1.0000 0.31140  0.34500  0.48060  Biso   1.000  C
  C8       1.0000 0.15090  0.33740  0.50260  Biso   1.000  C
  C9       1.0000 0.01960  0.37410  0.59440  Biso   1.000  C
  H3       1.0000 0.01840  0.40070  0.66160  Biso   1.000  H
  C10      1.0000 0.88740  0.36700  0.57540  Biso   1.000  C
  H4       1.0000 0.78890  0.38850  0.62860  Biso   1.000  H
  C11      1.0000 0.91900  0.32520  0.47060  Biso   1.000  C
  C12      1.0000 0.81230  0.30540  0.41910  Biso   1.000  C
  O9       1.0000 0.64390  0.09310  0.45660  Biso   1.000  O
  H5       1.0000 0.63410  0.09510  0.52780  Biso   1.000  H
  C13      1.0000 0.57990  0.99510  0.45850  Biso   1.000  C
  H6       1.0000 0.63890  0.91940  0.48710  Biso   1.000  H
  H7       1.0000 0.58500  0.99650  0.37480  Biso   1.000  H
  H8       1.0000 0.71420  0.08170  0.48520  Biso   1.000  H
  C14      1.0000 0.54300  0.01100  0.53100  Biso   1.000  C
  H9       1.0000 0.60190  0.93520  0.55920  Biso   1.000  H
  H10      1.0000 0.47280  0.04240  0.60390  Biso   1.000  H
  Mg2      1.0000 0.36016  0.73951  0.66536  Biso   1.000  Mg
  S3       1.0000 0.62156  0.29630  0.88345  Biso   1.000  S
  S4       1.0000 0.88804  0.70856  0.60520  Biso   1.000  S
  O10      1.0000 0.49490  0.44392  0.68467  Biso   1.000  O
  O11      1.0000 0.33820  0.58120  0.79617  Biso   1.000  O
  O12      1.0000 0.79440  0.10610  0.02030  Biso   1.000  O
  O13      1.0000 0.69440  0.16757  0.19984  Biso   1.000  O
  O14      1.0000 0.58790  0.70350  0.60624  Biso   1.000  O
  O15      1.0000 0.66680  0.59912  0.45456  Biso   1.000  O
  O16      1.0000 0.13670  0.75170  0.66746  Biso   1.000  O
  O17      1.0000 0.33060  0.65660  0.53517  Biso   1.000  O
  C15      1.0000 0.42790  0.48250  0.78430  Biso   1.000  C
  C16      1.0000 0.46060  0.40600  0.89770  Biso   1.000  C
  C17      1.0000 0.38290  0.41340  0.01970  Biso   1.000  C
  H11      1.0000 0.29270  0.46740  0.04570  Biso   1.000  H
  C18      1.0000 0.45320  0.33070  0.10180  Biso   1.000  C
  H12      1.0000 0.41430  0.32360  0.18790  Biso   1.000  H
  C19      1.0000 0.58480  0.26230  0.04100  Biso   1.000  C
  C20      1.0000 0.69820  0.17290  0.09140  Biso   1.000  C
  C21      1.0000 0.68860  0.65500  0.51940  Biso   1.000  C
  C22      1.0000 0.84910  0.66260  0.49740  Biso   1.000  C
  C23      1.0000 0.98040  0.62590  0.40560  Biso   1.000  C
  H13      1.0000 0.98160  0.59930  0.33840  Biso   1.000  H
  C24      1.0000 0.11260  0.63300  0.42460  Biso   1.000  C
  H14      1.0000 0.21110  0.61150  0.37140  Biso   1.000  H
  C25      1.0000 0.08100  0.67480  0.52940  Biso   1.000  C
  C26      1.0000 0.18770  0.69460  0.58090  Biso   1.000  C
  O18      1.0000 0.35610  0.90690  0.54340  Biso   1.000  O
  H15      1.0000 0.36590  0.90490  0.47220  Biso   1.000  H
  C27      1.0000 0.42010  0.00490  0.54150  Biso   1.000  C
  H16      1.0000 0.36110  0.08060  0.51290  Biso   1.000  H
  H17      1.0000 0.41500  0.00350  0.62520  Biso   1.000  H
  H18      1.0000 0.28580  0.91830  0.51480  Biso   1.000  H
  C28      1.0000 0.45700  0.98900  0.46900  Biso   1.000  C
  H19      1.0000 0.39810  0.06480  0.44080  Biso   1.000  H
  H20      1.0000 0.52720  0.95760  0.39610  Biso   1.000  H
  Mg3      1.0000 0.50000  0.50000  0.50000  Biso   1.000  Mg
  Mg4      1.0000 0.00000  0.00000  0.00000  Biso   1.000  Mg
