data_image0
_cell_length_a       21.014
_cell_length_b       13.1528
_cell_length_c       8.5908
_cell_angle_alpha    90
_cell_angle_beta     100.363
_cell_angle_gamma    90

_symmetry_space_group_name_H-M    "P 1"
_symmetry_int_tables_number       1

loop_
  _symmetry_equiv_pos_as_xyz
  'x, y, z'

loop_
  _atom_site_label
  _atom_site_occupancy
  _atom_site_fract_x
  _atom_site_fract_y
  _atom_site_fract_z
  _atom_site_thermal_displace_type
  _atom_site_B_iso_or_equiv
  _atom_site_type_symbol
  Cu1      1.0000 0.69770  0.29522  0.92604  Biso   1.000  Cu
  O1       1.0000 0.74746  0.70718  0.25160  Biso   1.000  O
  C1       1.0000 0.80519  0.73502  0.26120  Biso   1.000  C
  O2       1.0000 0.83850  0.77943  0.37880  Biso   1.000  O
  C2       1.0000 0.83739  0.71228  0.12040  Biso   1.000  C
  H1       1.0000 0.88490  0.71010  0.15600  Biso   1.000  H
  H2       1.0000 0.82760  0.76780  0.04200  Biso   1.000  H
  O3       1.0000 0.74482  0.42005  0.00930  Biso   1.000  O
  C3       1.0000 0.81459  0.61100  0.04130  Biso   1.000  C
  H3       1.0000 0.76760  0.61480  0.99960  Biso   1.000  H
  H4       1.0000 0.83700  0.59930  0.95090  Biso   1.000  H
  O4       1.0000 0.83446  0.34286  0.13360  Biso   1.000  O
  C4       1.0000 0.82806  0.52170  0.15660  Biso   1.000  C
  H5       1.0000 0.87550  0.51440  0.18890  Biso   1.000  H
  H6       1.0000 0.81020  0.53830  0.25260  Biso   1.000  H
  C5       1.0000 0.80049  0.42050  0.09320  Biso   1.000  C
  N1       1.0000 0.61742  0.37510  0.78030  Biso   1.000  N
  C6       1.0000 0.57354  0.32130  0.67750  Biso   1.000  C
  H7       1.0000 0.57050  0.24980  0.68970  Biso   1.000  H
  C7       1.0000 0.52648  0.36830  0.56960  Biso   1.000  C
  H8       1.0000 0.49340  0.32770  0.51010  Biso   1.000  H
  C8       1.0000 0.56840  0.53030  0.67800  Biso   1.000  C
  H9       1.0000 0.56530  0.60230  0.68190  Biso   1.000  H
  C9       1.0000 0.61550  0.47830  0.78180  Biso   1.000  C
  H10      1.0000 0.64660  0.51510  0.85430  Biso   1.000  H
  C10      1.0000 0.52590  0.47398  0.56790  Biso   1.000  C
  C11      1.0000 0.52520  0.47240  0.54390  Biso   1.000  C
  C12      1.0000 0.58020  0.52000  0.62580  Biso   1.000  C
  H11      1.0000 0.58700  0.58970  0.60510  Biso   1.000  H
  C13      1.0000 0.62500  0.47060  0.73510  Biso   1.000  C
  H12      1.0000 0.65940  0.50980  0.79230  Biso   1.000  H
  N2       1.0000 0.62402  0.36980  0.76790  Biso   1.000  N
  Cu2      1.0000 0.19770  0.79522  0.92604  Biso   1.000  Cu
  O5       1.0000 0.24746  0.20718  0.25160  Biso   1.000  O
  C14      1.0000 0.30519  0.23502  0.26120  Biso   1.000  C
  O6       1.0000 0.33850  0.27943  0.37880  Biso   1.000  O
  C15      1.0000 0.33739  0.21228  0.12040  Biso   1.000  C
  H13      1.0000 0.38490  0.21010  0.15600  Biso   1.000  H
  H14      1.0000 0.32760  0.26780  0.04200  Biso   1.000  H
  O7       1.0000 0.24482  0.92005  0.00930  Biso   1.000  O
  C16      1.0000 0.31459  0.11100  0.04130  Biso   1.000  C
  H15      1.0000 0.26760  0.11480  0.99960  Biso   1.000  H
  H16      1.0000 0.33700  0.09930  0.95090  Biso   1.000  H
  O8       1.0000 0.33446  0.84286  0.13360  Biso   1.000  O
  C17      1.0000 0.32806  0.02170  0.15660  Biso   1.000  C
  H17      1.0000 0.37550  0.01440  0.18890  Biso   1.000  H
  H18      1.0000 0.31020  0.03830  0.25260  Biso   1.000  H
  C18      1.0000 0.30049  0.92050  0.09320  Biso   1.000  C
  N3       1.0000 0.11742  0.87510  0.78030  Biso   1.000  N
  C19      1.0000 0.07354  0.82130  0.67750  Biso   1.000  C
  H19      1.0000 0.07050  0.74980  0.68970  Biso   1.000  H
  C20      1.0000 0.02648  0.86830  0.56960  Biso   1.000  C
  H20      1.0000 0.99340  0.82770  0.51010  Biso   1.000  H
  C21      1.0000 0.06840  0.03030  0.67800  Biso   1.000  C
  H21      1.0000 0.06530  0.10230  0.68190  Biso   1.000  H
  C22      1.0000 0.11550  0.97830  0.78180  Biso   1.000  C
  H22      1.0000 0.14660  0.01510  0.85430  Biso   1.000  H
  C23      1.0000 0.02590  0.97398  0.56790  Biso   1.000  C
  C24      1.0000 0.02520  0.97240  0.54390  Biso   1.000  C
  C25      1.0000 0.08020  0.02000  0.62580  Biso   1.000  C
  H23      1.0000 0.08700  0.08970  0.60510  Biso   1.000  H
  C26      1.0000 0.12500  0.97060  0.73510  Biso   1.000  C
  H24      1.0000 0.15940  0.00980  0.79230  Biso   1.000  H
  N4       1.0000 0.12402  0.86980  0.76790  Biso   1.000  N
  Cu3      1.0000 0.30230  0.29522  0.57396  Biso   1.000  Cu
  O9       1.0000 0.25254  0.70718  0.24840  Biso   1.000  O
  C27      1.0000 0.19481  0.73502  0.23880  Biso   1.000  C
  O10      1.0000 0.16150  0.77943  0.12120  Biso   1.000  O
  C28      1.0000 0.16261  0.71228  0.37960  Biso   1.000  C
  H25      1.0000 0.11510  0.71010  0.34400  Biso   1.000  H
  H26      1.0000 0.17240  0.76780  0.45800  Biso   1.000  H
  O11      1.0000 0.25518  0.42005  0.49070  Biso   1.000  O
  C29      1.0000 0.18541  0.61100  0.45870  Biso   1.000  C
  H27      1.0000 0.23240  0.61480  0.50040  Biso   1.000  H
  H28      1.0000 0.16300  0.59930  0.54910  Biso   1.000  H
  O12      1.0000 0.16554  0.34286  0.36640  Biso   1.000  O
  C30      1.0000 0.17194  0.52170  0.34340  Biso   1.000  C
  H29      1.0000 0.12450  0.51440  0.31110  Biso   1.000  H
  H30      1.0000 0.18980  0.53830  0.24740  Biso   1.000  H
  C31      1.0000 0.19951  0.42050  0.40680  Biso   1.000  C
  N5       1.0000 0.38258  0.37510  0.71970  Biso   1.000  N
  C32      1.0000 0.42646  0.32130  0.82250  Biso   1.000  C
  H31      1.0000 0.42950  0.24980  0.81030  Biso   1.000  H
  C33      1.0000 0.47352  0.36830  0.93040  Biso   1.000  C
  H32      1.0000 0.50660  0.32770  0.98990  Biso   1.000  H
  C34      1.0000 0.43160  0.53030  0.82200  Biso   1.000  C
  H33      1.0000 0.43470  0.60230  0.81810  Biso   1.000  H
  C35      1.0000 0.38450  0.47830  0.71820  Biso   1.000  C
  H34      1.0000 0.35340  0.51510  0.64570  Biso   1.000  H
  C36      1.0000 0.47410  0.47398  0.93210  Biso   1.000  C
  C37      1.0000 0.47480  0.47240  0.95610  Biso   1.000  C
  C38      1.0000 0.41980  0.52000  0.87420  Biso   1.000  C
  H35      1.0000 0.41300  0.58970  0.89490  Biso   1.000  H
  C39      1.0000 0.37500  0.47060  0.76490  Biso   1.000  C
  H36      1.0000 0.34060  0.50980  0.70770  Biso   1.000  H
  N6       1.0000 0.37598  0.36980  0.73210  Biso   1.000  N
  Cu4      1.0000 0.80229  0.79522  0.57396  Biso   1.000  Cu
  O13      1.0000 0.75254  0.20718  0.24840  Biso   1.000  O
  C40      1.0000 0.69481  0.23502  0.23880  Biso   1.000  C
  O14      1.0000 0.66150  0.27943  0.12120  Biso   1.000  O
  C41      1.0000 0.66261  0.21228  0.37960  Biso   1.000  C
  H37      1.0000 0.61510  0.21010  0.34400  Biso   1.000  H
  H38      1.0000 0.67240  0.26780  0.45800  Biso   1.000  H
  O15      1.0000 0.75518  0.92005  0.49070  Biso   1.000  O
  C42      1.0000 0.68541  0.11100  0.45870  Biso   1.000  C
  H39      1.0000 0.73240  0.11480  0.50040  Biso   1.000  H
  H40      1.0000 0.66300  0.09930  0.54910  Biso   1.000  H
  O16      1.0000 0.66554  0.84286  0.36640  Biso   1.000  O
  C43      1.0000 0.67194  0.02170  0.34340  Biso   1.000  C
  H41      1.0000 0.62450  0.01440  0.31110  Biso   1.000  H
  H42      1.0000 0.68980  0.03830  0.24740  Biso   1.000  H
  C44      1.0000 0.69951  0.92050  0.40680  Biso   1.000  C
  N7       1.0000 0.88258  0.87510  0.71970  Biso   1.000  N
  C45      1.0000 0.92646  0.82130  0.82250  Biso   1.000  C
  H43      1.0000 0.92950  0.74980  0.81030  Biso   1.000  H
  C46      1.0000 0.97352  0.86830  0.93040  Biso   1.000  C
  H44      1.0000 0.00660  0.82770  0.98990  Biso   1.000  H
  C47      1.0000 0.93160  0.03030  0.82200  Biso   1.000  C
  H45      1.0000 0.93470  0.10230  0.81810  Biso   1.000  H
  C48      1.0000 0.88450  0.97830  0.71820  Biso   1.000  C
  H46      1.0000 0.85340  0.01510  0.64570  Biso   1.000  H
  C49      1.0000 0.97410  0.97398  0.93210  Biso   1.000  C
  C50      1.0000 0.97480  0.97240  0.95610  Biso   1.000  C
  C51      1.0000 0.91980  0.02000  0.87420  Biso   1.000  C
  H47      1.0000 0.91300  0.08970  0.89490  Biso   1.000  H
  C52      1.0000 0.87500  0.97060  0.76490  Biso   1.000  C
  H48      1.0000 0.84060  0.00980  0.70770  Biso   1.000  H
  N8       1.0000 0.87598  0.86980  0.73210  Biso   1.000  N
  Cu5      1.0000 0.30230  0.70478  0.07396  Biso   1.000  Cu
  O17      1.0000 0.25254  0.29282  0.74840  Biso   1.000  O
  C53      1.0000 0.19481  0.26498  0.73880  Biso   1.000  C
  O18      1.0000 0.16150  0.22057  0.62120  Biso   1.000  O
  C54      1.0000 0.16261  0.28772  0.87960  Biso   1.000  C
  H49      1.0000 0.11510  0.28990  0.84400  Biso   1.000  H
  H50      1.0000 0.17240  0.23220  0.95800  Biso   1.000  H
  O19      1.0000 0.25518  0.57995  0.99070  Biso   1.000  O
  C55      1.0000 0.18541  0.38900  0.95870  Biso   1.000  C
  H51      1.0000 0.23240  0.38520  0.00040  Biso   1.000  H
  H52      1.0000 0.16300  0.40070  0.04910  Biso   1.000  H
  O20      1.0000 0.16554  0.65714  0.86640  Biso   1.000  O
  C56      1.0000 0.17194  0.47830  0.84340  Biso   1.000  C
  H53      1.0000 0.12450  0.48560  0.81110  Biso   1.000  H
  H54      1.0000 0.18980  0.46170  0.74740  Biso   1.000  H
  C57      1.0000 0.19951  0.57950  0.90680  Biso   1.000  C
  N9       1.0000 0.38258  0.62490  0.21970  Biso   1.000  N
  C58      1.0000 0.42646  0.67870  0.32250  Biso   1.000  C
  H55      1.0000 0.42950  0.75020  0.31030  Biso   1.000  H
  C59      1.0000 0.47352  0.63170  0.43040  Biso   1.000  C
  H56      1.0000 0.50660  0.67230  0.48990  Biso   1.000  H
  C60      1.0000 0.43160  0.46970  0.32200  Biso   1.000  C
  H57      1.0000 0.43470  0.39770  0.31810  Biso   1.000  H
  C61      1.0000 0.38450  0.52170  0.21820  Biso   1.000  C
  H58      1.0000 0.35340  0.48490  0.14570  Biso   1.000  H
  C62      1.0000 0.47410  0.52602  0.43210  Biso   1.000  C
  C63      1.0000 0.47480  0.52760  0.45610  Biso   1.000  C
  C64      1.0000 0.41980  0.48000  0.37420  Biso   1.000  C
  H59      1.0000 0.41300  0.41030  0.39490  Biso   1.000  H
  C65      1.0000 0.37500  0.52940  0.26490  Biso   1.000  C
  H60      1.0000 0.34060  0.49020  0.20770  Biso   1.000  H
  N10      1.0000 0.37598  0.63020  0.23210  Biso   1.000  N
  Cu6      1.0000 0.80229  0.20478  0.07396  Biso   1.000  Cu
  O21      1.0000 0.75254  0.79282  0.74840  Biso   1.000  O
  C66      1.0000 0.69481  0.76498  0.73880  Biso   1.000  C
  O22      1.0000 0.66150  0.72057  0.62120  Biso   1.000  O
  C67      1.0000 0.66261  0.78772  0.87960  Biso   1.000  C
  H61      1.0000 0.61510  0.78990  0.84400  Biso   1.000  H
  H62      1.0000 0.67240  0.73220  0.95800  Biso   1.000  H
  O23      1.0000 0.75518  0.07995  0.99070  Biso   1.000  O
  C68      1.0000 0.68541  0.88900  0.95870  Biso   1.000  C
  H63      1.0000 0.73240  0.88520  0.00040  Biso   1.000  H
  H64      1.0000 0.66300  0.90070  0.04910  Biso   1.000  H
  O24      1.0000 0.66554  0.15714  0.86640  Biso   1.000  O
  C69      1.0000 0.67194  0.97830  0.84340  Biso   1.000  C
  H65      1.0000 0.62450  0.98560  0.81110  Biso   1.000  H
  H66      1.0000 0.68980  0.96170  0.74740  Biso   1.000  H
  C70      1.0000 0.69951  0.07950  0.90680  Biso   1.000  C
  N11      1.0000 0.88258  0.12490  0.21970  Biso   1.000  N
  C71      1.0000 0.92646  0.17870  0.32250  Biso   1.000  C
  H67      1.0000 0.92950  0.25020  0.31030  Biso   1.000  H
  C72      1.0000 0.97352  0.13170  0.43040  Biso   1.000  C
  H68      1.0000 0.00660  0.17230  0.48990  Biso   1.000  H
  C73      1.0000 0.93160  0.96970  0.32200  Biso   1.000  C
  H69      1.0000 0.93470  0.89770  0.31810  Biso   1.000  H
  C74      1.0000 0.88450  0.02170  0.21820  Biso   1.000  C
  H70      1.0000 0.85340  0.98490  0.14570  Biso   1.000  H
  C75      1.0000 0.97410  0.02602  0.43210  Biso   1.000  C
  C76      1.0000 0.97480  0.02760  0.45610  Biso   1.000  C
  C77      1.0000 0.91980  0.98000  0.37420  Biso   1.000  C
  H71      1.0000 0.91300  0.91030  0.39490  Biso   1.000  H
  C78      1.0000 0.87500  0.02940  0.26490  Biso   1.000  C
  H72      1.0000 0.84060  0.99020  0.20770  Biso   1.000  H
  N12      1.0000 0.87598  0.13020  0.23210  Biso   1.000  N
  Cu7      1.0000 0.69770  0.70478  0.42604  Biso   1.000  Cu
  O25      1.0000 0.74746  0.29282  0.75160  Biso   1.000  O
  C79      1.0000 0.80519  0.26498  0.76120  Biso   1.000  C
  O26      1.0000 0.83850  0.22057  0.87880  Biso   1.000  O
  C80      1.0000 0.83739  0.28772  0.62040  Biso   1.000  C
  H73      1.0000 0.88490  0.28990  0.65600  Biso   1.000  H
  H74      1.0000 0.82760  0.23220  0.54200  Biso   1.000  H
  O27      1.0000 0.74482  0.57995  0.50930  Biso   1.000  O
  C81      1.0000 0.81459  0.38900  0.54130  Biso   1.000  C
  H75      1.0000 0.76760  0.38520  0.49960  Biso   1.000  H
  H76      1.0000 0.83700  0.40070  0.45090  Biso   1.000  H
  O28      1.0000 0.83446  0.65714  0.63360  Biso   1.000  O
  C82      1.0000 0.82806  0.47830  0.65660  Biso   1.000  C
  H77      1.0000 0.87550  0.48560  0.68890  Biso   1.000  H
  H78      1.0000 0.81020  0.46170  0.75260  Biso   1.000  H
  C83      1.0000 0.80049  0.57950  0.59320  Biso   1.000  C
  N13      1.0000 0.61742  0.62490  0.28030  Biso   1.000  N
  C84      1.0000 0.57354  0.67870  0.17750  Biso   1.000  C
  H79      1.0000 0.57050  0.75020  0.18970  Biso   1.000  H
  C85      1.0000 0.52648  0.63170  0.06960  Biso   1.000  C
  H80      1.0000 0.49340  0.67230  0.01010  Biso   1.000  H
  C86      1.0000 0.56840  0.46970  0.17800  Biso   1.000  C
  H81      1.0000 0.56530  0.39770  0.18190  Biso   1.000  H
  C87      1.0000 0.61550  0.52170  0.28180  Biso   1.000  C
  H82      1.0000 0.64660  0.48490  0.35430  Biso   1.000  H
  C88      1.0000 0.52590  0.52602  0.06790  Biso   1.000  C
  C89      1.0000 0.52520  0.52760  0.04390  Biso   1.000  C
  C90      1.0000 0.58020  0.48000  0.12580  Biso   1.000  C
  H83      1.0000 0.58700  0.41030  0.10510  Biso   1.000  H
  C91      1.0000 0.62500  0.52940  0.23510  Biso   1.000  C
  H84      1.0000 0.65940  0.49020  0.29230  Biso   1.000  H
  N14      1.0000 0.62402  0.63020  0.26790  Biso   1.000  N
  Cu8      1.0000 0.19770  0.20478  0.42604  Biso   1.000  Cu
  O29      1.0000 0.24746  0.79282  0.75160  Biso   1.000  O
  C92      1.0000 0.30519  0.76498  0.76120  Biso   1.000  C
  O30      1.0000 0.33850  0.72057  0.87880  Biso   1.000  O
  C93      1.0000 0.33739  0.78772  0.62040  Biso   1.000  C
  H85      1.0000 0.38490  0.78990  0.65600  Biso   1.000  H
  H86      1.0000 0.32760  0.73220  0.54200  Biso   1.000  H
  O31      1.0000 0.24482  0.07995  0.50930  Biso   1.000  O
  C94      1.0000 0.31459  0.88900  0.54130  Biso   1.000  C
  H87      1.0000 0.26760  0.88520  0.49960  Biso   1.000  H
  H88      1.0000 0.33700  0.90070  0.45090  Biso   1.000  H
  O32      1.0000 0.33446  0.15714  0.63360  Biso   1.000  O
  C95      1.0000 0.32806  0.97830  0.65660  Biso   1.000  C
  H89      1.0000 0.37550  0.98560  0.68890  Biso   1.000  H
  H90      1.0000 0.31020  0.96170  0.75260  Biso   1.000  H
  C96      1.0000 0.30049  0.07950  0.59320  Biso   1.000  C
  N15      1.0000 0.11742  0.12490  0.28030  Biso   1.000  N
  C97      1.0000 0.07354  0.17870  0.17750  Biso   1.000  C
  H91      1.0000 0.07050  0.25020  0.18970  Biso   1.000  H
  C98      1.0000 0.02648  0.13170  0.06960  Biso   1.000  C
  H92      1.0000 0.99340  0.17230  0.01010  Biso   1.000  H
  C99      1.0000 0.06840  0.96970  0.17800  Biso   1.000  C
  H93      1.0000 0.06530  0.89770  0.18190  Biso   1.000  H
  C100     1.0000 0.11550  0.02170  0.28180  Biso   1.000  C
  H94      1.0000 0.14660  0.98490  0.35430  Biso   1.000  H
  C101     1.0000 0.02590  0.02602  0.06790  Biso   1.000  C
  C102     1.0000 0.02520  0.02760  0.04390  Biso   1.000  C
  C103     1.0000 0.08020  0.98000  0.12580  Biso   1.000  C
  H95      1.0000 0.08700  0.91030  0.10510  Biso   1.000  H
  C104     1.0000 0.12500  0.02940  0.23510  Biso   1.000  C
  H96      1.0000 0.15940  0.99020  0.29230  Biso   1.000  H
  N16      1.0000 0.12402  0.13020  0.26790  Biso   1.000  N
