data_image0
_cell_length_a       30.4852
_cell_length_b       9.0518
_cell_length_c       20.1865
_cell_angle_alpha    90
_cell_angle_beta     107.086
_cell_angle_gamma    90

_symmetry_space_group_name_H-M    "P 1"
_symmetry_int_tables_number       1

loop_
  _symmetry_equiv_pos_as_xyz
  'x, y, z'

loop_
  _atom_site_label
  _atom_site_occupancy
  _atom_site_fract_x
  _atom_site_fract_y
  _atom_site_fract_z
  _atom_site_thermal_displace_type
  _atom_site_B_iso_or_equiv
  _atom_site_type_symbol
  Eu1      1.0000 0.24985  0.97281  0.07276  Biso   1.000  Eu
  O1       1.0000 0.18081  0.87790  0.99830  Biso   1.000  O
  O2       1.0000 0.80643  0.96820  0.86460  Biso   1.000  O
  O3       1.0000 0.31688  0.02660  0.18120  Biso   1.000  O
  O4       1.0000 0.30067  0.18640  0.09640  Biso   1.000  O
  O5       1.0000 0.80443  0.81690  0.94910  Biso   1.000  O
  O6       1.0000 0.19567  0.66080  0.95910  Biso   1.000  O
  C1       1.0000 0.37359  0.21100  0.17940  Biso   1.000  C
  C2       1.0000 0.32800  0.13770  0.15180  Biso   1.000  C
  C3       1.0000 0.11850  0.72250  0.94570  Biso   1.000  C
  C4       1.0000 0.40550  0.16050  0.23940  Biso   1.000  C
  H1       1.0000 0.39810  0.08210  0.26390  Biso   1.000  H
  C5       1.0000 0.82430  0.86700  0.90610  Biso   1.000  C
  C6       1.0000 0.16887  0.75650  0.96930  Biso   1.000  C
  C7       1.0000 0.38530  0.32900  0.14350  Biso   1.000  C
  H2       1.0000 0.36410  0.36310  0.10320  Biso   1.000  H
  C8       1.0000 0.08670  0.79580  0.96930  Biso   1.000  C
  H3       1.0000 0.09630  0.87430  0.99980  Biso   1.000  H
  C9       1.0000 0.42780  0.39640  0.16680  Biso   1.000  C
  H4       1.0000 0.43520  0.47540  0.14270  Biso   1.000  H
  C10      1.0000 0.45930  0.34350  0.22720  Biso   1.000  C
  C11      1.0000 0.44840  0.22650  0.26310  Biso   1.000  C
  H5       1.0000 0.46980  0.19170  0.30300  Biso   1.000  H
  C12      1.0000 0.04090  0.75650  0.94920  Biso   1.000  C
  H6       1.0000 0.02120  0.78120  0.97500  Biso   1.000  H
  C13      1.0000 0.10220  0.63940  0.87930  Biso   1.000  C
  H7       1.0000 0.12270  0.60770  0.85600  Biso   1.000  H
  O7       1.0000 0.98030  0.62310  0.85520  Biso   1.000  O
  C14      1.0000 0.02500  0.67050  0.88230  Biso   1.000  C
  C15      1.0000 0.05560  0.61070  0.85330  Biso   1.000  C
  H8       1.0000 0.04510  0.54900  0.81510  Biso   1.000  H
  C16      1.0000 0.95030  0.64040  0.91800  Biso   1.000  C
  C17      1.0000 0.92710  0.60320  0.96550  Biso   1.000  C
  H9       1.0000 0.93850  0.52920  0.99790  Biso   1.000  H
  C18      1.0000 0.88690  0.67680  0.96450  Biso   1.000  C
  H10      1.0000 0.87140  0.65190  0.99630  Biso   1.000  H
  C19      1.0000 0.86990  0.78740  0.91610  Biso   1.000  C
  C20      1.0000 0.89310  0.82460  0.86850  Biso   1.000  C
  H11      1.0000 0.88170  0.89860  0.83610  Biso   1.000  H
  C21      1.0000 0.93330  0.75100  0.86950  Biso   1.000  C
  H12      1.0000 0.94880  0.77590  0.83770  Biso   1.000  H
  H13      1.0000 0.01830  0.82470  0.95040  Biso   1.000  H
  C22      1.0000 0.92940  0.83040  0.84220  Biso   1.000  C
  H14      1.0000 0.94390  0.87770  0.81360  Biso   1.000  H
  C23      1.0000 0.94650  0.69740  0.87380  Biso   1.000  C
  C24      1.0000 0.92470  0.62670  0.91660  Biso   1.000  C
  H15      1.0000 0.93610  0.53780  0.93770  Biso   1.000  H
  C25      1.0000 0.88580  0.68900  0.92770  Biso   1.000  C
  H16      1.0000 0.87120  0.64170  0.95630  Biso   1.000  H
  C26      1.0000 0.86870  0.82200  0.89610  Biso   1.000  C
  C27      1.0000 0.89050  0.89270  0.85340  Biso   1.000  C
  H17      1.0000 0.87900  0.98160  0.83220  Biso   1.000  H
  C28      1.0000 0.10550  0.57230  0.92640  Biso   1.000  C
  H18      1.0000 0.12800  0.50500  0.92380  Biso   1.000  H
  C29      1.0000 0.06150  0.52600  0.91190  Biso   1.000  C
  H19      1.0000 0.05310  0.43400  0.89150  Biso   1.000  H
  C30      1.0000 0.02950  0.61390  0.92730  Biso   1.000  C
  O8       1.0000 0.98610  0.55350  0.91380  Biso   1.000  O
  Eu2      1.0000 0.74985  0.47281  0.07276  Biso   1.000  Eu
  O9       1.0000 0.68081  0.37790  0.99830  Biso   1.000  O
  O10      1.0000 0.30643  0.46820  0.86460  Biso   1.000  O
  O11      1.0000 0.81688  0.52660  0.18120  Biso   1.000  O
  O12      1.0000 0.80067  0.68640  0.09640  Biso   1.000  O
  O13      1.0000 0.30443  0.31690  0.94910  Biso   1.000  O
  O14      1.0000 0.69567  0.16080  0.95910  Biso   1.000  O
  C31      1.0000 0.87359  0.71100  0.17940  Biso   1.000  C
  C32      1.0000 0.82800  0.63770  0.15180  Biso   1.000  C
  C33      1.0000 0.61850  0.22250  0.94570  Biso   1.000  C
  C34      1.0000 0.90550  0.66050  0.23940  Biso   1.000  C
  H20      1.0000 0.89810  0.58210  0.26390  Biso   1.000  H
  C35      1.0000 0.32430  0.36700  0.90610  Biso   1.000  C
  C36      1.0000 0.66887  0.25650  0.96930  Biso   1.000  C
  C37      1.0000 0.88530  0.82900  0.14350  Biso   1.000  C
  H21      1.0000 0.86410  0.86310  0.10320  Biso   1.000  H
  C38      1.0000 0.58670  0.29580  0.96930  Biso   1.000  C
  H22      1.0000 0.59630  0.37430  0.99980  Biso   1.000  H
  C39      1.0000 0.92780  0.89640  0.16680  Biso   1.000  C
  H23      1.0000 0.93520  0.97540  0.14270  Biso   1.000  H
  C40      1.0000 0.95930  0.84350  0.22720  Biso   1.000  C
  C41      1.0000 0.94840  0.72650  0.26310  Biso   1.000  C
  H24      1.0000 0.96980  0.69170  0.30300  Biso   1.000  H
  C42      1.0000 0.54090  0.25650  0.94920  Biso   1.000  C
  H25      1.0000 0.52120  0.28120  0.97500  Biso   1.000  H
  C43      1.0000 0.60220  0.13940  0.87930  Biso   1.000  C
  H26      1.0000 0.62270  0.10770  0.85600  Biso   1.000  H
  O15      1.0000 0.48030  0.12310  0.85520  Biso   1.000  O
  C44      1.0000 0.52500  0.17050  0.88230  Biso   1.000  C
  C45      1.0000 0.55560  0.11070  0.85330  Biso   1.000  C
  H27      1.0000 0.54510  0.04900  0.81510  Biso   1.000  H
  C46      1.0000 0.45030  0.14040  0.91800  Biso   1.000  C
  C47      1.0000 0.42710  0.10320  0.96550  Biso   1.000  C
  H28      1.0000 0.43850  0.02920  0.99790  Biso   1.000  H
  C48      1.0000 0.38690  0.17680  0.96450  Biso   1.000  C
  H29      1.0000 0.37140  0.15190  0.99630  Biso   1.000  H
  C49      1.0000 0.36990  0.28740  0.91610  Biso   1.000  C
  C50      1.0000 0.39310  0.32460  0.86850  Biso   1.000  C
  H30      1.0000 0.38170  0.39860  0.83610  Biso   1.000  H
  C51      1.0000 0.43330  0.25100  0.86950  Biso   1.000  C
  H31      1.0000 0.44880  0.27590  0.83770  Biso   1.000  H
  H32      1.0000 0.51830  0.32470  0.95040  Biso   1.000  H
  C52      1.0000 0.42940  0.33040  0.84220  Biso   1.000  C
  H33      1.0000 0.44390  0.37770  0.81360  Biso   1.000  H
  C53      1.0000 0.44650  0.19740  0.87380  Biso   1.000  C
  C54      1.0000 0.42470  0.12670  0.91660  Biso   1.000  C
  H34      1.0000 0.43610  0.03780  0.93770  Biso   1.000  H
  C55      1.0000 0.38580  0.18900  0.92770  Biso   1.000  C
  H35      1.0000 0.37120  0.14170  0.95630  Biso   1.000  H
  C56      1.0000 0.36870  0.32200  0.89610  Biso   1.000  C
  C57      1.0000 0.39050  0.39270  0.85340  Biso   1.000  C
  H36      1.0000 0.37900  0.48160  0.83220  Biso   1.000  H
  C58      1.0000 0.60550  0.07230  0.92640  Biso   1.000  C
  H37      1.0000 0.62800  0.00500  0.92380  Biso   1.000  H
  C59      1.0000 0.56150  0.02600  0.91190  Biso   1.000  C
  H38      1.0000 0.55310  0.93400  0.89150  Biso   1.000  H
  C60      1.0000 0.52950  0.11390  0.92730  Biso   1.000  C
  O16      1.0000 0.48610  0.05350  0.91380  Biso   1.000  O
  Eu3      1.0000 0.75015  0.97281  0.42724  Biso   1.000  Eu
  O17      1.0000 0.81919  0.87790  0.50170  Biso   1.000  O
  O18      1.0000 0.19357  0.96820  0.63540  Biso   1.000  O
  O19      1.0000 0.68312  0.02660  0.31880  Biso   1.000  O
  O20      1.0000 0.69933  0.18640  0.40360  Biso   1.000  O
  O21      1.0000 0.19557  0.81690  0.55090  Biso   1.000  O
  O22      1.0000 0.80433  0.66080  0.54090  Biso   1.000  O
  C61      1.0000 0.62641  0.21100  0.32060  Biso   1.000  C
  C62      1.0000 0.67200  0.13770  0.34820  Biso   1.000  C
  C63      1.0000 0.88150  0.72250  0.55430  Biso   1.000  C
  C64      1.0000 0.59450  0.16050  0.26060  Biso   1.000  C
  H39      1.0000 0.60190  0.08210  0.23610  Biso   1.000  H
  C65      1.0000 0.17570  0.86700  0.59390  Biso   1.000  C
  C66      1.0000 0.83113  0.75650  0.53070  Biso   1.000  C
  C67      1.0000 0.61470  0.32900  0.35650  Biso   1.000  C
  H40      1.0000 0.63590  0.36310  0.39680  Biso   1.000  H
  C68      1.0000 0.91330  0.79580  0.53070  Biso   1.000  C
  H41      1.0000 0.90370  0.87430  0.50020  Biso   1.000  H
  C69      1.0000 0.57220  0.39640  0.33320  Biso   1.000  C
  H42      1.0000 0.56480  0.47540  0.35730  Biso   1.000  H
  C70      1.0000 0.54070  0.34350  0.27280  Biso   1.000  C
  C71      1.0000 0.55160  0.22650  0.23690  Biso   1.000  C
  H43      1.0000 0.53020  0.19170  0.19700  Biso   1.000  H
  C72      1.0000 0.95910  0.75650  0.55080  Biso   1.000  C
  H44      1.0000 0.97880  0.78120  0.52500  Biso   1.000  H
  C73      1.0000 0.89780  0.63940  0.62070  Biso   1.000  C
  H45      1.0000 0.87730  0.60770  0.64400  Biso   1.000  H
  O23      1.0000 0.01970  0.62310  0.64480  Biso   1.000  O
  C74      1.0000 0.97500  0.67050  0.61770  Biso   1.000  C
  C75      1.0000 0.94440  0.61070  0.64670  Biso   1.000  C
  H46      1.0000 0.95490  0.54900  0.68490  Biso   1.000  H
  C76      1.0000 0.04970  0.64040  0.58200  Biso   1.000  C
  C77      1.0000 0.07290  0.60320  0.53450  Biso   1.000  C
  H47      1.0000 0.06150  0.52920  0.50210  Biso   1.000  H
  C78      1.0000 0.11310  0.67680  0.53550  Biso   1.000  C
  H48      1.0000 0.12860  0.65190  0.50370  Biso   1.000  H
  C79      1.0000 0.13010  0.78740  0.58390  Biso   1.000  C
  C80      1.0000 0.10690  0.82460  0.63150  Biso   1.000  C
  H49      1.0000 0.11830  0.89860  0.66390  Biso   1.000  H
  C81      1.0000 0.06670  0.75100  0.63050  Biso   1.000  C
  H50      1.0000 0.05120  0.77590  0.66230  Biso   1.000  H
  H51      1.0000 0.98170  0.82470  0.54960  Biso   1.000  H
  C82      1.0000 0.07060  0.83040  0.65780  Biso   1.000  C
  H52      1.0000 0.05610  0.87770  0.68640  Biso   1.000  H
  C83      1.0000 0.05350  0.69740  0.62620  Biso   1.000  C
  C84      1.0000 0.07530  0.62670  0.58340  Biso   1.000  C
  H53      1.0000 0.06390  0.53780  0.56230  Biso   1.000  H
  C85      1.0000 0.11420  0.68900  0.57230  Biso   1.000  C
  H54      1.0000 0.12880  0.64170  0.54370  Biso   1.000  H
  C86      1.0000 0.13130  0.82200  0.60390  Biso   1.000  C
  C87      1.0000 0.10950  0.89270  0.64660  Biso   1.000  C
  H55      1.0000 0.12100  0.98160  0.66780  Biso   1.000  H
  C88      1.0000 0.89450  0.57230  0.57360  Biso   1.000  C
  H56      1.0000 0.87200  0.50500  0.57620  Biso   1.000  H
  C89      1.0000 0.93850  0.52600  0.58810  Biso   1.000  C
  H57      1.0000 0.94690  0.43400  0.60850  Biso   1.000  H
  C90      1.0000 0.97050  0.61390  0.57270  Biso   1.000  C
  O24      1.0000 0.01390  0.55350  0.58620  Biso   1.000  O
  Eu4      1.0000 0.25015  0.47281  0.42724  Biso   1.000  Eu
  O25      1.0000 0.31919  0.37790  0.50170  Biso   1.000  O
  O26      1.0000 0.69357  0.46820  0.63540  Biso   1.000  O
  O27      1.0000 0.18312  0.52660  0.31880  Biso   1.000  O
  O28      1.0000 0.19933  0.68640  0.40360  Biso   1.000  O
  O29      1.0000 0.69557  0.31690  0.55090  Biso   1.000  O
  O30      1.0000 0.30433  0.16080  0.54090  Biso   1.000  O
  C91      1.0000 0.12641  0.71100  0.32060  Biso   1.000  C
  C92      1.0000 0.17200  0.63770  0.34820  Biso   1.000  C
  C93      1.0000 0.38150  0.22250  0.55430  Biso   1.000  C
  C94      1.0000 0.09450  0.66050  0.26060  Biso   1.000  C
  H58      1.0000 0.10190  0.58210  0.23610  Biso   1.000  H
  C95      1.0000 0.67570  0.36700  0.59390  Biso   1.000  C
  C96      1.0000 0.33113  0.25650  0.53070  Biso   1.000  C
  C97      1.0000 0.11470  0.82900  0.35650  Biso   1.000  C
  H59      1.0000 0.13590  0.86310  0.39680  Biso   1.000  H
  C98      1.0000 0.41330  0.29580  0.53070  Biso   1.000  C
  H60      1.0000 0.40370  0.37430  0.50020  Biso   1.000  H
  C99      1.0000 0.07220  0.89640  0.33320  Biso   1.000  C
  H61      1.0000 0.06480  0.97540  0.35730  Biso   1.000  H
  C100     1.0000 0.04070  0.84350  0.27280  Biso   1.000  C
  C101     1.0000 0.05160  0.72650  0.23690  Biso   1.000  C
  H62      1.0000 0.03020  0.69170  0.19700  Biso   1.000  H
  C102     1.0000 0.45910  0.25650  0.55080  Biso   1.000  C
  H63      1.0000 0.47880  0.28120  0.52500  Biso   1.000  H
  C103     1.0000 0.39780  0.13940  0.62070  Biso   1.000  C
  H64      1.0000 0.37730  0.10770  0.64400  Biso   1.000  H
  O31      1.0000 0.51970  0.12310  0.64480  Biso   1.000  O
  C104     1.0000 0.47500  0.17050  0.61770  Biso   1.000  C
  C105     1.0000 0.44440  0.11070  0.64670  Biso   1.000  C
  H65      1.0000 0.45490  0.04900  0.68490  Biso   1.000  H
  C106     1.0000 0.54970  0.14040  0.58200  Biso   1.000  C
  C107     1.0000 0.57290  0.10320  0.53450  Biso   1.000  C
  H66      1.0000 0.56150  0.02920  0.50210  Biso   1.000  H
  C108     1.0000 0.61310  0.17680  0.53550  Biso   1.000  C
  H67      1.0000 0.62860  0.15190  0.50370  Biso   1.000  H
  C109     1.0000 0.63010  0.28740  0.58390  Biso   1.000  C
  C110     1.0000 0.60690  0.32460  0.63150  Biso   1.000  C
  H68      1.0000 0.61830  0.39860  0.66390  Biso   1.000  H
  C111     1.0000 0.56670  0.25100  0.63050  Biso   1.000  C
  H69      1.0000 0.55120  0.27590  0.66230  Biso   1.000  H
  H70      1.0000 0.48170  0.32470  0.54960  Biso   1.000  H
  C112     1.0000 0.57060  0.33040  0.65780  Biso   1.000  C
  H71      1.0000 0.55610  0.37770  0.68640  Biso   1.000  H
  C113     1.0000 0.55350  0.19740  0.62620  Biso   1.000  C
  C114     1.0000 0.57530  0.12670  0.58340  Biso   1.000  C
  H72      1.0000 0.56390  0.03780  0.56230  Biso   1.000  H
  C115     1.0000 0.61420  0.18900  0.57230  Biso   1.000  C
  H73      1.0000 0.62880  0.14170  0.54370  Biso   1.000  H
  C116     1.0000 0.63130  0.32200  0.60390  Biso   1.000  C
  C117     1.0000 0.60950  0.39270  0.64660  Biso   1.000  C
  H74      1.0000 0.62100  0.48160  0.66780  Biso   1.000  H
  C118     1.0000 0.39450  0.07230  0.57360  Biso   1.000  C
  H75      1.0000 0.37200  0.00500  0.57620  Biso   1.000  H
  C119     1.0000 0.43850  0.02600  0.58810  Biso   1.000  C
  H76      1.0000 0.44690  0.93400  0.60850  Biso   1.000  H
  C120     1.0000 0.47050  0.11390  0.57270  Biso   1.000  C
  O32      1.0000 0.51390  0.05350  0.58620  Biso   1.000  O
  Eu5      1.0000 0.75015  0.02719  0.92724  Biso   1.000  Eu
  O33      1.0000 0.81919  0.12210  0.00170  Biso   1.000  O
  O34      1.0000 0.19357  0.03180  0.13540  Biso   1.000  O
  O35      1.0000 0.68312  0.97340  0.81880  Biso   1.000  O
  O36      1.0000 0.69933  0.81360  0.90360  Biso   1.000  O
  O37      1.0000 0.19557  0.18310  0.05090  Biso   1.000  O
  O38      1.0000 0.80433  0.33920  0.04090  Biso   1.000  O
  C121     1.0000 0.62641  0.78900  0.82060  Biso   1.000  C
  C122     1.0000 0.67200  0.86230  0.84820  Biso   1.000  C
  C123     1.0000 0.88150  0.27750  0.05430  Biso   1.000  C
  C124     1.0000 0.59450  0.83950  0.76060  Biso   1.000  C
  H77      1.0000 0.60190  0.91790  0.73610  Biso   1.000  H
  C125     1.0000 0.17570  0.13300  0.09390  Biso   1.000  C
  C126     1.0000 0.83113  0.24350  0.03070  Biso   1.000  C
  C127     1.0000 0.61470  0.67100  0.85650  Biso   1.000  C
  H78      1.0000 0.63590  0.63690  0.89680  Biso   1.000  H
  C128     1.0000 0.91330  0.20420  0.03070  Biso   1.000  C
  H79      1.0000 0.90370  0.12570  0.00020  Biso   1.000  H
  C129     1.0000 0.57220  0.60360  0.83320  Biso   1.000  C
  H80      1.0000 0.56480  0.52460  0.85730  Biso   1.000  H
  C130     1.0000 0.54070  0.65650  0.77280  Biso   1.000  C
  C131     1.0000 0.55160  0.77350  0.73690  Biso   1.000  C
  H81      1.0000 0.53020  0.80830  0.69700  Biso   1.000  H
  C132     1.0000 0.95910  0.24350  0.05080  Biso   1.000  C
  H82      1.0000 0.97880  0.21880  0.02500  Biso   1.000  H
  C133     1.0000 0.89780  0.36060  0.12070  Biso   1.000  C
  H83      1.0000 0.87730  0.39230  0.14400  Biso   1.000  H
  O39      1.0000 0.01970  0.37690  0.14480  Biso   1.000  O
  C134     1.0000 0.97500  0.32950  0.11770  Biso   1.000  C
  C135     1.0000 0.94440  0.38930  0.14670  Biso   1.000  C
  H84      1.0000 0.95490  0.45100  0.18490  Biso   1.000  H
  C136     1.0000 0.04970  0.35960  0.08200  Biso   1.000  C
  C137     1.0000 0.07290  0.39680  0.03450  Biso   1.000  C
  H85      1.0000 0.06150  0.47080  0.00210  Biso   1.000  H
  C138     1.0000 0.11310  0.32320  0.03550  Biso   1.000  C
  H86      1.0000 0.12860  0.34810  0.00370  Biso   1.000  H
  C139     1.0000 0.13010  0.21260  0.08390  Biso   1.000  C
  C140     1.0000 0.10690  0.17540  0.13150  Biso   1.000  C
  H87      1.0000 0.11830  0.10140  0.16390  Biso   1.000  H
  C141     1.0000 0.06670  0.24900  0.13050  Biso   1.000  C
  H88      1.0000 0.05120  0.22410  0.16230  Biso   1.000  H
  H89      1.0000 0.98170  0.17530  0.04960  Biso   1.000  H
  C142     1.0000 0.07060  0.16960  0.15780  Biso   1.000  C
  H90      1.0000 0.05610  0.12230  0.18640  Biso   1.000  H
  C143     1.0000 0.05350  0.30260  0.12620  Biso   1.000  C
  C144     1.0000 0.07530  0.37330  0.08340  Biso   1.000  C
  H91      1.0000 0.06390  0.46220  0.06230  Biso   1.000  H
  C145     1.0000 0.11420  0.31100  0.07230  Biso   1.000  C
  H92      1.0000 0.12880  0.35830  0.04370  Biso   1.000  H
  C146     1.0000 0.13130  0.17800  0.10390  Biso   1.000  C
  C147     1.0000 0.10950  0.10730  0.14660  Biso   1.000  C
  H93      1.0000 0.12100  0.01840  0.16780  Biso   1.000  H
  C148     1.0000 0.89450  0.42770  0.07360  Biso   1.000  C
  H94      1.0000 0.87200  0.49500  0.07620  Biso   1.000  H
  C149     1.0000 0.93850  0.47400  0.08810  Biso   1.000  C
  H95      1.0000 0.94690  0.56600  0.10850  Biso   1.000  H
  C150     1.0000 0.97050  0.38610  0.07270  Biso   1.000  C
  O40      1.0000 0.01390  0.44650  0.08620  Biso   1.000  O
  Eu6      1.0000 0.25015  0.52719  0.92724  Biso   1.000  Eu
  O41      1.0000 0.31919  0.62210  0.00170  Biso   1.000  O
  O42      1.0000 0.69357  0.53180  0.13540  Biso   1.000  O
  O43      1.0000 0.18312  0.47340  0.81880  Biso   1.000  O
  O44      1.0000 0.19933  0.31360  0.90360  Biso   1.000  O
  O45      1.0000 0.69557  0.68310  0.05090  Biso   1.000  O
  O46      1.0000 0.30433  0.83920  0.04090  Biso   1.000  O
  C151     1.0000 0.12641  0.28900  0.82060  Biso   1.000  C
  C152     1.0000 0.17200  0.36230  0.84820  Biso   1.000  C
  C153     1.0000 0.38150  0.77750  0.05430  Biso   1.000  C
  C154     1.0000 0.09450  0.33950  0.76060  Biso   1.000  C
  H96      1.0000 0.10190  0.41790  0.73610  Biso   1.000  H
  C155     1.0000 0.67570  0.63300  0.09390  Biso   1.000  C
  C156     1.0000 0.33113  0.74350  0.03070  Biso   1.000  C
  C157     1.0000 0.11470  0.17100  0.85650  Biso   1.000  C
  H97      1.0000 0.13590  0.13690  0.89680  Biso   1.000  H
  C158     1.0000 0.41330  0.70420  0.03070  Biso   1.000  C
  H98      1.0000 0.40370  0.62570  0.00020  Biso   1.000  H
  C159     1.0000 0.07220  0.10360  0.83320  Biso   1.000  C
  H99      1.0000 0.06480  0.02460  0.85730  Biso   1.000  H
  C160     1.0000 0.04070  0.15650  0.77280  Biso   1.000  C
  C161     1.0000 0.05160  0.27350  0.73690  Biso   1.000  C
  H100     1.0000 0.03020  0.30830  0.69700  Biso   1.000  H
  C162     1.0000 0.45910  0.74350  0.05080  Biso   1.000  C
  H101     1.0000 0.47880  0.71880  0.02500  Biso   1.000  H
  C163     1.0000 0.39780  0.86060  0.12070  Biso   1.000  C
  H102     1.0000 0.37730  0.89230  0.14400  Biso   1.000  H
  O47      1.0000 0.51970  0.87690  0.14480  Biso   1.000  O
  C164     1.0000 0.47500  0.82950  0.11770  Biso   1.000  C
  C165     1.0000 0.44440  0.88930  0.14670  Biso   1.000  C
  H103     1.0000 0.45490  0.95100  0.18490  Biso   1.000  H
  C166     1.0000 0.54970  0.85960  0.08200  Biso   1.000  C
  C167     1.0000 0.57290  0.89680  0.03450  Biso   1.000  C
  H104     1.0000 0.56150  0.97080  0.00210  Biso   1.000  H
  C168     1.0000 0.61310  0.82320  0.03550  Biso   1.000  C
  H105     1.0000 0.62860  0.84810  0.00370  Biso   1.000  H
  C169     1.0000 0.63010  0.71260  0.08390  Biso   1.000  C
  C170     1.0000 0.60690  0.67540  0.13150  Biso   1.000  C
  H106     1.0000 0.61830  0.60140  0.16390  Biso   1.000  H
  C171     1.0000 0.56670  0.74900  0.13050  Biso   1.000  C
  H107     1.0000 0.55120  0.72410  0.16230  Biso   1.000  H
  H108     1.0000 0.48170  0.67530  0.04960  Biso   1.000  H
  C172     1.0000 0.57060  0.66960  0.15780  Biso   1.000  C
  H109     1.0000 0.55610  0.62230  0.18640  Biso   1.000  H
  C173     1.0000 0.55350  0.80260  0.12620  Biso   1.000  C
  C174     1.0000 0.57530  0.87330  0.08340  Biso   1.000  C
  H110     1.0000 0.56390  0.96220  0.06230  Biso   1.000  H
  C175     1.0000 0.61420  0.81100  0.07230  Biso   1.000  C
  H111     1.0000 0.62880  0.85830  0.04370  Biso   1.000  H
  C176     1.0000 0.63130  0.67800  0.10390  Biso   1.000  C
  C177     1.0000 0.60950  0.60730  0.14660  Biso   1.000  C
  H112     1.0000 0.62100  0.51840  0.16780  Biso   1.000  H
  C178     1.0000 0.39450  0.92770  0.07360  Biso   1.000  C
  H113     1.0000 0.37200  0.99500  0.07620  Biso   1.000  H
  C179     1.0000 0.43850  0.97400  0.08810  Biso   1.000  C
  H114     1.0000 0.44690  0.06600  0.10850  Biso   1.000  H
  C180     1.0000 0.47050  0.88610  0.07270  Biso   1.000  C
  O48      1.0000 0.51390  0.94650  0.08620  Biso   1.000  O
  Eu7      1.0000 0.24985  0.02719  0.57276  Biso   1.000  Eu
  O49      1.0000 0.18081  0.12210  0.49830  Biso   1.000  O
  O50      1.0000 0.80643  0.03180  0.36460  Biso   1.000  O
  O51      1.0000 0.31688  0.97340  0.68120  Biso   1.000  O
  O52      1.0000 0.30067  0.81360  0.59640  Biso   1.000  O
  O53      1.0000 0.80443  0.18310  0.44910  Biso   1.000  O
  O54      1.0000 0.19567  0.33920  0.45910  Biso   1.000  O
  C181     1.0000 0.37359  0.78900  0.67940  Biso   1.000  C
  C182     1.0000 0.32800  0.86230  0.65180  Biso   1.000  C
  C183     1.0000 0.11850  0.27750  0.44570  Biso   1.000  C
  C184     1.0000 0.40550  0.83950  0.73940  Biso   1.000  C
  H115     1.0000 0.39810  0.91790  0.76390  Biso   1.000  H
  C185     1.0000 0.82430  0.13300  0.40610  Biso   1.000  C
  C186     1.0000 0.16887  0.24350  0.46930  Biso   1.000  C
  C187     1.0000 0.38530  0.67100  0.64350  Biso   1.000  C
  H116     1.0000 0.36410  0.63690  0.60320  Biso   1.000  H
  C188     1.0000 0.08670  0.20420  0.46930  Biso   1.000  C
  H117     1.0000 0.09630  0.12570  0.49980  Biso   1.000  H
  C189     1.0000 0.42780  0.60360  0.66680  Biso   1.000  C
  H118     1.0000 0.43520  0.52460  0.64270  Biso   1.000  H
  C190     1.0000 0.45930  0.65650  0.72720  Biso   1.000  C
  C191     1.0000 0.44840  0.77350  0.76310  Biso   1.000  C
  H119     1.0000 0.46980  0.80830  0.80300  Biso   1.000  H
  C192     1.0000 0.04090  0.24350  0.44920  Biso   1.000  C
  H120     1.0000 0.02120  0.21880  0.47500  Biso   1.000  H
  C193     1.0000 0.10220  0.36060  0.37930  Biso   1.000  C
  H121     1.0000 0.12270  0.39230  0.35600  Biso   1.000  H
  O55      1.0000 0.98030  0.37690  0.35520  Biso   1.000  O
  C194     1.0000 0.02500  0.32950  0.38230  Biso   1.000  C
  C195     1.0000 0.05560  0.38930  0.35330  Biso   1.000  C
  H122     1.0000 0.04510  0.45100  0.31510  Biso   1.000  H
  C196     1.0000 0.95030  0.35960  0.41800  Biso   1.000  C
  C197     1.0000 0.92710  0.39680  0.46550  Biso   1.000  C
  H123     1.0000 0.93850  0.47080  0.49790  Biso   1.000  H
  C198     1.0000 0.88690  0.32320  0.46450  Biso   1.000  C
  H124     1.0000 0.87140  0.34810  0.49630  Biso   1.000  H
  C199     1.0000 0.86990  0.21260  0.41610  Biso   1.000  C
  C200     1.0000 0.89310  0.17540  0.36850  Biso   1.000  C
  H125     1.0000 0.88170  0.10140  0.33610  Biso   1.000  H
  C201     1.0000 0.93330  0.24900  0.36950  Biso   1.000  C
  H126     1.0000 0.94880  0.22410  0.33770  Biso   1.000  H
  H127     1.0000 0.01830  0.17530  0.45040  Biso   1.000  H
  C202     1.0000 0.92940  0.16960  0.34220  Biso   1.000  C
  H128     1.0000 0.94390  0.12230  0.31360  Biso   1.000  H
  C203     1.0000 0.94650  0.30260  0.37380  Biso   1.000  C
  C204     1.0000 0.92470  0.37330  0.41660  Biso   1.000  C
  H129     1.0000 0.93610  0.46220  0.43770  Biso   1.000  H
  C205     1.0000 0.88580  0.31100  0.42770  Biso   1.000  C
  H130     1.0000 0.87120  0.35830  0.45630  Biso   1.000  H
  C206     1.0000 0.86870  0.17800  0.39610  Biso   1.000  C
  C207     1.0000 0.89050  0.10730  0.35340  Biso   1.000  C
  H131     1.0000 0.87900  0.01840  0.33220  Biso   1.000  H
  C208     1.0000 0.10550  0.42770  0.42640  Biso   1.000  C
  H132     1.0000 0.12800  0.49500  0.42380  Biso   1.000  H
  C209     1.0000 0.06150  0.47400  0.41190  Biso   1.000  C
  H133     1.0000 0.05310  0.56600  0.39150  Biso   1.000  H
  C210     1.0000 0.02950  0.38610  0.42730  Biso   1.000  C
  O56      1.0000 0.98610  0.44650  0.41380  Biso   1.000  O
  Eu8      1.0000 0.74985  0.52719  0.57276  Biso   1.000  Eu
  O57      1.0000 0.68081  0.62210  0.49830  Biso   1.000  O
  O58      1.0000 0.30643  0.53180  0.36460  Biso   1.000  O
  O59      1.0000 0.81688  0.47340  0.68120  Biso   1.000  O
  O60      1.0000 0.80067  0.31360  0.59640  Biso   1.000  O
  O61      1.0000 0.30443  0.68310  0.44910  Biso   1.000  O
  O62      1.0000 0.69567  0.83920  0.45910  Biso   1.000  O
  C211     1.0000 0.87359  0.28900  0.67940  Biso   1.000  C
  C212     1.0000 0.82800  0.36230  0.65180  Biso   1.000  C
  C213     1.0000 0.61850  0.77750  0.44570  Biso   1.000  C
  C214     1.0000 0.90550  0.33950  0.73940  Biso   1.000  C
  H134     1.0000 0.89810  0.41790  0.76390  Biso   1.000  H
  C215     1.0000 0.32430  0.63300  0.40610  Biso   1.000  C
  C216     1.0000 0.66887  0.74350  0.46930  Biso   1.000  C
  C217     1.0000 0.88530  0.17100  0.64350  Biso   1.000  C
  H135     1.0000 0.86410  0.13690  0.60320  Biso   1.000  H
  C218     1.0000 0.58670  0.70420  0.46930  Biso   1.000  C
  H136     1.0000 0.59630  0.62570  0.49980  Biso   1.000  H
  C219     1.0000 0.92780  0.10360  0.66680  Biso   1.000  C
  H137     1.0000 0.93520  0.02460  0.64270  Biso   1.000  H
  C220     1.0000 0.95930  0.15650  0.72720  Biso   1.000  C
  C221     1.0000 0.94840  0.27350  0.76310  Biso   1.000  C
  H138     1.0000 0.96980  0.30830  0.80300  Biso   1.000  H
  C222     1.0000 0.54090  0.74350  0.44920  Biso   1.000  C
  H139     1.0000 0.52120  0.71880  0.47500  Biso   1.000  H
  C223     1.0000 0.60220  0.86060  0.37930  Biso   1.000  C
  H140     1.0000 0.62270  0.89230  0.35600  Biso   1.000  H
  O63      1.0000 0.48030  0.87690  0.35520  Biso   1.000  O
  C224     1.0000 0.52500  0.82950  0.38230  Biso   1.000  C
  C225     1.0000 0.55560  0.88930  0.35330  Biso   1.000  C
  H141     1.0000 0.54510  0.95100  0.31510  Biso   1.000  H
  C226     1.0000 0.45030  0.85960  0.41800  Biso   1.000  C
  C227     1.0000 0.42710  0.89680  0.46550  Biso   1.000  C
  H142     1.0000 0.43850  0.97080  0.49790  Biso   1.000  H
  C228     1.0000 0.38690  0.82320  0.46450  Biso   1.000  C
  H143     1.0000 0.37140  0.84810  0.49630  Biso   1.000  H
  C229     1.0000 0.36990  0.71260  0.41610  Biso   1.000  C
  C230     1.0000 0.39310  0.67540  0.36850  Biso   1.000  C
  H144     1.0000 0.38170  0.60140  0.33610  Biso   1.000  H
  C231     1.0000 0.43330  0.74900  0.36950  Biso   1.000  C
  H145     1.0000 0.44880  0.72410  0.33770  Biso   1.000  H
  H146     1.0000 0.51830  0.67530  0.45040  Biso   1.000  H
  C232     1.0000 0.42940  0.66960  0.34220  Biso   1.000  C
  H147     1.0000 0.44390  0.62230  0.31360  Biso   1.000  H
  C233     1.0000 0.44650  0.80260  0.37380  Biso   1.000  C
  C234     1.0000 0.42470  0.87330  0.41660  Biso   1.000  C
  H148     1.0000 0.43610  0.96220  0.43770  Biso   1.000  H
  C235     1.0000 0.38580  0.81100  0.42770  Biso   1.000  C
  H149     1.0000 0.37120  0.85830  0.45630  Biso   1.000  H
  C236     1.0000 0.36870  0.67800  0.39610  Biso   1.000  C
  C237     1.0000 0.39050  0.60730  0.35340  Biso   1.000  C
  H150     1.0000 0.37900  0.51840  0.33220  Biso   1.000  H
  C238     1.0000 0.60550  0.92770  0.42640  Biso   1.000  C
  H151     1.0000 0.62800  0.99500  0.42380  Biso   1.000  H
  C239     1.0000 0.56150  0.97400  0.41190  Biso   1.000  C
  H152     1.0000 0.55310  0.06600  0.39150  Biso   1.000  H
  C240     1.0000 0.52950  0.88610  0.42730  Biso   1.000  C
  O64      1.0000 0.48610  0.94650  0.41380  Biso   1.000  O
  O65      1.0000 0.50000  0.42050  0.25000  Biso   1.000  O
  O66      1.0000 0.00000  0.92050  0.25000  Biso   1.000  O
  O67      1.0000 0.50000  0.57950  0.75000  Biso   1.000  O
  O68      1.0000 0.00000  0.07950  0.75000  Biso   1.000  O
