data_image0
_cell_length_a       30.379
_cell_length_b       8.9963
_cell_length_c       20.1175
_cell_angle_alpha    90
_cell_angle_beta     107.423
_cell_angle_gamma    90

_symmetry_space_group_name_H-M    "P 1"
_symmetry_int_tables_number       1

loop_
  _symmetry_equiv_pos_as_xyz
  'x, y, z'

loop_
  _atom_site_label
  _atom_site_occupancy
  _atom_site_fract_x
  _atom_site_fract_y
  _atom_site_fract_z
  _atom_site_thermal_displace_type
  _atom_site_B_iso_or_equiv
  _atom_site_type_symbol
  Tb1      1.0000 0.24979  0.97329  0.07254  Biso   1.000  Tb
  O1       1.0000 0.18200  0.87680  0.99820  Biso   1.000  O
  O2       1.0000 0.80620  0.96920  0.86540  Biso   1.000  O
  O3       1.0000 0.31650  0.02490  0.18130  Biso   1.000  O
  O4       1.0000 0.30020  0.18400  0.09610  Biso   1.000  O
  O5       1.0000 0.80430  0.81720  0.95070  Biso   1.000  O
  O6       1.0000 0.19590  0.65730  0.95820  Biso   1.000  O
  C1       1.0000 0.37340  0.20980  0.18040  Biso   1.000  C
  C2       1.0000 0.32730  0.13700  0.15260  Biso   1.000  C
  C3       1.0000 0.11910  0.72400  0.94560  Biso   1.000  C
  C4       1.0000 0.40520  0.15950  0.23970  Biso   1.000  C
  H1       1.0000 0.39790  0.08030  0.26420  Biso   1.000  H
  C5       1.0000 0.82410  0.86820  0.90750  Biso   1.000  C
  C6       1.0000 0.16950  0.75470  0.96890  Biso   1.000  C
  C7       1.0000 0.38480  0.32880  0.14350  Biso   1.000  C
  H2       1.0000 0.36330  0.36230  0.10300  Biso   1.000  H
  C8       1.0000 0.08780  0.79550  0.97010  Biso   1.000  C
  H3       1.0000 0.09780  0.87220  0.00210  Biso   1.000  H
  C9       1.0000 0.42730  0.39670  0.16620  Biso   1.000  C
  H4       1.0000 0.43480  0.47500  0.14140  Biso   1.000  H
  C10      1.0000 0.45890  0.34450  0.22780  Biso   1.000  C
  C11      1.0000 0.44860  0.22650  0.26360  Biso   1.000  C
  H5       1.0000 0.47030  0.19130  0.30360  Biso   1.000  H
  C12      1.0000 0.04120  0.75760  0.94880  Biso   1.000  C
  H6       1.0000 0.02120  0.78510  0.97380  Biso   1.000  H
  C13      1.0000 0.10180  0.64200  0.88000  Biso   1.000  C
  H7       1.0000 0.12200  0.61120  0.85600  Biso   1.000  H
  O7       1.0000 0.98040  0.62500  0.85650  Biso   1.000  O
  C14      1.0000 0.02570  0.67000  0.88300  Biso   1.000  C
  C15      1.0000 0.92970  0.82900  0.84380  Biso   1.000  C
  H8       1.0000 0.94440  0.87560  0.81510  Biso   1.000  H
  C16      1.0000 0.94680  0.69580  0.87640  Biso   1.000  C
  C17      1.0000 0.92480  0.62610  0.91930  Biso   1.000  C
  H9       1.0000 0.93620  0.53700  0.94110  Biso   1.000  H
  C18      1.0000 0.88570  0.68970  0.92980  Biso   1.000  C
  H10      1.0000 0.87100  0.64310  0.95850  Biso   1.000  H
  C19      1.0000 0.86860  0.82300  0.89720  Biso   1.000  C
  C20      1.0000 0.89060  0.89260  0.85430  Biso   1.000  C
  H11      1.0000 0.87910  0.98180  0.83250  Biso   1.000  H
  C21      1.0000 0.05630  0.61100  0.85460  Biso   1.000  C
  H12      1.0000 0.04600  0.54810  0.81650  Biso   1.000  H
  H13      1.0000 0.01890  0.82770  0.94970  Biso   1.000  H
  C22      1.0000 0.10560  0.57200  0.92520  Biso   1.000  C
  H14      1.0000 0.12800  0.50460  0.92150  Biso   1.000  H
  C23      1.0000 0.06030  0.52400  0.91090  Biso   1.000  C
  H15      1.0000 0.05130  0.43160  0.89100  Biso   1.000  H
  C24      1.0000 0.02890  0.61700  0.92680  Biso   1.000  C
  O8       1.0000 0.98560  0.55600  0.91270  Biso   1.000  O
  C25      1.0000 0.95020  0.63970  0.91770  Biso   1.000  C
  C26      1.0000 0.92710  0.60160  0.96540  Biso   1.000  C
  H16      1.0000 0.93840  0.52590  0.99750  Biso   1.000  H
  C27      1.0000 0.88710  0.67660  0.96520  Biso   1.000  C
  H17      1.0000 0.87160  0.65120  0.99710  Biso   1.000  H
  C28      1.0000 0.87010  0.78980  0.91730  Biso   1.000  C
  C29      1.0000 0.89320  0.82790  0.86970  Biso   1.000  C
  H18      1.0000 0.88180  0.90360  0.83760  Biso   1.000  H
  C30      1.0000 0.93320  0.75300  0.86990  Biso   1.000  C
  H19      1.0000 0.94860  0.77830  0.83790  Biso   1.000  H
  Tb2      1.0000 0.74979  0.47329  0.07254  Biso   1.000  Tb
  O9       1.0000 0.68200  0.37680  0.99820  Biso   1.000  O
  O10      1.0000 0.30620  0.46920  0.86540  Biso   1.000  O
  O11      1.0000 0.81650  0.52490  0.18130  Biso   1.000  O
  O12      1.0000 0.80020  0.68400  0.09610  Biso   1.000  O
  O13      1.0000 0.30430  0.31720  0.95070  Biso   1.000  O
  O14      1.0000 0.69590  0.15730  0.95820  Biso   1.000  O
  C31      1.0000 0.87340  0.70980  0.18040  Biso   1.000  C
  C32      1.0000 0.82730  0.63700  0.15260  Biso   1.000  C
  C33      1.0000 0.61910  0.22400  0.94560  Biso   1.000  C
  C34      1.0000 0.90520  0.65950  0.23970  Biso   1.000  C
  H20      1.0000 0.89790  0.58030  0.26420  Biso   1.000  H
  C35      1.0000 0.32410  0.36820  0.90750  Biso   1.000  C
  C36      1.0000 0.66950  0.25470  0.96890  Biso   1.000  C
  C37      1.0000 0.88480  0.82880  0.14350  Biso   1.000  C
  H21      1.0000 0.86330  0.86230  0.10300  Biso   1.000  H
  C38      1.0000 0.58780  0.29550  0.97010  Biso   1.000  C
  H22      1.0000 0.59780  0.37220  0.00210  Biso   1.000  H
  C39      1.0000 0.92730  0.89670  0.16620  Biso   1.000  C
  H23      1.0000 0.93480  0.97500  0.14140  Biso   1.000  H
  C40      1.0000 0.95890  0.84450  0.22780  Biso   1.000  C
  C41      1.0000 0.94860  0.72650  0.26360  Biso   1.000  C
  H24      1.0000 0.97030  0.69130  0.30360  Biso   1.000  H
  C42      1.0000 0.54120  0.25760  0.94880  Biso   1.000  C
  H25      1.0000 0.52120  0.28510  0.97380  Biso   1.000  H
  C43      1.0000 0.60180  0.14200  0.88000  Biso   1.000  C
  H26      1.0000 0.62200  0.11120  0.85600  Biso   1.000  H
  O15      1.0000 0.48040  0.12500  0.85650  Biso   1.000  O
  C44      1.0000 0.52570  0.17000  0.88300  Biso   1.000  C
  C45      1.0000 0.42970  0.32900  0.84380  Biso   1.000  C
  H27      1.0000 0.44440  0.37560  0.81510  Biso   1.000  H
  C46      1.0000 0.44680  0.19580  0.87640  Biso   1.000  C
  C47      1.0000 0.42480  0.12610  0.91930  Biso   1.000  C
  H28      1.0000 0.43620  0.03700  0.94110  Biso   1.000  H
  C48      1.0000 0.38570  0.18970  0.92980  Biso   1.000  C
  H29      1.0000 0.37100  0.14310  0.95850  Biso   1.000  H
  C49      1.0000 0.36860  0.32300  0.89720  Biso   1.000  C
  C50      1.0000 0.39060  0.39260  0.85430  Biso   1.000  C
  H30      1.0000 0.37910  0.48180  0.83250  Biso   1.000  H
  C51      1.0000 0.55630  0.11100  0.85460  Biso   1.000  C
  H31      1.0000 0.54600  0.04810  0.81650  Biso   1.000  H
  H32      1.0000 0.51890  0.32770  0.94970  Biso   1.000  H
  C52      1.0000 0.60560  0.07200  0.92520  Biso   1.000  C
  H33      1.0000 0.62800  0.00460  0.92150  Biso   1.000  H
  C53      1.0000 0.56030  0.02400  0.91090  Biso   1.000  C
  H34      1.0000 0.55130  0.93160  0.89100  Biso   1.000  H
  C54      1.0000 0.52890  0.11700  0.92680  Biso   1.000  C
  O16      1.0000 0.48560  0.05600  0.91270  Biso   1.000  O
  C55      1.0000 0.45020  0.13970  0.91770  Biso   1.000  C
  C56      1.0000 0.42710  0.10160  0.96540  Biso   1.000  C
  H35      1.0000 0.43840  0.02590  0.99750  Biso   1.000  H
  C57      1.0000 0.38710  0.17660  0.96520  Biso   1.000  C
  H36      1.0000 0.37160  0.15120  0.99710  Biso   1.000  H
  C58      1.0000 0.37010  0.28980  0.91730  Biso   1.000  C
  C59      1.0000 0.39320  0.32790  0.86970  Biso   1.000  C
  H37      1.0000 0.38180  0.40360  0.83760  Biso   1.000  H
  C60      1.0000 0.43320  0.25300  0.86990  Biso   1.000  C
  H38      1.0000 0.44860  0.27830  0.83790  Biso   1.000  H
  Tb3      1.0000 0.75021  0.97329  0.42746  Biso   1.000  Tb
  O17      1.0000 0.81800  0.87680  0.50180  Biso   1.000  O
  O18      1.0000 0.19380  0.96920  0.63460  Biso   1.000  O
  O19      1.0000 0.68350  0.02490  0.31870  Biso   1.000  O
  O20      1.0000 0.69980  0.18400  0.40390  Biso   1.000  O
  O21      1.0000 0.19570  0.81720  0.54930  Biso   1.000  O
  O22      1.0000 0.80410  0.65730  0.54180  Biso   1.000  O
  C61      1.0000 0.62660  0.20980  0.31960  Biso   1.000  C
  C62      1.0000 0.67270  0.13700  0.34740  Biso   1.000  C
  C63      1.0000 0.88090  0.72400  0.55440  Biso   1.000  C
  C64      1.0000 0.59480  0.15950  0.26030  Biso   1.000  C
  H39      1.0000 0.60210  0.08030  0.23580  Biso   1.000  H
  C65      1.0000 0.17590  0.86820  0.59250  Biso   1.000  C
  C66      1.0000 0.83050  0.75470  0.53110  Biso   1.000  C
  C67      1.0000 0.61520  0.32880  0.35650  Biso   1.000  C
  H40      1.0000 0.63670  0.36230  0.39700  Biso   1.000  H
  C68      1.0000 0.91220  0.79550  0.52990  Biso   1.000  C
  H41      1.0000 0.90220  0.87220  0.49790  Biso   1.000  H
  C69      1.0000 0.57270  0.39670  0.33380  Biso   1.000  C
  H42      1.0000 0.56520  0.47500  0.35860  Biso   1.000  H
  C70      1.0000 0.54110  0.34450  0.27220  Biso   1.000  C
  C71      1.0000 0.55140  0.22650  0.23640  Biso   1.000  C
  H43      1.0000 0.52970  0.19130  0.19640  Biso   1.000  H
  C72      1.0000 0.95880  0.75760  0.55120  Biso   1.000  C
  H44      1.0000 0.97880  0.78510  0.52620  Biso   1.000  H
  C73      1.0000 0.89820  0.64200  0.62000  Biso   1.000  C
  H45      1.0000 0.87800  0.61120  0.64400  Biso   1.000  H
  O23      1.0000 0.01960  0.62500  0.64350  Biso   1.000  O
  C74      1.0000 0.97430  0.67000  0.61700  Biso   1.000  C
  C75      1.0000 0.07030  0.82900  0.65620  Biso   1.000  C
  H46      1.0000 0.05560  0.87560  0.68490  Biso   1.000  H
  C76      1.0000 0.05320  0.69580  0.62360  Biso   1.000  C
  C77      1.0000 0.07520  0.62610  0.58070  Biso   1.000  C
  H47      1.0000 0.06380  0.53700  0.55890  Biso   1.000  H
  C78      1.0000 0.11430  0.68970  0.57020  Biso   1.000  C
  H48      1.0000 0.12900  0.64310  0.54150  Biso   1.000  H
  C79      1.0000 0.13140  0.82300  0.60280  Biso   1.000  C
  C80      1.0000 0.10940  0.89260  0.64570  Biso   1.000  C
  H49      1.0000 0.12090  0.98180  0.66750  Biso   1.000  H
  C81      1.0000 0.94370  0.61100  0.64540  Biso   1.000  C
  H50      1.0000 0.95400  0.54810  0.68350  Biso   1.000  H
  H51      1.0000 0.98110  0.82770  0.55030  Biso   1.000  H
  C82      1.0000 0.89440  0.57200  0.57480  Biso   1.000  C
  H52      1.0000 0.87200  0.50460  0.57850  Biso   1.000  H
  C83      1.0000 0.93970  0.52400  0.58910  Biso   1.000  C
  H53      1.0000 0.94870  0.43160  0.60900  Biso   1.000  H
  C84      1.0000 0.97110  0.61700  0.57320  Biso   1.000  C
  O24      1.0000 0.01440  0.55600  0.58730  Biso   1.000  O
  C85      1.0000 0.04980  0.63970  0.58230  Biso   1.000  C
  C86      1.0000 0.07290  0.60160  0.53460  Biso   1.000  C
  H54      1.0000 0.06160  0.52590  0.50250  Biso   1.000  H
  C87      1.0000 0.11290  0.67660  0.53480  Biso   1.000  C
  H55      1.0000 0.12840  0.65120  0.50290  Biso   1.000  H
  C88      1.0000 0.12990  0.78980  0.58270  Biso   1.000  C
  C89      1.0000 0.10680  0.82790  0.63030  Biso   1.000  C
  H56      1.0000 0.11820  0.90360  0.66240  Biso   1.000  H
  C90      1.0000 0.06680  0.75300  0.63010  Biso   1.000  C
  H57      1.0000 0.05140  0.77830  0.66210  Biso   1.000  H
  Tb4      1.0000 0.25021  0.47329  0.42746  Biso   1.000  Tb
  O25      1.0000 0.31800  0.37680  0.50180  Biso   1.000  O
  O26      1.0000 0.69380  0.46920  0.63460  Biso   1.000  O
  O27      1.0000 0.18350  0.52490  0.31870  Biso   1.000  O
  O28      1.0000 0.19980  0.68400  0.40390  Biso   1.000  O
  O29      1.0000 0.69570  0.31720  0.54930  Biso   1.000  O
  O30      1.0000 0.30410  0.15730  0.54180  Biso   1.000  O
  C91      1.0000 0.12660  0.70980  0.31960  Biso   1.000  C
  C92      1.0000 0.17270  0.63700  0.34740  Biso   1.000  C
  C93      1.0000 0.38090  0.22400  0.55440  Biso   1.000  C
  C94      1.0000 0.09480  0.65950  0.26030  Biso   1.000  C
  H58      1.0000 0.10210  0.58030  0.23580  Biso   1.000  H
  C95      1.0000 0.67590  0.36820  0.59250  Biso   1.000  C
  C96      1.0000 0.33050  0.25470  0.53110  Biso   1.000  C
  C97      1.0000 0.11520  0.82880  0.35650  Biso   1.000  C
  H59      1.0000 0.13670  0.86230  0.39700  Biso   1.000  H
  C98      1.0000 0.41220  0.29550  0.52990  Biso   1.000  C
  H60      1.0000 0.40220  0.37220  0.49790  Biso   1.000  H
  C99      1.0000 0.07270  0.89670  0.33380  Biso   1.000  C
  H61      1.0000 0.06520  0.97500  0.35860  Biso   1.000  H
  C100     1.0000 0.04110  0.84450  0.27220  Biso   1.000  C
  C101     1.0000 0.05140  0.72650  0.23640  Biso   1.000  C
  H62      1.0000 0.02970  0.69130  0.19640  Biso   1.000  H
  C102     1.0000 0.45880  0.25760  0.55120  Biso   1.000  C
  H63      1.0000 0.47880  0.28510  0.52620  Biso   1.000  H
  C103     1.0000 0.39820  0.14200  0.62000  Biso   1.000  C
  H64      1.0000 0.37800  0.11120  0.64400  Biso   1.000  H
  O31      1.0000 0.51960  0.12500  0.64350  Biso   1.000  O
  C104     1.0000 0.47430  0.17000  0.61700  Biso   1.000  C
  C105     1.0000 0.57030  0.32900  0.65620  Biso   1.000  C
  H65      1.0000 0.55560  0.37560  0.68490  Biso   1.000  H
  C106     1.0000 0.55320  0.19580  0.62360  Biso   1.000  C
  C107     1.0000 0.57520  0.12610  0.58070  Biso   1.000  C
  H66      1.0000 0.56380  0.03700  0.55890  Biso   1.000  H
  C108     1.0000 0.61430  0.18970  0.57020  Biso   1.000  C
  H67      1.0000 0.62900  0.14310  0.54150  Biso   1.000  H
  C109     1.0000 0.63140  0.32300  0.60280  Biso   1.000  C
  C110     1.0000 0.60940  0.39260  0.64570  Biso   1.000  C
  H68      1.0000 0.62090  0.48180  0.66750  Biso   1.000  H
  C111     1.0000 0.44370  0.11100  0.64540  Biso   1.000  C
  H69      1.0000 0.45400  0.04810  0.68350  Biso   1.000  H
  H70      1.0000 0.48110  0.32770  0.55030  Biso   1.000  H
  C112     1.0000 0.39440  0.07200  0.57480  Biso   1.000  C
  H71      1.0000 0.37200  0.00460  0.57850  Biso   1.000  H
  C113     1.0000 0.43970  0.02400  0.58910  Biso   1.000  C
  H72      1.0000 0.44870  0.93160  0.60900  Biso   1.000  H
  C114     1.0000 0.47110  0.11700  0.57320  Biso   1.000  C
  O32      1.0000 0.51440  0.05600  0.58730  Biso   1.000  O
  C115     1.0000 0.54980  0.13970  0.58230  Biso   1.000  C
  C116     1.0000 0.57290  0.10160  0.53460  Biso   1.000  C
  H73      1.0000 0.56160  0.02590  0.50250  Biso   1.000  H
  C117     1.0000 0.61290  0.17660  0.53480  Biso   1.000  C
  H74      1.0000 0.62840  0.15120  0.50290  Biso   1.000  H
  C118     1.0000 0.62990  0.28980  0.58270  Biso   1.000  C
  C119     1.0000 0.60680  0.32790  0.63030  Biso   1.000  C
  H75      1.0000 0.61820  0.40360  0.66240  Biso   1.000  H
  C120     1.0000 0.56680  0.25300  0.63010  Biso   1.000  C
  H76      1.0000 0.55140  0.27830  0.66210  Biso   1.000  H
  Tb5      1.0000 0.75021  0.02671  0.92746  Biso   1.000  Tb
  O33      1.0000 0.81800  0.12320  0.00180  Biso   1.000  O
  O34      1.0000 0.19380  0.03080  0.13460  Biso   1.000  O
  O35      1.0000 0.68350  0.97510  0.81870  Biso   1.000  O
  O36      1.0000 0.69980  0.81600  0.90390  Biso   1.000  O
  O37      1.0000 0.19570  0.18280  0.04930  Biso   1.000  O
  O38      1.0000 0.80410  0.34270  0.04180  Biso   1.000  O
  C121     1.0000 0.62660  0.79020  0.81960  Biso   1.000  C
  C122     1.0000 0.67270  0.86300  0.84740  Biso   1.000  C
  C123     1.0000 0.88090  0.27600  0.05440  Biso   1.000  C
  C124     1.0000 0.59480  0.84050  0.76030  Biso   1.000  C
  H77      1.0000 0.60210  0.91970  0.73580  Biso   1.000  H
  C125     1.0000 0.17590  0.13180  0.09250  Biso   1.000  C
  C126     1.0000 0.83050  0.24530  0.03110  Biso   1.000  C
  C127     1.0000 0.61520  0.67120  0.85650  Biso   1.000  C
  H78      1.0000 0.63670  0.63770  0.89700  Biso   1.000  H
  C128     1.0000 0.91220  0.20450  0.02990  Biso   1.000  C
  H79      1.0000 0.90220  0.12780  0.99790  Biso   1.000  H
  C129     1.0000 0.57270  0.60330  0.83380  Biso   1.000  C
  H80      1.0000 0.56520  0.52500  0.85860  Biso   1.000  H
  C130     1.0000 0.54110  0.65550  0.77220  Biso   1.000  C
  C131     1.0000 0.55140  0.77350  0.73640  Biso   1.000  C
  H81      1.0000 0.52970  0.80870  0.69640  Biso   1.000  H
  C132     1.0000 0.95880  0.24240  0.05120  Biso   1.000  C
  H82      1.0000 0.97880  0.21490  0.02620  Biso   1.000  H
  C133     1.0000 0.89820  0.35800  0.12000  Biso   1.000  C
  H83      1.0000 0.87800  0.38880  0.14400  Biso   1.000  H
  O39      1.0000 0.01960  0.37500  0.14350  Biso   1.000  O
  C134     1.0000 0.97430  0.33000  0.11700  Biso   1.000  C
  C135     1.0000 0.07030  0.17100  0.15620  Biso   1.000  C
  H84      1.0000 0.05560  0.12440  0.18490  Biso   1.000  H
  C136     1.0000 0.05320  0.30420  0.12360  Biso   1.000  C
  C137     1.0000 0.07520  0.37390  0.08070  Biso   1.000  C
  H85      1.0000 0.06380  0.46300  0.05890  Biso   1.000  H
  C138     1.0000 0.11430  0.31030  0.07020  Biso   1.000  C
  H86      1.0000 0.12900  0.35690  0.04150  Biso   1.000  H
  C139     1.0000 0.13140  0.17700  0.10280  Biso   1.000  C
  C140     1.0000 0.10940  0.10740  0.14570  Biso   1.000  C
  H87      1.0000 0.12090  0.01820  0.16750  Biso   1.000  H
  C141     1.0000 0.94370  0.38900  0.14540  Biso   1.000  C
  H88      1.0000 0.95400  0.45190  0.18350  Biso   1.000  H
  H89      1.0000 0.98110  0.17230  0.05030  Biso   1.000  H
  C142     1.0000 0.89440  0.42800  0.07480  Biso   1.000  C
  H90      1.0000 0.87200  0.49540  0.07850  Biso   1.000  H
  C143     1.0000 0.93970  0.47600  0.08910  Biso   1.000  C
  H91      1.0000 0.94870  0.56840  0.10900  Biso   1.000  H
  C144     1.0000 0.97110  0.38300  0.07320  Biso   1.000  C
  O40      1.0000 0.01440  0.44400  0.08730  Biso   1.000  O
  C145     1.0000 0.04980  0.36030  0.08230  Biso   1.000  C
  C146     1.0000 0.07290  0.39840  0.03460  Biso   1.000  C
  H92      1.0000 0.06160  0.47410  0.00250  Biso   1.000  H
  C147     1.0000 0.11290  0.32340  0.03480  Biso   1.000  C
  H93      1.0000 0.12840  0.34880  0.00290  Biso   1.000  H
  C148     1.0000 0.12990  0.21020  0.08270  Biso   1.000  C
  C149     1.0000 0.10680  0.17210  0.13030  Biso   1.000  C
  H94      1.0000 0.11820  0.09640  0.16240  Biso   1.000  H
  C150     1.0000 0.06680  0.24700  0.13010  Biso   1.000  C
  H95      1.0000 0.05140  0.22170  0.16210  Biso   1.000  H
  Tb6      1.0000 0.25021  0.52671  0.92746  Biso   1.000  Tb
  O41      1.0000 0.31800  0.62320  0.00180  Biso   1.000  O
  O42      1.0000 0.69380  0.53080  0.13460  Biso   1.000  O
  O43      1.0000 0.18350  0.47510  0.81870  Biso   1.000  O
  O44      1.0000 0.19980  0.31600  0.90390  Biso   1.000  O
  O45      1.0000 0.69570  0.68280  0.04930  Biso   1.000  O
  O46      1.0000 0.30410  0.84270  0.04180  Biso   1.000  O
  C151     1.0000 0.12660  0.29020  0.81960  Biso   1.000  C
  C152     1.0000 0.17270  0.36300  0.84740  Biso   1.000  C
  C153     1.0000 0.38090  0.77600  0.05440  Biso   1.000  C
  C154     1.0000 0.09480  0.34050  0.76030  Biso   1.000  C
  H96      1.0000 0.10210  0.41970  0.73580  Biso   1.000  H
  C155     1.0000 0.67590  0.63180  0.09250  Biso   1.000  C
  C156     1.0000 0.33050  0.74530  0.03110  Biso   1.000  C
  C157     1.0000 0.11520  0.17120  0.85650  Biso   1.000  C
  H97      1.0000 0.13670  0.13770  0.89700  Biso   1.000  H
  C158     1.0000 0.41220  0.70450  0.02990  Biso   1.000  C
  H98      1.0000 0.40220  0.62780  0.99790  Biso   1.000  H
  C159     1.0000 0.07270  0.10330  0.83380  Biso   1.000  C
  H99      1.0000 0.06520  0.02500  0.85860  Biso   1.000  H
  C160     1.0000 0.04110  0.15550  0.77220  Biso   1.000  C
  C161     1.0000 0.05140  0.27350  0.73640  Biso   1.000  C
  H100     1.0000 0.02970  0.30870  0.69640  Biso   1.000  H
  C162     1.0000 0.45880  0.74240  0.05120  Biso   1.000  C
  H101     1.0000 0.47880  0.71490  0.02620  Biso   1.000  H
  C163     1.0000 0.39820  0.85800  0.12000  Biso   1.000  C
  H102     1.0000 0.37800  0.88880  0.14400  Biso   1.000  H
  O47      1.0000 0.51960  0.87500  0.14350  Biso   1.000  O
  C164     1.0000 0.47430  0.83000  0.11700  Biso   1.000  C
  C165     1.0000 0.57030  0.67100  0.15620  Biso   1.000  C
  H103     1.0000 0.55560  0.62440  0.18490  Biso   1.000  H
  C166     1.0000 0.55320  0.80420  0.12360  Biso   1.000  C
  C167     1.0000 0.57520  0.87390  0.08070  Biso   1.000  C
  H104     1.0000 0.56380  0.96300  0.05890  Biso   1.000  H
  C168     1.0000 0.61430  0.81030  0.07020  Biso   1.000  C
  H105     1.0000 0.62900  0.85690  0.04150  Biso   1.000  H
  C169     1.0000 0.63140  0.67700  0.10280  Biso   1.000  C
  C170     1.0000 0.60940  0.60740  0.14570  Biso   1.000  C
  H106     1.0000 0.62090  0.51820  0.16750  Biso   1.000  H
  C171     1.0000 0.44370  0.88900  0.14540  Biso   1.000  C
  H107     1.0000 0.45400  0.95190  0.18350  Biso   1.000  H
  H108     1.0000 0.48110  0.67230  0.05030  Biso   1.000  H
  C172     1.0000 0.39440  0.92800  0.07480  Biso   1.000  C
  H109     1.0000 0.37200  0.99540  0.07850  Biso   1.000  H
  C173     1.0000 0.43970  0.97600  0.08910  Biso   1.000  C
  H110     1.0000 0.44870  0.06840  0.10900  Biso   1.000  H
  C174     1.0000 0.47110  0.88300  0.07320  Biso   1.000  C
  O48      1.0000 0.51440  0.94400  0.08730  Biso   1.000  O
  C175     1.0000 0.54980  0.86030  0.08230  Biso   1.000  C
  C176     1.0000 0.57290  0.89840  0.03460  Biso   1.000  C
  H111     1.0000 0.56160  0.97410  0.00250  Biso   1.000  H
  C177     1.0000 0.61290  0.82340  0.03480  Biso   1.000  C
  H112     1.0000 0.62840  0.84880  0.00290  Biso   1.000  H
  C178     1.0000 0.62990  0.71020  0.08270  Biso   1.000  C
  C179     1.0000 0.60680  0.67210  0.13030  Biso   1.000  C
  H113     1.0000 0.61820  0.59640  0.16240  Biso   1.000  H
  C180     1.0000 0.56680  0.74700  0.13010  Biso   1.000  C
  H114     1.0000 0.55140  0.72170  0.16210  Biso   1.000  H
  Tb7      1.0000 0.24979  0.02671  0.57254  Biso   1.000  Tb
  O49      1.0000 0.18200  0.12320  0.49820  Biso   1.000  O
  O50      1.0000 0.80620  0.03080  0.36540  Biso   1.000  O
  O51      1.0000 0.31650  0.97510  0.68130  Biso   1.000  O
  O52      1.0000 0.30020  0.81600  0.59610  Biso   1.000  O
  O53      1.0000 0.80430  0.18280  0.45070  Biso   1.000  O
  O54      1.0000 0.19590  0.34270  0.45820  Biso   1.000  O
  C181     1.0000 0.37340  0.79020  0.68040  Biso   1.000  C
  C182     1.0000 0.32730  0.86300  0.65260  Biso   1.000  C
  C183     1.0000 0.11910  0.27600  0.44560  Biso   1.000  C
  C184     1.0000 0.40520  0.84050  0.73970  Biso   1.000  C
  H115     1.0000 0.39790  0.91970  0.76420  Biso   1.000  H
  C185     1.0000 0.82410  0.13180  0.40750  Biso   1.000  C
  C186     1.0000 0.16950  0.24530  0.46890  Biso   1.000  C
  C187     1.0000 0.38480  0.67120  0.64350  Biso   1.000  C
  H116     1.0000 0.36330  0.63770  0.60300  Biso   1.000  H
  C188     1.0000 0.08780  0.20450  0.47010  Biso   1.000  C
  H117     1.0000 0.09780  0.12780  0.50210  Biso   1.000  H
  C189     1.0000 0.42730  0.60330  0.66620  Biso   1.000  C
  H118     1.0000 0.43480  0.52500  0.64140  Biso   1.000  H
  C190     1.0000 0.45890  0.65550  0.72780  Biso   1.000  C
  C191     1.0000 0.44860  0.77350  0.76360  Biso   1.000  C
  H119     1.0000 0.47030  0.80870  0.80360  Biso   1.000  H
  C192     1.0000 0.04120  0.24240  0.44880  Biso   1.000  C
  H120     1.0000 0.02120  0.21490  0.47380  Biso   1.000  H
  C193     1.0000 0.10180  0.35800  0.38000  Biso   1.000  C
  H121     1.0000 0.12200  0.38880  0.35600  Biso   1.000  H
  O55      1.0000 0.98040  0.37500  0.35650  Biso   1.000  O
  C194     1.0000 0.02570  0.33000  0.38300  Biso   1.000  C
  C195     1.0000 0.92970  0.17100  0.34380  Biso   1.000  C
  H122     1.0000 0.94440  0.12440  0.31510  Biso   1.000  H
  C196     1.0000 0.94680  0.30420  0.37640  Biso   1.000  C
  C197     1.0000 0.92480  0.37390  0.41930  Biso   1.000  C
  H123     1.0000 0.93620  0.46300  0.44110  Biso   1.000  H
  C198     1.0000 0.88570  0.31030  0.42980  Biso   1.000  C
  H124     1.0000 0.87100  0.35690  0.45850  Biso   1.000  H
  C199     1.0000 0.86860  0.17700  0.39720  Biso   1.000  C
  C200     1.0000 0.89060  0.10740  0.35430  Biso   1.000  C
  H125     1.0000 0.87910  0.01820  0.33250  Biso   1.000  H
  C201     1.0000 0.05630  0.38900  0.35460  Biso   1.000  C
  H126     1.0000 0.04600  0.45190  0.31650  Biso   1.000  H
  H127     1.0000 0.01890  0.17230  0.44970  Biso   1.000  H
  C202     1.0000 0.10560  0.42800  0.42520  Biso   1.000  C
  H128     1.0000 0.12800  0.49540  0.42150  Biso   1.000  H
  C203     1.0000 0.06030  0.47600  0.41090  Biso   1.000  C
  H129     1.0000 0.05130  0.56840  0.39100  Biso   1.000  H
  C204     1.0000 0.02890  0.38300  0.42680  Biso   1.000  C
  O56      1.0000 0.98560  0.44400  0.41270  Biso   1.000  O
  C205     1.0000 0.95020  0.36030  0.41770  Biso   1.000  C
  C206     1.0000 0.92710  0.39840  0.46540  Biso   1.000  C
  H130     1.0000 0.93840  0.47410  0.49750  Biso   1.000  H
  C207     1.0000 0.88710  0.32340  0.46520  Biso   1.000  C
  H131     1.0000 0.87160  0.34880  0.49710  Biso   1.000  H
  C208     1.0000 0.87010  0.21020  0.41730  Biso   1.000  C
  C209     1.0000 0.89320  0.17210  0.36970  Biso   1.000  C
  H132     1.0000 0.88180  0.09640  0.33760  Biso   1.000  H
  C210     1.0000 0.93320  0.24700  0.36990  Biso   1.000  C
  H133     1.0000 0.94860  0.22170  0.33790  Biso   1.000  H
  Tb8      1.0000 0.74979  0.52671  0.57254  Biso   1.000  Tb
  O57      1.0000 0.68200  0.62320  0.49820  Biso   1.000  O
  O58      1.0000 0.30620  0.53080  0.36540  Biso   1.000  O
  O59      1.0000 0.81650  0.47510  0.68130  Biso   1.000  O
  O60      1.0000 0.80020  0.31600  0.59610  Biso   1.000  O
  O61      1.0000 0.30430  0.68280  0.45070  Biso   1.000  O
  O62      1.0000 0.69590  0.84270  0.45820  Biso   1.000  O
  C211     1.0000 0.87340  0.29020  0.68040  Biso   1.000  C
  C212     1.0000 0.82730  0.36300  0.65260  Biso   1.000  C
  C213     1.0000 0.61910  0.77600  0.44560  Biso   1.000  C
  C214     1.0000 0.90520  0.34050  0.73970  Biso   1.000  C
  H134     1.0000 0.89790  0.41970  0.76420  Biso   1.000  H
  C215     1.0000 0.32410  0.63180  0.40750  Biso   1.000  C
  C216     1.0000 0.66950  0.74530  0.46890  Biso   1.000  C
  C217     1.0000 0.88480  0.17120  0.64350  Biso   1.000  C
  H135     1.0000 0.86330  0.13770  0.60300  Biso   1.000  H
  C218     1.0000 0.58780  0.70450  0.47010  Biso   1.000  C
  H136     1.0000 0.59780  0.62780  0.50210  Biso   1.000  H
  C219     1.0000 0.92730  0.10330  0.66620  Biso   1.000  C
  H137     1.0000 0.93480  0.02500  0.64140  Biso   1.000  H
  C220     1.0000 0.95890  0.15550  0.72780  Biso   1.000  C
  C221     1.0000 0.94860  0.27350  0.76360  Biso   1.000  C
  H138     1.0000 0.97030  0.30870  0.80360  Biso   1.000  H
  C222     1.0000 0.54120  0.74240  0.44880  Biso   1.000  C
  H139     1.0000 0.52120  0.71490  0.47380  Biso   1.000  H
  C223     1.0000 0.60180  0.85800  0.38000  Biso   1.000  C
  H140     1.0000 0.62200  0.88880  0.35600  Biso   1.000  H
  O63      1.0000 0.48040  0.87500  0.35650  Biso   1.000  O
  C224     1.0000 0.52570  0.83000  0.38300  Biso   1.000  C
  C225     1.0000 0.42970  0.67100  0.34380  Biso   1.000  C
  H141     1.0000 0.44440  0.62440  0.31510  Biso   1.000  H
  C226     1.0000 0.44680  0.80420  0.37640  Biso   1.000  C
  C227     1.0000 0.42480  0.87390  0.41930  Biso   1.000  C
  H142     1.0000 0.43620  0.96300  0.44110  Biso   1.000  H
  C228     1.0000 0.38570  0.81030  0.42980  Biso   1.000  C
  H143     1.0000 0.37100  0.85690  0.45850  Biso   1.000  H
  C229     1.0000 0.36860  0.67700  0.39720  Biso   1.000  C
  C230     1.0000 0.39060  0.60740  0.35430  Biso   1.000  C
  H144     1.0000 0.37910  0.51820  0.33250  Biso   1.000  H
  C231     1.0000 0.55630  0.88900  0.35460  Biso   1.000  C
  H145     1.0000 0.54600  0.95190  0.31650  Biso   1.000  H
  H146     1.0000 0.51890  0.67230  0.44970  Biso   1.000  H
  C232     1.0000 0.60560  0.92800  0.42520  Biso   1.000  C
  H147     1.0000 0.62800  0.99540  0.42150  Biso   1.000  H
  C233     1.0000 0.56030  0.97600  0.41090  Biso   1.000  C
  H148     1.0000 0.55130  0.06840  0.39100  Biso   1.000  H
  C234     1.0000 0.52890  0.88300  0.42680  Biso   1.000  C
  O64      1.0000 0.48560  0.94400  0.41270  Biso   1.000  O
  C235     1.0000 0.45020  0.86030  0.41770  Biso   1.000  C
  C236     1.0000 0.42710  0.89840  0.46540  Biso   1.000  C
  H149     1.0000 0.43840  0.97410  0.49750  Biso   1.000  H
  C237     1.0000 0.38710  0.82340  0.46520  Biso   1.000  C
  H150     1.0000 0.37160  0.84880  0.49710  Biso   1.000  H
  C238     1.0000 0.37010  0.71020  0.41730  Biso   1.000  C
  C239     1.0000 0.39320  0.67210  0.36970  Biso   1.000  C
  H151     1.0000 0.38180  0.59640  0.33760  Biso   1.000  H
  C240     1.0000 0.43320  0.74700  0.36990  Biso   1.000  C
  H152     1.0000 0.44860  0.72170  0.33790  Biso   1.000  H
  O65      1.0000 0.50000  0.42140  0.25000  Biso   1.000  O
  O66      1.0000 0.00000  0.92140  0.25000  Biso   1.000  O
  O67      1.0000 0.50000  0.57860  0.75000  Biso   1.000  O
  O68      1.0000 0.00000  0.07860  0.75000  Biso   1.000  O
