data_image0
_cell_length_a       13.405
_cell_length_b       14.705
_cell_length_c       13.388
_cell_angle_alpha    90
_cell_angle_beta     99.357
_cell_angle_gamma    90

_symmetry_space_group_name_H-M    "P 1"
_symmetry_int_tables_number       1

loop_
  _symmetry_equiv_pos_as_xyz
  'x, y, z'

loop_
  _atom_site_label
  _atom_site_occupancy
  _atom_site_fract_x
  _atom_site_fract_y
  _atom_site_fract_z
  _atom_site_thermal_displace_type
  _atom_site_B_iso_or_equiv
  _atom_site_type_symbol
  O1       1.0000 0.94070  0.43910  0.57350  Biso   1.000  O
  O2       1.0000 0.06290  0.34200  0.61810  Biso   1.000  O
  O3       1.0000 0.01020  0.13030  0.89510  Biso   1.000  O
  O4       1.0000 0.86430  0.05240  0.87160  Biso   1.000  O
  N1       1.0000 0.41500  0.26350  0.55540  Biso   1.000  N
  C1       1.0000 0.97300  0.36620  0.61350  Biso   1.000  C
  C2       1.0000 0.90230  0.30430  0.65720  Biso   1.000  C
  C3       1.0000 0.94160  0.24160  0.73170  Biso   1.000  C
  H1       1.0000 0.01240  0.23910  0.75500  Biso   1.000  H
  C4       1.0000 0.87710  0.18280  0.77160  Biso   1.000  C
  C5       1.0000 0.77380  0.18600  0.73630  Biso   1.000  C
  H2       1.0000 0.73010  0.14500  0.76280  Biso   1.000  H
  C6       1.0000 0.73360  0.24870  0.66240  Biso   1.000  C
  C7       1.0000 0.79890  0.30840  0.62380  Biso   1.000  C
  H3       1.0000 0.77230  0.35210  0.57430  Biso   1.000  H
  C8       1.0000 0.62290  0.25320  0.62490  Biso   1.000  C
  C9       1.0000 0.55370  0.23970  0.68970  Biso   1.000  C
  H4       1.0000 0.57600  0.22630  0.75910  Biso   1.000  H
  C10      1.0000 0.45090  0.24610  0.65170  Biso   1.000  C
  H5       1.0000 0.40410  0.23750  0.69710  Biso   1.000  H
  C11      1.0000 0.48210  0.27560  0.49380  Biso   1.000  C
  H6       1.0000 0.45770  0.28770  0.42440  Biso   1.000  H
  C12      1.0000 0.58510  0.27170  0.52500  Biso   1.000  C
  H7       1.0000 0.62990  0.28160  0.47790  Biso   1.000  H
  C13      1.0000 0.92070  0.11560  0.85250  Biso   1.000  C
  O5       1.0000 0.27880  0.42060  0.65330  Biso   1.000  O
  O6       1.0000 0.30870  0.50100  0.52300  Biso   1.000  O
  O7       1.0000 0.69720  0.50710  0.51360  Biso   1.000  O
  O8       1.0000 0.78860  0.55310  0.65630  Biso   1.000  O
  C14      1.0000 0.33650  0.46810  0.60960  Biso   1.000  C
  C15      1.0000 0.44180  0.48550  0.66350  Biso   1.000  C
  C16      1.0000 0.52140  0.49880  0.61030  Biso   1.000  C
  C17      1.0000 0.61820  0.51530  0.66220  Biso   1.000  C
  C18      1.0000 0.63540  0.51840  0.76740  Biso   1.000  C
  H8       1.0000 0.70220  0.52980  0.80320  Biso   1.000  H
  C19      1.0000 0.55580  0.50500  0.82060  Biso   1.000  C
  C20      1.0000 0.45900  0.48860  0.76870  Biso   1.000  C
  H9       1.0000 0.40400  0.47940  0.80550  Biso   1.000  H
  C21      1.0000 0.57330  0.51180  0.93460  Biso   1.000  C
  C22      1.0000 0.66120  0.54620  0.98920  Biso   1.000  C
  H10      1.0000 0.71320  0.56780  0.95360  Biso   1.000  H
  N2       1.0000 0.60920  0.52220  0.14990  Biso   1.000  N
  C23      1.0000 0.67750  0.55080  0.09570  Biso   1.000  C
  H11      1.0000 0.74080  0.57470  0.12940  Biso   1.000  H
  C24      1.0000 0.52360  0.48870  0.09760  Biso   1.000  C
  H12      1.0000 0.47370  0.46780  0.13620  Biso   1.000  H
  C25      1.0000 0.50020  0.48120  0.99190  Biso   1.000  C
  H13      1.0000 0.43680  0.45640  0.95980  Biso   1.000  H
  C26      1.0000 0.70640  0.52700  0.60670  Biso   1.000  C
  Dy1      1.0000 0.13893  0.43676  0.50902  Biso   1.000  Dy
  O9       1.0000 0.25720  0.39660  0.66200  Biso   1.000  O
  O10      1.0000 0.43310  0.55280  0.65810  Biso   1.000  O
  O11      1.0000 0.19320  0.07060  0.84880  Biso   1.000  O
  O12      1.0000 0.37100  0.99060  0.82360  Biso   1.000  O
  O13      1.0000 0.05930  0.93910  0.92650  Biso   1.000  O
  O14      1.0000 0.93710  0.84200  0.88190  Biso   1.000  O
  O15      1.0000 0.98980  0.63030  0.60490  Biso   1.000  O
  O16      1.0000 0.13570  0.55240  0.62840  Biso   1.000  O
  N3       1.0000 0.58500  0.76350  0.94460  Biso   1.000  N
  C27      1.0000 0.02700  0.86620  0.88650  Biso   1.000  C
  C28      1.0000 0.09770  0.80430  0.84280  Biso   1.000  C
  C29      1.0000 0.05840  0.74160  0.76830  Biso   1.000  C
  H14      1.0000 0.98760  0.73910  0.74500  Biso   1.000  H
  C30      1.0000 0.12290  0.68280  0.72840  Biso   1.000  C
  C31      1.0000 0.22620  0.68600  0.76370  Biso   1.000  C
  H15      1.0000 0.26990  0.64500  0.73720  Biso   1.000  H
  C32      1.0000 0.26640  0.74870  0.83760  Biso   1.000  C
  C33      1.0000 0.20110  0.80840  0.87620  Biso   1.000  C
  H16      1.0000 0.22770  0.85210  0.92570  Biso   1.000  H
  C34      1.0000 0.37710  0.75320  0.87510  Biso   1.000  C
  C35      1.0000 0.44630  0.73970  0.81030  Biso   1.000  C
  H17      1.0000 0.42400  0.72630  0.74090  Biso   1.000  H
  C36      1.0000 0.54910  0.74610  0.84830  Biso   1.000  C
  H18      1.0000 0.59590  0.73750  0.80290  Biso   1.000  H
  C37      1.0000 0.51790  0.77560  0.00620  Biso   1.000  C
  H19      1.0000 0.54230  0.78770  0.07560  Biso   1.000  H
  C38      1.0000 0.41490  0.77170  0.97500  Biso   1.000  C
  H20      1.0000 0.37010  0.78160  0.02210  Biso   1.000  H
  C39      1.0000 0.07930  0.61560  0.64750  Biso   1.000  C
  O17      1.0000 0.72120  0.92060  0.84670  Biso   1.000  O
  O18      1.0000 0.69130  0.00100  0.97700  Biso   1.000  O
  O19      1.0000 0.30280  0.00710  0.98640  Biso   1.000  O
  O20      1.0000 0.21140  0.05310  0.84370  Biso   1.000  O
  C40      1.0000 0.66350  0.96810  0.89040  Biso   1.000  C
  C41      1.0000 0.55820  0.98550  0.83650  Biso   1.000  C
  C42      1.0000 0.47860  0.99880  0.88970  Biso   1.000  C
  C43      1.0000 0.38180  0.01530  0.83780  Biso   1.000  C
  C44      1.0000 0.36460  0.01840  0.73260  Biso   1.000  C
  H21      1.0000 0.29780  0.02980  0.69680  Biso   1.000  H
  C45      1.0000 0.44420  0.00500  0.67940  Biso   1.000  C
  C46      1.0000 0.54100  0.98860  0.73130  Biso   1.000  C
  H22      1.0000 0.59600  0.97940  0.69450  Biso   1.000  H
  C47      1.0000 0.42670  0.01180  0.56540  Biso   1.000  C
  C48      1.0000 0.33880  0.04620  0.51080  Biso   1.000  C
  H23      1.0000 0.28680  0.06780  0.54640  Biso   1.000  H
  N4       1.0000 0.39080  0.02220  0.35010  Biso   1.000  N
  C49      1.0000 0.32250  0.05080  0.40430  Biso   1.000  C
  H24      1.0000 0.25920  0.07470  0.37060  Biso   1.000  H
  C50      1.0000 0.47640  0.98870  0.40240  Biso   1.000  C
  H25      1.0000 0.52630  0.96780  0.36380  Biso   1.000  H
  C51      1.0000 0.49980  0.98120  0.50810  Biso   1.000  C
  H26      1.0000 0.56320  0.95640  0.54020  Biso   1.000  H
  C52      1.0000 0.29360  0.02700  0.89330  Biso   1.000  C
  Dy2      1.0000 0.86107  0.93676  0.99098  Biso   1.000  Dy
  O21      1.0000 0.74280  0.89660  0.83800  Biso   1.000  O
  O22      1.0000 0.56690  0.05280  0.84190  Biso   1.000  O
  O23      1.0000 0.80680  0.57060  0.65120  Biso   1.000  O
  O24      1.0000 0.62900  0.49060  0.67640  Biso   1.000  O
  O25      1.0000 0.05930  0.56090  0.42650  Biso   1.000  O
  O26      1.0000 0.93710  0.65800  0.38190  Biso   1.000  O
  O27      1.0000 0.98980  0.86970  0.10490  Biso   1.000  O
  O28      1.0000 0.13570  0.94760  0.12840  Biso   1.000  O
  N5       1.0000 0.58500  0.73650  0.44460  Biso   1.000  N
  C53      1.0000 0.02700  0.63380  0.38650  Biso   1.000  C
  C54      1.0000 0.09770  0.69570  0.34280  Biso   1.000  C
  C55      1.0000 0.05840  0.75840  0.26830  Biso   1.000  C
  H27      1.0000 0.98760  0.76090  0.24500  Biso   1.000  H
  C56      1.0000 0.12290  0.81720  0.22840  Biso   1.000  C
  C57      1.0000 0.22620  0.81400  0.26370  Biso   1.000  C
  H28      1.0000 0.26990  0.85500  0.23720  Biso   1.000  H
  C58      1.0000 0.26640  0.75130  0.33760  Biso   1.000  C
  C59      1.0000 0.20110  0.69160  0.37620  Biso   1.000  C
  H29      1.0000 0.22770  0.64790  0.42570  Biso   1.000  H
  C60      1.0000 0.37710  0.74680  0.37510  Biso   1.000  C
  C61      1.0000 0.44630  0.76030  0.31030  Biso   1.000  C
  H30      1.0000 0.42400  0.77370  0.24090  Biso   1.000  H
  C62      1.0000 0.54910  0.75390  0.34830  Biso   1.000  C
  H31      1.0000 0.59590  0.76250  0.30290  Biso   1.000  H
  C63      1.0000 0.51790  0.72440  0.50620  Biso   1.000  C
  H32      1.0000 0.54230  0.71230  0.57560  Biso   1.000  H
  C64      1.0000 0.41490  0.72830  0.47500  Biso   1.000  C
  H33      1.0000 0.37010  0.71840  0.52210  Biso   1.000  H
  C65      1.0000 0.07930  0.88440  0.14750  Biso   1.000  C
  O29      1.0000 0.72120  0.57940  0.34670  Biso   1.000  O
  O30      1.0000 0.69130  0.49900  0.47700  Biso   1.000  O
  O31      1.0000 0.30280  0.49290  0.48640  Biso   1.000  O
  O32      1.0000 0.21140  0.44690  0.34370  Biso   1.000  O
  C66      1.0000 0.66350  0.53190  0.39040  Biso   1.000  C
  C67      1.0000 0.55820  0.51450  0.33650  Biso   1.000  C
  C68      1.0000 0.47860  0.50120  0.38970  Biso   1.000  C
  C69      1.0000 0.38180  0.48470  0.33780  Biso   1.000  C
  C70      1.0000 0.36460  0.48160  0.23260  Biso   1.000  C
  H34      1.0000 0.29780  0.47020  0.19680  Biso   1.000  H
  C71      1.0000 0.44420  0.49500  0.17940  Biso   1.000  C
  C72      1.0000 0.54100  0.51140  0.23130  Biso   1.000  C
  H35      1.0000 0.59600  0.52060  0.19450  Biso   1.000  H
  C73      1.0000 0.42670  0.48820  0.06540  Biso   1.000  C
  C74      1.0000 0.33880  0.45380  0.01080  Biso   1.000  C
  H36      1.0000 0.28680  0.43220  0.04640  Biso   1.000  H
  N6       1.0000 0.39080  0.47780  0.85010  Biso   1.000  N
  C75      1.0000 0.32250  0.44920  0.90430  Biso   1.000  C
  H37      1.0000 0.25920  0.42530  0.87060  Biso   1.000  H
  C76      1.0000 0.47640  0.51130  0.90240  Biso   1.000  C
  H38      1.0000 0.52630  0.53220  0.86380  Biso   1.000  H
  C77      1.0000 0.49980  0.51880  0.00810  Biso   1.000  C
  H39      1.0000 0.56320  0.54360  0.04020  Biso   1.000  H
  C78      1.0000 0.29360  0.47300  0.39330  Biso   1.000  C
  Dy3      1.0000 0.86107  0.56325  0.49098  Biso   1.000  Dy
  O33      1.0000 0.74280  0.60340  0.33800  Biso   1.000  O
  O34      1.0000 0.56690  0.44720  0.34190  Biso   1.000  O
  O35      1.0000 0.80680  0.92940  0.15120  Biso   1.000  O
  O36      1.0000 0.62900  0.00940  0.17640  Biso   1.000  O
  O37      1.0000 0.94070  0.06090  0.07350  Biso   1.000  O
  O38      1.0000 0.06290  0.15800  0.11810  Biso   1.000  O
  O39      1.0000 0.01020  0.36970  0.39510  Biso   1.000  O
  O40      1.0000 0.86430  0.44760  0.37160  Biso   1.000  O
  N7       1.0000 0.41500  0.23650  0.05540  Biso   1.000  N
  C79      1.0000 0.97300  0.13380  0.11350  Biso   1.000  C
  C80      1.0000 0.90230  0.19570  0.15720  Biso   1.000  C
  C81      1.0000 0.94160  0.25840  0.23170  Biso   1.000  C
  H40      1.0000 0.01240  0.26090  0.25500  Biso   1.000  H
  C82      1.0000 0.87710  0.31720  0.27160  Biso   1.000  C
  C83      1.0000 0.77380  0.31400  0.23630  Biso   1.000  C
  H41      1.0000 0.73010  0.35500  0.26280  Biso   1.000  H
  C84      1.0000 0.73360  0.25130  0.16240  Biso   1.000  C
  C85      1.0000 0.79890  0.19160  0.12380  Biso   1.000  C
  H42      1.0000 0.77230  0.14790  0.07430  Biso   1.000  H
  C86      1.0000 0.62290  0.24680  0.12490  Biso   1.000  C
  C87      1.0000 0.55370  0.26030  0.18970  Biso   1.000  C
  H43      1.0000 0.57600  0.27370  0.25910  Biso   1.000  H
  C88      1.0000 0.45090  0.25390  0.15170  Biso   1.000  C
  H44      1.0000 0.40410  0.26250  0.19710  Biso   1.000  H
  C89      1.0000 0.48210  0.22440  0.99380  Biso   1.000  C
  H45      1.0000 0.45770  0.21230  0.92440  Biso   1.000  H
  C90      1.0000 0.58510  0.22830  0.02500  Biso   1.000  C
  H46      1.0000 0.62990  0.21840  0.97790  Biso   1.000  H
  C91      1.0000 0.92070  0.38440  0.35250  Biso   1.000  C
  O41      1.0000 0.27880  0.07940  0.15330  Biso   1.000  O
  O42      1.0000 0.30870  0.99900  0.02300  Biso   1.000  O
  O43      1.0000 0.69720  0.99290  0.01360  Biso   1.000  O
  O44      1.0000 0.78860  0.94690  0.15630  Biso   1.000  O
  C92      1.0000 0.33650  0.03190  0.10960  Biso   1.000  C
  C93      1.0000 0.44180  0.01450  0.16350  Biso   1.000  C
  C94      1.0000 0.52140  0.00120  0.11030  Biso   1.000  C
  C95      1.0000 0.61820  0.98470  0.16220  Biso   1.000  C
  C96      1.0000 0.63540  0.98160  0.26740  Biso   1.000  C
  H47      1.0000 0.70220  0.97020  0.30320  Biso   1.000  H
  C97      1.0000 0.55580  0.99500  0.32060  Biso   1.000  C
  C98      1.0000 0.45900  0.01140  0.26870  Biso   1.000  C
  H48      1.0000 0.40400  0.02060  0.30550  Biso   1.000  H
  C99      1.0000 0.57330  0.98820  0.43460  Biso   1.000  C
  C100     1.0000 0.66120  0.95380  0.48920  Biso   1.000  C
  H49      1.0000 0.71320  0.93220  0.45360  Biso   1.000  H
  N8       1.0000 0.60920  0.97780  0.64990  Biso   1.000  N
  C101     1.0000 0.67750  0.94920  0.59570  Biso   1.000  C
  H50      1.0000 0.74080  0.92530  0.62940  Biso   1.000  H
  C102     1.0000 0.52360  0.01130  0.59760  Biso   1.000  C
  H51      1.0000 0.47370  0.03220  0.63620  Biso   1.000  H
  C103     1.0000 0.50020  0.01880  0.49190  Biso   1.000  C
  H52      1.0000 0.43680  0.04360  0.45980  Biso   1.000  H
  C104     1.0000 0.70640  0.97300  0.10670  Biso   1.000  C
  Dy4      1.0000 0.13893  0.06324  0.00902  Biso   1.000  Dy
  O45      1.0000 0.25720  0.10340  0.16200  Biso   1.000  O
  O46      1.0000 0.43310  0.94720  0.15810  Biso   1.000  O
  O47      1.0000 0.19320  0.42940  0.34880  Biso   1.000  O
  O48      1.0000 0.37100  0.50940  0.32360  Biso   1.000  O
