data_image0
_cell_length_a       13.4721
_cell_length_b       14.8138
_cell_length_c       13.4131
_cell_angle_alpha    90
_cell_angle_beta     99.142
_cell_angle_gamma    90

_symmetry_space_group_name_H-M    "P 1"
_symmetry_int_tables_number       1

loop_
  _symmetry_equiv_pos_as_xyz
  'x, y, z'

loop_
  _atom_site_label
  _atom_site_occupancy
  _atom_site_fract_x
  _atom_site_fract_y
  _atom_site_fract_z
  _atom_site_thermal_displace_type
  _atom_site_B_iso_or_equiv
  _atom_site_type_symbol
  Sm1      1.0000 0.13798  0.43833  0.50818  Biso   1.000  Sm
  O1       1.0000 0.95270  0.43860  0.57590  Biso   1.000  O
  O2       1.0000 0.06710  0.33540  0.61840  Biso   1.000  O
  O3       1.0000 0.00910  0.13110  0.89270  Biso   1.000  O
  O4       1.0000 0.86000  0.06060  0.87540  Biso   1.000  O
  N1       1.0000 0.41980  0.26790  0.55360  Biso   1.000  N
  C1       1.0000 0.97920  0.36400  0.61540  Biso   1.000  C
  C2       1.0000 0.90640  0.30580  0.65790  Biso   1.000  C
  C3       1.0000 0.94250  0.24370  0.73260  Biso   1.000  C
  H1       1.0000 0.01270  0.23960  0.75590  Biso   1.000  H
  C4       1.0000 0.87680  0.18770  0.77330  Biso   1.000  C
  C5       1.0000 0.77380  0.19160  0.73680  Biso   1.000  C
  H2       1.0000 0.72930  0.15130  0.76270  Biso   1.000  H
  C6       1.0000 0.73590  0.25390  0.66280  Biso   1.000  C
  C7       1.0000 0.80330  0.31120  0.62320  Biso   1.000  C
  H3       1.0000 0.77850  0.35380  0.57240  Biso   1.000  H
  C8       1.0000 0.62590  0.25870  0.62350  Biso   1.000  C
  C9       1.0000 0.55710  0.24440  0.68680  Biso   1.000  C
  H4       1.0000 0.57920  0.23070  0.75590  Biso   1.000  H
  C10      1.0000 0.45510  0.25000  0.64990  Biso   1.000  C
  H5       1.0000 0.40850  0.24060  0.69520  Biso   1.000  H
  C11      1.0000 0.48590  0.28040  0.49440  Biso   1.000  C
  H6       1.0000 0.46190  0.29280  0.42520  Biso   1.000  H
  C12      1.0000 0.58850  0.27710  0.52470  Biso   1.000  C
  H7       1.0000 0.63290  0.28740  0.47750  Biso   1.000  H
  C13      1.0000 0.91820  0.12050  0.85310  Biso   1.000  C
  O5       1.0000 0.27980  0.42280  0.65750  Biso   1.000  O
  O6       1.0000 0.31340  0.49420  0.52290  Biso   1.000  O
  O7       1.0000 0.69480  0.50400  0.51610  Biso   1.000  O
  O8       1.0000 0.79130  0.54500  0.65810  Biso   1.000  O
  C14      1.0000 0.33770  0.46800  0.61260  Biso   1.000  C
  C15      1.0000 0.44220  0.48490  0.66680  Biso   1.000  C
  C16      1.0000 0.52220  0.49630  0.61410  Biso   1.000  C
  C17      1.0000 0.61830  0.51180  0.66620  Biso   1.000  C
  C18      1.0000 0.63450  0.51590  0.77110  Biso   1.000  C
  H8       1.0000 0.70190  0.52670  0.80770  Biso   1.000  H
  C19      1.0000 0.55450  0.50450  0.82380  Biso   1.000  C
  C20      1.0000 0.45830  0.48900  0.77160  Biso   1.000  C
  H9       1.0000 0.40250  0.48110  0.80790  Biso   1.000  H
  C21      1.0000 0.57310  0.51200  0.93660  Biso   1.000  C
  C22      1.0000 0.65900  0.55340  0.98710  Biso   1.000  C
  H10      1.0000 0.71090  0.57500  0.95150  Biso   1.000  H
  N2       1.0000 0.60790  0.52210  0.15010  Biso   1.000  N
  C23      1.0000 0.67460  0.55750  0.09470  Biso   1.000  C
  H11      1.0000 0.73790  0.58140  0.12830  Biso   1.000  H
  C24      1.0000 0.52570  0.48250  0.09980  Biso   1.000  C
  H12      1.0000 0.47570  0.46160  0.13840  Biso   1.000  H
  C25      1.0000 0.50630  0.47640  0.99550  Biso   1.000  C
  H13      1.0000 0.44300  0.45150  0.96330  Biso   1.000  H
  C26      1.0000 0.70690  0.52410  0.60920  Biso   1.000  C
  O9       1.0000 0.25610  0.39850  0.66390  Biso   1.000  O
  O10      1.0000 0.43010  0.55550  0.65690  Biso   1.000  O
  O11      1.0000 0.18420  0.06820  0.84680  Biso   1.000  O
  O12      1.0000 0.37790  0.00000  0.82700  Biso   1.000  O
  Sm2      1.0000 0.86202  0.93833  0.99182  Biso   1.000  Sm
  O13      1.0000 0.04730  0.93860  0.92410  Biso   1.000  O
  O14      1.0000 0.93290  0.83540  0.88160  Biso   1.000  O
  O15      1.0000 0.99090  0.63110  0.60730  Biso   1.000  O
  O16      1.0000 0.14000  0.56060  0.62460  Biso   1.000  O
  N3       1.0000 0.58020  0.76790  0.94640  Biso   1.000  N
  C27      1.0000 0.02080  0.86400  0.88460  Biso   1.000  C
  C28      1.0000 0.09360  0.80580  0.84210  Biso   1.000  C
  C29      1.0000 0.05750  0.74370  0.76740  Biso   1.000  C
  H14      1.0000 0.98730  0.73960  0.74410  Biso   1.000  H
  C30      1.0000 0.12320  0.68770  0.72670  Biso   1.000  C
  C31      1.0000 0.22620  0.69160  0.76320  Biso   1.000  C
  H15      1.0000 0.27070  0.65130  0.73730  Biso   1.000  H
  C32      1.0000 0.26410  0.75390  0.83720  Biso   1.000  C
  C33      1.0000 0.19670  0.81120  0.87680  Biso   1.000  C
  H16      1.0000 0.22150  0.85380  0.92760  Biso   1.000  H
  C34      1.0000 0.37410  0.75870  0.87650  Biso   1.000  C
  C35      1.0000 0.44290  0.74440  0.81320  Biso   1.000  C
  H17      1.0000 0.42080  0.73070  0.74410  Biso   1.000  H
  C36      1.0000 0.54490  0.75000  0.85010  Biso   1.000  C
  H18      1.0000 0.59150  0.74060  0.80480  Biso   1.000  H
  C37      1.0000 0.51410  0.78040  0.00560  Biso   1.000  C
  H19      1.0000 0.53810  0.79280  0.07480  Biso   1.000  H
  C38      1.0000 0.41150  0.77710  0.97530  Biso   1.000  C
  H20      1.0000 0.36710  0.78740  0.02250  Biso   1.000  H
  C39      1.0000 0.08180  0.62050  0.64690  Biso   1.000  C
  O17      1.0000 0.72020  0.92280  0.84250  Biso   1.000  O
  O18      1.0000 0.68660  0.99420  0.97710  Biso   1.000  O
  O19      1.0000 0.30520  0.00400  0.98390  Biso   1.000  O
  O20      1.0000 0.20870  0.04500  0.84190  Biso   1.000  O
  C40      1.0000 0.66230  0.96800  0.88740  Biso   1.000  C
  C41      1.0000 0.55780  0.98490  0.83320  Biso   1.000  C
  C42      1.0000 0.47780  0.99630  0.88590  Biso   1.000  C
  C43      1.0000 0.38170  0.01180  0.83380  Biso   1.000  C
  C44      1.0000 0.36550  0.01590  0.72890  Biso   1.000  C
  H21      1.0000 0.29810  0.02670  0.69230  Biso   1.000  H
  C45      1.0000 0.44550  0.00450  0.67620  Biso   1.000  C
  C46      1.0000 0.54170  0.98900  0.72840  Biso   1.000  C
  H22      1.0000 0.59750  0.98110  0.69210  Biso   1.000  H
  C47      1.0000 0.42690  0.01200  0.56340  Biso   1.000  C
  C48      1.0000 0.34100  0.05340  0.51290  Biso   1.000  C
  H23      1.0000 0.28910  0.07500  0.54850  Biso   1.000  H
  N4       1.0000 0.39210  0.02210  0.34990  Biso   1.000  N
  C49      1.0000 0.32540  0.05750  0.40530  Biso   1.000  C
  H24      1.0000 0.26210  0.08140  0.37170  Biso   1.000  H
  C50      1.0000 0.47430  0.98250  0.40020  Biso   1.000  C
  H25      1.0000 0.52430  0.96160  0.36160  Biso   1.000  H
  C51      1.0000 0.49370  0.97640  0.50450  Biso   1.000  C
  H26      1.0000 0.55700  0.95150  0.53670  Biso   1.000  H
  C52      1.0000 0.29310  0.02410  0.89080  Biso   1.000  C
  O21      1.0000 0.74390  0.89850  0.83610  Biso   1.000  O
  O22      1.0000 0.56990  0.05550  0.84310  Biso   1.000  O
  O23      1.0000 0.81580  0.56820  0.65320  Biso   1.000  O
  O24      1.0000 0.62210  0.50000  0.67300  Biso   1.000  O
  Sm3      1.0000 0.86202  0.56167  0.49182  Biso   1.000  Sm
  O25      1.0000 0.04730  0.56140  0.42410  Biso   1.000  O
  O26      1.0000 0.93290  0.66460  0.38160  Biso   1.000  O
  O27      1.0000 0.99090  0.86890  0.10730  Biso   1.000  O
  O28      1.0000 0.14000  0.93940  0.12460  Biso   1.000  O
  N5       1.0000 0.58020  0.73210  0.44640  Biso   1.000  N
  C53      1.0000 0.02080  0.63600  0.38460  Biso   1.000  C
  C54      1.0000 0.09360  0.69420  0.34210  Biso   1.000  C
  C55      1.0000 0.05750  0.75630  0.26740  Biso   1.000  C
  H27      1.0000 0.98730  0.76040  0.24410  Biso   1.000  H
  C56      1.0000 0.12320  0.81230  0.22670  Biso   1.000  C
  C57      1.0000 0.22620  0.80840  0.26320  Biso   1.000  C
  H28      1.0000 0.27070  0.84870  0.23730  Biso   1.000  H
  C58      1.0000 0.26410  0.74610  0.33720  Biso   1.000  C
  C59      1.0000 0.19670  0.68880  0.37680  Biso   1.000  C
  H29      1.0000 0.22150  0.64620  0.42760  Biso   1.000  H
  C60      1.0000 0.37410  0.74130  0.37650  Biso   1.000  C
  C61      1.0000 0.44290  0.75560  0.31320  Biso   1.000  C
  H30      1.0000 0.42080  0.76930  0.24410  Biso   1.000  H
  C62      1.0000 0.54490  0.75000  0.35010  Biso   1.000  C
  H31      1.0000 0.59150  0.75940  0.30480  Biso   1.000  H
  C63      1.0000 0.51410  0.71960  0.50560  Biso   1.000  C
  H32      1.0000 0.53810  0.70720  0.57480  Biso   1.000  H
  C64      1.0000 0.41150  0.72290  0.47530  Biso   1.000  C
  H33      1.0000 0.36710  0.71260  0.52250  Biso   1.000  H
  C65      1.0000 0.08180  0.87950  0.14690  Biso   1.000  C
  O29      1.0000 0.72020  0.57720  0.34250  Biso   1.000  O
  O30      1.0000 0.68660  0.50580  0.47710  Biso   1.000  O
  O31      1.0000 0.30520  0.49600  0.48390  Biso   1.000  O
  O32      1.0000 0.20870  0.45500  0.34190  Biso   1.000  O
  C66      1.0000 0.66230  0.53200  0.38740  Biso   1.000  C
  C67      1.0000 0.55780  0.51510  0.33320  Biso   1.000  C
  C68      1.0000 0.47780  0.50370  0.38590  Biso   1.000  C
  C69      1.0000 0.38170  0.48820  0.33380  Biso   1.000  C
  C70      1.0000 0.36550  0.48410  0.22890  Biso   1.000  C
  H34      1.0000 0.29810  0.47330  0.19230  Biso   1.000  H
  C71      1.0000 0.44550  0.49550  0.17620  Biso   1.000  C
  C72      1.0000 0.54170  0.51100  0.22840  Biso   1.000  C
  H35      1.0000 0.59750  0.51890  0.19210  Biso   1.000  H
  C73      1.0000 0.42690  0.48800  0.06340  Biso   1.000  C
  C74      1.0000 0.34100  0.44660  0.01290  Biso   1.000  C
  H36      1.0000 0.28910  0.42500  0.04850  Biso   1.000  H
  N6       1.0000 0.39210  0.47790  0.84990  Biso   1.000  N
  C75      1.0000 0.32540  0.44250  0.90530  Biso   1.000  C
  H37      1.0000 0.26210  0.41860  0.87170  Biso   1.000  H
  C76      1.0000 0.47430  0.51750  0.90020  Biso   1.000  C
  H38      1.0000 0.52430  0.53840  0.86160  Biso   1.000  H
  C77      1.0000 0.49370  0.52360  0.00450  Biso   1.000  C
  H39      1.0000 0.55700  0.54850  0.03670  Biso   1.000  H
  C78      1.0000 0.29310  0.47590  0.39080  Biso   1.000  C
  O33      1.0000 0.74390  0.60150  0.33610  Biso   1.000  O
  O34      1.0000 0.56990  0.44450  0.34310  Biso   1.000  O
  O35      1.0000 0.81580  0.93180  0.15320  Biso   1.000  O
  O36      1.0000 0.62210  0.00000  0.17300  Biso   1.000  O
  Sm4      1.0000 0.13798  0.06167  0.00818  Biso   1.000  Sm
  O37      1.0000 0.95270  0.06140  0.07590  Biso   1.000  O
  O38      1.0000 0.06710  0.16460  0.11840  Biso   1.000  O
  O39      1.0000 0.00910  0.36890  0.39270  Biso   1.000  O
  O40      1.0000 0.86000  0.43940  0.37540  Biso   1.000  O
  N7       1.0000 0.41980  0.23210  0.05360  Biso   1.000  N
  C79      1.0000 0.97920  0.13600  0.11540  Biso   1.000  C
  C80      1.0000 0.90640  0.19420  0.15790  Biso   1.000  C
  C81      1.0000 0.94250  0.25630  0.23260  Biso   1.000  C
  H40      1.0000 0.01270  0.26040  0.25590  Biso   1.000  H
  C82      1.0000 0.87680  0.31230  0.27330  Biso   1.000  C
  C83      1.0000 0.77380  0.30840  0.23680  Biso   1.000  C
  H41      1.0000 0.72930  0.34870  0.26270  Biso   1.000  H
  C84      1.0000 0.73590  0.24610  0.16280  Biso   1.000  C
  C85      1.0000 0.80330  0.18880  0.12320  Biso   1.000  C
  H42      1.0000 0.77850  0.14620  0.07240  Biso   1.000  H
  C86      1.0000 0.62590  0.24130  0.12350  Biso   1.000  C
  C87      1.0000 0.55710  0.25560  0.18680  Biso   1.000  C
  H43      1.0000 0.57920  0.26930  0.25590  Biso   1.000  H
  C88      1.0000 0.45510  0.25000  0.14990  Biso   1.000  C
  H44      1.0000 0.40850  0.25940  0.19520  Biso   1.000  H
  C89      1.0000 0.48590  0.21960  0.99440  Biso   1.000  C
  H45      1.0000 0.46190  0.20720  0.92520  Biso   1.000  H
  C90      1.0000 0.58850  0.22290  0.02470  Biso   1.000  C
  H46      1.0000 0.63290  0.21260  0.97750  Biso   1.000  H
  C91      1.0000 0.91820  0.37950  0.35310  Biso   1.000  C
  O41      1.0000 0.27980  0.07720  0.15750  Biso   1.000  O
  O42      1.0000 0.31340  0.00580  0.02290  Biso   1.000  O
  O43      1.0000 0.69480  0.99600  0.01610  Biso   1.000  O
  O44      1.0000 0.79130  0.95500  0.15810  Biso   1.000  O
  C92      1.0000 0.33770  0.03200  0.11260  Biso   1.000  C
  C93      1.0000 0.44220  0.01510  0.16680  Biso   1.000  C
  C94      1.0000 0.52220  0.00370  0.11410  Biso   1.000  C
  C95      1.0000 0.61830  0.98820  0.16620  Biso   1.000  C
  C96      1.0000 0.63450  0.98410  0.27110  Biso   1.000  C
  H47      1.0000 0.70190  0.97330  0.30770  Biso   1.000  H
  C97      1.0000 0.55450  0.99550  0.32380  Biso   1.000  C
  C98      1.0000 0.45830  0.01100  0.27160  Biso   1.000  C
  H48      1.0000 0.40250  0.01890  0.30790  Biso   1.000  H
  C99      1.0000 0.57310  0.98800  0.43660  Biso   1.000  C
  C100     1.0000 0.65900  0.94660  0.48710  Biso   1.000  C
  H49      1.0000 0.71090  0.92500  0.45150  Biso   1.000  H
  N8       1.0000 0.60790  0.97790  0.65010  Biso   1.000  N
  C101     1.0000 0.67460  0.94250  0.59470  Biso   1.000  C
  H50      1.0000 0.73790  0.91860  0.62830  Biso   1.000  H
  C102     1.0000 0.52570  0.01750  0.59980  Biso   1.000  C
  H51      1.0000 0.47570  0.03840  0.63840  Biso   1.000  H
  C103     1.0000 0.50630  0.02360  0.49550  Biso   1.000  C
  H52      1.0000 0.44300  0.04850  0.46330  Biso   1.000  H
  C104     1.0000 0.70690  0.97590  0.10920  Biso   1.000  C
  O45      1.0000 0.25610  0.10150  0.16390  Biso   1.000  O
  O46      1.0000 0.43010  0.94450  0.15690  Biso   1.000  O
  O47      1.0000 0.18420  0.43180  0.34680  Biso   1.000  O
  O48      1.0000 0.37790  0.50000  0.32700  Biso   1.000  O
