data_image0
_cell_length_a       9.7549
_cell_length_b       13.1891
_cell_length_c       10.508
_cell_angle_alpha    90
_cell_angle_beta     109.603
_cell_angle_gamma    90

_symmetry_space_group_name_H-M    "P 1"
_symmetry_int_tables_number       1

loop_
  _symmetry_equiv_pos_as_xyz
  'x, y, z'

loop_
  _atom_site_label
  _atom_site_occupancy
  _atom_site_fract_x
  _atom_site_fract_y
  _atom_site_fract_z
  _atom_site_thermal_displace_type
  _atom_site_B_iso_or_equiv
  _atom_site_type_symbol
  C1       1.0000 0.45660  0.64380  0.65300  Biso   1.000  C
  C2       1.0000 0.31110  0.66650  0.59840  Biso   1.000  C
  H1       1.0000 0.27870  0.70800  0.52010  Biso   1.000  H
  C3       1.0000 0.21100  0.63100  0.65350  Biso   1.000  C
  C4       1.0000 0.26450  0.57130  0.77460  Biso   1.000  C
  H2       1.0000 0.19770  0.54610  0.81520  Biso   1.000  H
  C5       1.0000 0.40840  0.55000  0.83230  Biso   1.000  C
  C6       1.0000 0.50700  0.58940  0.77510  Biso   1.000  C
  H3       1.0000 0.60850  0.57950  0.81870  Biso   1.000  H
  C7       1.0000 0.56430  0.68370  0.59350  Biso   1.000  C
  C8       1.0000 0.04910  0.65090  0.59880  Biso   1.000  C
  C9       1.0000 0.40190  0.38770  0.95120  Biso   1.000  C
  C10      1.0000 0.45320  0.48670  0.95560  Biso   1.000  C
  C11      1.0000 0.53800  0.52830  0.07710  Biso   1.000  C
  H4       1.0000 0.57350  0.59560  0.07970  Biso   1.000  H
  C12      1.0000 0.57170  0.47190  0.19600  Biso   1.000  C
  C13      1.0000 0.51940  0.37380  0.19150  Biso   1.000  C
  H5       1.0000 0.54070  0.33490  0.27200  Biso   1.000  H
  C14      1.0000 0.43370  0.33200  0.06560  Biso   1.000  C
  H6       1.0000 0.39840  0.26450  0.06160  Biso   1.000  H
  C15      1.0000 0.31090  0.33750  0.82040  Biso   1.000  C
  C16      1.0000 0.66030  0.51820  0.33010  Biso   1.000  C
  C17      1.0000 0.76450  0.95160  0.63230  Biso   1.000  C
  H7       1.0000 0.66320  0.94260  0.61530  Biso   1.000  H
  C18      1.0000 0.99120  0.05310  0.73100  Biso   1.000  C
  H8       1.0000 0.01900  0.11580  0.78340  Biso   1.000  H
  H9       1.0000 0.00840  0.06060  0.64480  Biso   1.000  H
  H10      1.0000 0.04960  0.99670  0.78190  Biso   1.000  H
  C19      1.0000 0.75330  0.10560  0.76120  Biso   1.000  C
  H11      1.0000 0.81930  0.15930  0.81050  Biso   1.000  H
  H12      1.0000 0.71330  0.07000  0.82280  Biso   1.000  H
  H13      1.0000 0.67370  0.13570  0.68710  Biso   1.000  H
  Cd1      1.0000 0.75852  0.74447  0.45889  Biso   1.000  Cd
  Cd2      1.0000 0.79293  0.49418  0.65014  Biso   1.000  Cd
  N1       1.0000 0.83500  0.03240  0.70510  Biso   1.000  N
  O1       1.0000 0.52360  0.74140  0.49500  Biso   1.000  O
  O2       1.0000 0.69540  0.65250  0.63830  Biso   1.000  O
  O3       1.0000 0.00320  0.72500  0.51650  Biso   1.000  O
  O4       1.0000 0.97090  0.59480  0.63760  Biso   1.000  O
  O5       1.0000 0.36150  0.33990  0.72360  Biso   1.000  O
  O6       1.0000 0.19460  0.29910  0.81450  Biso   1.000  O
  O7       1.0000 0.69880  0.60830  0.32570  Biso   1.000  O
  O8       1.0000 0.68390  0.46410  0.43260  Biso   1.000  O
  O9       1.0000 0.83270  0.88960  0.58810  Biso   1.000  O
  C20      1.0000 0.89700  0.94600  0.63400  Biso   1.000  C
  H14      1.0000 0.98160  0.93820  0.60880  Biso   1.000  H
  C21      1.0000 0.74700  0.03700  0.74500  Biso   1.000  C
  H15      1.0000 0.75770  0.09390  0.80760  Biso   1.000  H
  H16      1.0000 0.72300  0.97540  0.78470  Biso   1.000  H
  H17      1.0000 0.66870  0.05220  0.65990  Biso   1.000  H
  C22      1.0000 0.02000  0.06800  0.81600  Biso   1.000  C
  H18      1.0000 0.99180  0.11490  0.87540  Biso   1.000  H
  H19      1.0000 0.07390  0.10520  0.76720  Biso   1.000  H
  H20      1.0000 0.08200  0.01450  0.87060  Biso   1.000  H
  N2       1.0000 0.88700  0.02190  0.71700  Biso   1.000  N
  O10      1.0000 0.79000  0.88630  0.59000  Biso   1.000  O
  C23      1.0000 0.54340  0.14380  0.34700  Biso   1.000  C
  C24      1.0000 0.68890  0.16650  0.40160  Biso   1.000  C
  H21      1.0000 0.72130  0.20800  0.47990  Biso   1.000  H
  C25      1.0000 0.78900  0.13100  0.34650  Biso   1.000  C
  C26      1.0000 0.73550  0.07130  0.22540  Biso   1.000  C
  H22      1.0000 0.80230  0.04610  0.18480  Biso   1.000  H
  C27      1.0000 0.59160  0.05000  0.16770  Biso   1.000  C
  C28      1.0000 0.49300  0.08940  0.22490  Biso   1.000  C
  H23      1.0000 0.39150  0.07950  0.18130  Biso   1.000  H
  C29      1.0000 0.43570  0.18370  0.40650  Biso   1.000  C
  C30      1.0000 0.95090  0.15090  0.40120  Biso   1.000  C
  C31      1.0000 0.59810  0.88770  0.04880  Biso   1.000  C
  C32      1.0000 0.54680  0.98670  0.04440  Biso   1.000  C
  C33      1.0000 0.46200  0.02830  0.92290  Biso   1.000  C
  H24      1.0000 0.42650  0.09560  0.92030  Biso   1.000  H
  C34      1.0000 0.42830  0.97190  0.80400  Biso   1.000  C
  C35      1.0000 0.48060  0.87380  0.80850  Biso   1.000  C
  H25      1.0000 0.45930  0.83490  0.72800  Biso   1.000  H
  C36      1.0000 0.56630  0.83200  0.93440  Biso   1.000  C
  H26      1.0000 0.60160  0.76450  0.93840  Biso   1.000  H
  C37      1.0000 0.68910  0.83750  0.17960  Biso   1.000  C
  C38      1.0000 0.33970  0.01820  0.66990  Biso   1.000  C
  C39      1.0000 0.23550  0.45160  0.36770  Biso   1.000  C
  H27      1.0000 0.33680  0.44260  0.38470  Biso   1.000  H
  C40      1.0000 0.00880  0.55310  0.26900  Biso   1.000  C
  H28      1.0000 0.98100  0.61580  0.21660  Biso   1.000  H
  H29      1.0000 0.99160  0.56060  0.35520  Biso   1.000  H
  H30      1.0000 0.95040  0.49670  0.21810  Biso   1.000  H
  C41      1.0000 0.24670  0.60560  0.23880  Biso   1.000  C
  H31      1.0000 0.18070  0.65930  0.18950  Biso   1.000  H
  H32      1.0000 0.28670  0.57000  0.17720  Biso   1.000  H
  H33      1.0000 0.32630  0.63570  0.31290  Biso   1.000  H
  Cd3      1.0000 0.24148  0.24447  0.54111  Biso   1.000  Cd
  Cd4      1.0000 0.20707  0.99418  0.34986  Biso   1.000  Cd
  N3       1.0000 0.16500  0.53240  0.29490  Biso   1.000  N
  O11      1.0000 0.47640  0.24140  0.50500  Biso   1.000  O
  O12      1.0000 0.30460  0.15250  0.36170  Biso   1.000  O
  O13      1.0000 0.99680  0.22500  0.48350  Biso   1.000  O
  O14      1.0000 0.02910  0.09480  0.36240  Biso   1.000  O
  O15      1.0000 0.63850  0.83990  0.27640  Biso   1.000  O
  O16      1.0000 0.80540  0.79910  0.18550  Biso   1.000  O
  O17      1.0000 0.30120  0.10830  0.67430  Biso   1.000  O
  O18      1.0000 0.31610  0.96410  0.56740  Biso   1.000  O
  O19      1.0000 0.16730  0.38960  0.41190  Biso   1.000  O
  C42      1.0000 0.10300  0.44600  0.36600  Biso   1.000  C
  H34      1.0000 0.01840  0.43820  0.39120  Biso   1.000  H
  C43      1.0000 0.25300  0.53700  0.25500  Biso   1.000  C
  H35      1.0000 0.24230  0.59390  0.19240  Biso   1.000  H
  H36      1.0000 0.27700  0.47540  0.21530  Biso   1.000  H
  H37      1.0000 0.33130  0.55220  0.34010  Biso   1.000  H
  C44      1.0000 0.98000  0.56800  0.18400  Biso   1.000  C
  H38      1.0000 0.00820  0.61490  0.12460  Biso   1.000  H
  H39      1.0000 0.92610  0.60520  0.23280  Biso   1.000  H
  H40      1.0000 0.91800  0.51450  0.12940  Biso   1.000  H
  N4       1.0000 0.11300  0.52190  0.28300  Biso   1.000  N
  O20      1.0000 0.21000  0.38630  0.41000  Biso   1.000  O
