data_image0
_cell_length_a       18.577
_cell_length_b       18.577
_cell_length_c       6.841
_cell_angle_alpha    90
_cell_angle_beta     90
_cell_angle_gamma    120

_symmetry_space_group_name_H-M    "P 1"
_symmetry_int_tables_number       1

loop_
  _symmetry_equiv_pos_as_xyz
  'x, y, z'

loop_
  _atom_site_label
  _atom_site_occupancy
  _atom_site_fract_x
  _atom_site_fract_y
  _atom_site_fract_z
  _atom_site_thermal_displace_type
  _atom_site_B_iso_or_equiv
  _atom_site_type_symbol
  O1       1.0000 0.37110  0.48040  0.51970  Biso   1.000  O
  O2       1.0000 0.58910  0.55840  0.74900  Biso   1.000  O
  C1       1.0000 0.35980  0.44990  0.35250  Biso   1.000  C
  H1       1.0000 0.47020  0.57780  0.95400  Biso   1.000  H
  C2       1.0000 0.27570  0.42210  0.25990  Biso   1.000  C
  H2       1.0000 0.34490  0.57160  0.79510  Biso   1.000  H
  C3       1.0000 0.25410  0.37820  0.08800  Biso   1.000  C
  H3       1.0000 0.32770  0.58880  0.12300  Biso   1.000  H
  H4       1.0000 0.29240  0.36500  0.02400  Biso   1.000  H
  O3       1.0000 0.08290  0.28580  0.74960  Biso   1.000  O
  C4       1.0000 0.05090  0.23970  0.58200  Biso   1.000  C
  H5       1.0000 0.99740  0.23270  0.55250  Biso   1.000  H
  H6       1.0000 0.08690  0.26790  0.47220  Biso   1.000  H
  H7       1.0000 0.04590  0.18640  0.59340  Biso   1.000  H
  O4       1.0000 0.51960  0.89070  0.51970  Biso   1.000  O
  O5       1.0000 0.44160  0.03070  0.74900  Biso   1.000  O
  C5       1.0000 0.55010  0.90990  0.35250  Biso   1.000  C
  H8       1.0000 0.42220  0.89240  0.95400  Biso   1.000  H
  C6       1.0000 0.57790  0.85360  0.25990  Biso   1.000  C
  H9       1.0000 0.42840  0.77330  0.79510  Biso   1.000  H
  C7       1.0000 0.62180  0.87590  0.08800  Biso   1.000  C
  H10      1.0000 0.41120  0.73890  0.12300  Biso   1.000  H
  H11      1.0000 0.63500  0.92740  0.02400  Biso   1.000  H
  O6       1.0000 0.71420  0.79710  0.74960  Biso   1.000  O
  C8       1.0000 0.76030  0.81120  0.58200  Biso   1.000  C
  H12      1.0000 0.76730  0.76470  0.55250  Biso   1.000  H
  H13      1.0000 0.73210  0.81900  0.47220  Biso   1.000  H
  H14      1.0000 0.81360  0.85950  0.59340  Biso   1.000  H
  O7       1.0000 0.10930  0.62890  0.51970  Biso   1.000  O
  O8       1.0000 0.96930  0.41090  0.74900  Biso   1.000  O
  C9       1.0000 0.09010  0.64020  0.35250  Biso   1.000  C
  H15      1.0000 0.10760  0.52980  0.95400  Biso   1.000  H
  C10      1.0000 0.14640  0.72430  0.25990  Biso   1.000  C
  H16      1.0000 0.22670  0.65510  0.79510  Biso   1.000  H
  C11      1.0000 0.12410  0.74590  0.08800  Biso   1.000  C
  H17      1.0000 0.26110  0.67230  0.12300  Biso   1.000  H
  H18      1.0000 0.07260  0.70760  0.02400  Biso   1.000  H
  O9       1.0000 0.20290  0.91710  0.74960  Biso   1.000  O
  C12      1.0000 0.18880  0.94910  0.58200  Biso   1.000  C
  H19      1.0000 0.23530  0.00260  0.55250  Biso   1.000  H
  H20      1.0000 0.18100  0.91310  0.47220  Biso   1.000  H
  H21      1.0000 0.14050  0.95410  0.59340  Biso   1.000  H
  O10      1.0000 0.48040  0.37110  0.48030  Biso   1.000  O
  O11      1.0000 0.55840  0.58910  0.25100  Biso   1.000  O
  C13      1.0000 0.44990  0.35980  0.64750  Biso   1.000  C
  H22      1.0000 0.57780  0.47020  0.04600  Biso   1.000  H
  C14      1.0000 0.42210  0.27570  0.74010  Biso   1.000  C
  H23      1.0000 0.57160  0.34490  0.20490  Biso   1.000  H
  C15      1.0000 0.37820  0.25410  0.91200  Biso   1.000  C
  H24      1.0000 0.58880  0.32770  0.87700  Biso   1.000  H
  H25      1.0000 0.36500  0.29240  0.97600  Biso   1.000  H
  O12      1.0000 0.28580  0.08290  0.25040  Biso   1.000  O
  C16      1.0000 0.23970  0.05090  0.41800  Biso   1.000  C
  H26      1.0000 0.23270  0.99740  0.44750  Biso   1.000  H
  H27      1.0000 0.26790  0.08690  0.52780  Biso   1.000  H
  H28      1.0000 0.18640  0.04590  0.40660  Biso   1.000  H
  O13      1.0000 0.89070  0.51960  0.48030  Biso   1.000  O
  O14      1.0000 0.03070  0.44160  0.25100  Biso   1.000  O
  C17      1.0000 0.90990  0.55010  0.64750  Biso   1.000  C
  H29      1.0000 0.89240  0.42220  0.04600  Biso   1.000  H
  C18      1.0000 0.85360  0.57790  0.74010  Biso   1.000  C
  H30      1.0000 0.77330  0.42840  0.20490  Biso   1.000  H
  C19      1.0000 0.87590  0.62180  0.91200  Biso   1.000  C
  H31      1.0000 0.73890  0.41120  0.87700  Biso   1.000  H
  H32      1.0000 0.92740  0.63500  0.97600  Biso   1.000  H
  O15      1.0000 0.79710  0.71420  0.25040  Biso   1.000  O
  C20      1.0000 0.81120  0.76030  0.41800  Biso   1.000  C
  H33      1.0000 0.76470  0.76730  0.44750  Biso   1.000  H
  H34      1.0000 0.81900  0.73210  0.52780  Biso   1.000  H
  H35      1.0000 0.85950  0.81360  0.40660  Biso   1.000  H
  O16      1.0000 0.62890  0.10930  0.48030  Biso   1.000  O
  O17      1.0000 0.41090  0.96930  0.25100  Biso   1.000  O
  C21      1.0000 0.64020  0.09010  0.64750  Biso   1.000  C
  H36      1.0000 0.52980  0.10760  0.04600  Biso   1.000  H
  C22      1.0000 0.72430  0.14640  0.74010  Biso   1.000  C
  H37      1.0000 0.65510  0.22670  0.20490  Biso   1.000  H
  C23      1.0000 0.74590  0.12410  0.91200  Biso   1.000  C
  H38      1.0000 0.67230  0.26110  0.87700  Biso   1.000  H
  H39      1.0000 0.70760  0.07260  0.97600  Biso   1.000  H
  O18      1.0000 0.91710  0.20290  0.25040  Biso   1.000  O
  C24      1.0000 0.94910  0.18880  0.41800  Biso   1.000  C
  H40      1.0000 0.00260  0.23530  0.44750  Biso   1.000  H
  H41      1.0000 0.91310  0.18100  0.52780  Biso   1.000  H
  H42      1.0000 0.95410  0.14050  0.40660  Biso   1.000  H
  O19      1.0000 0.62890  0.51960  0.48030  Biso   1.000  O
  O20      1.0000 0.41090  0.44160  0.25100  Biso   1.000  O
  C25      1.0000 0.64020  0.55010  0.64750  Biso   1.000  C
  H43      1.0000 0.52980  0.42220  0.04600  Biso   1.000  H
  C26      1.0000 0.72430  0.57790  0.74010  Biso   1.000  C
  H44      1.0000 0.65510  0.42840  0.20490  Biso   1.000  H
  C27      1.0000 0.74590  0.62180  0.91200  Biso   1.000  C
  H45      1.0000 0.67230  0.41120  0.87700  Biso   1.000  H
  H46      1.0000 0.70760  0.63500  0.97600  Biso   1.000  H
  O21      1.0000 0.91710  0.71420  0.25040  Biso   1.000  O
  C28      1.0000 0.94910  0.76030  0.41800  Biso   1.000  C
  H47      1.0000 0.00260  0.76730  0.44750  Biso   1.000  H
  H48      1.0000 0.91310  0.73210  0.52780  Biso   1.000  H
  H49      1.0000 0.95410  0.81360  0.40660  Biso   1.000  H
  O22      1.0000 0.48040  0.10930  0.48030  Biso   1.000  O
  O23      1.0000 0.55840  0.96930  0.25100  Biso   1.000  O
  C29      1.0000 0.44990  0.09010  0.64750  Biso   1.000  C
  H50      1.0000 0.57780  0.10760  0.04600  Biso   1.000  H
  C30      1.0000 0.42210  0.14640  0.74010  Biso   1.000  C
  H51      1.0000 0.57160  0.22670  0.20490  Biso   1.000  H
  C31      1.0000 0.37820  0.12410  0.91200  Biso   1.000  C
  H52      1.0000 0.58880  0.26110  0.87700  Biso   1.000  H
  H53      1.0000 0.36500  0.07260  0.97600  Biso   1.000  H
  O24      1.0000 0.28580  0.20290  0.25040  Biso   1.000  O
  C32      1.0000 0.23970  0.18880  0.41800  Biso   1.000  C
  H54      1.0000 0.23270  0.23530  0.44750  Biso   1.000  H
  H55      1.0000 0.26790  0.18100  0.52780  Biso   1.000  H
  H56      1.0000 0.18640  0.14050  0.40660  Biso   1.000  H
  O25      1.0000 0.89070  0.37110  0.48030  Biso   1.000  O
  O26      1.0000 0.03070  0.58910  0.25100  Biso   1.000  O
  C33      1.0000 0.90990  0.35980  0.64750  Biso   1.000  C
  H57      1.0000 0.89240  0.47020  0.04600  Biso   1.000  H
  C34      1.0000 0.85360  0.27570  0.74010  Biso   1.000  C
  H58      1.0000 0.77330  0.34490  0.20490  Biso   1.000  H
  C35      1.0000 0.87590  0.25410  0.91200  Biso   1.000  C
  H59      1.0000 0.73890  0.32770  0.87700  Biso   1.000  H
  H60      1.0000 0.92740  0.29240  0.97600  Biso   1.000  H
  O27      1.0000 0.79710  0.08290  0.25040  Biso   1.000  O
  C36      1.0000 0.81120  0.05090  0.41800  Biso   1.000  C
  H61      1.0000 0.76470  0.99740  0.44750  Biso   1.000  H
  H62      1.0000 0.81900  0.08690  0.52780  Biso   1.000  H
  H63      1.0000 0.85950  0.04590  0.40660  Biso   1.000  H
  O28      1.0000 0.51960  0.62890  0.51970  Biso   1.000  O
  O29      1.0000 0.44160  0.41090  0.74900  Biso   1.000  O
  C37      1.0000 0.55010  0.64020  0.35250  Biso   1.000  C
  H64      1.0000 0.42220  0.52980  0.95400  Biso   1.000  H
  C38      1.0000 0.57790  0.72430  0.25990  Biso   1.000  C
  H65      1.0000 0.42840  0.65510  0.79510  Biso   1.000  H
  C39      1.0000 0.62180  0.74590  0.08800  Biso   1.000  C
  H66      1.0000 0.41120  0.67230  0.12300  Biso   1.000  H
  H67      1.0000 0.63500  0.70760  0.02400  Biso   1.000  H
  O30      1.0000 0.71420  0.91710  0.74960  Biso   1.000  O
  C40      1.0000 0.76030  0.94910  0.58200  Biso   1.000  C
  H68      1.0000 0.76730  0.00260  0.55250  Biso   1.000  H
  H69      1.0000 0.73210  0.91310  0.47220  Biso   1.000  H
  H70      1.0000 0.81360  0.95410  0.59340  Biso   1.000  H
  O31      1.0000 0.10930  0.48040  0.51970  Biso   1.000  O
  O32      1.0000 0.96930  0.55840  0.74900  Biso   1.000  O
  C41      1.0000 0.09010  0.44990  0.35250  Biso   1.000  C
  H71      1.0000 0.10760  0.57780  0.95400  Biso   1.000  H
  C42      1.0000 0.14640  0.42210  0.25990  Biso   1.000  C
  H72      1.0000 0.22670  0.57160  0.79510  Biso   1.000  H
  C43      1.0000 0.12410  0.37820  0.08800  Biso   1.000  C
  H73      1.0000 0.26110  0.58880  0.12300  Biso   1.000  H
  H74      1.0000 0.07260  0.36500  0.02400  Biso   1.000  H
  O33      1.0000 0.20290  0.28580  0.74960  Biso   1.000  O
  C44      1.0000 0.18880  0.23970  0.58200  Biso   1.000  C
  H75      1.0000 0.23530  0.23270  0.55250  Biso   1.000  H
  H76      1.0000 0.18100  0.26790  0.47220  Biso   1.000  H
  H77      1.0000 0.14050  0.18640  0.59340  Biso   1.000  H
  O34      1.0000 0.37110  0.89070  0.51970  Biso   1.000  O
  O35      1.0000 0.58910  0.03070  0.74900  Biso   1.000  O
  C45      1.0000 0.35980  0.90990  0.35250  Biso   1.000  C
  H78      1.0000 0.47020  0.89240  0.95400  Biso   1.000  H
  C46      1.0000 0.27570  0.85360  0.25990  Biso   1.000  C
  H79      1.0000 0.34490  0.77330  0.79510  Biso   1.000  H
  C47      1.0000 0.25410  0.87590  0.08800  Biso   1.000  C
  H80      1.0000 0.32770  0.73890  0.12300  Biso   1.000  H
  H81      1.0000 0.29240  0.92740  0.02400  Biso   1.000  H
  O36      1.0000 0.08290  0.79710  0.74960  Biso   1.000  O
  C48      1.0000 0.05090  0.81120  0.58200  Biso   1.000  C
  H82      1.0000 0.99740  0.76470  0.55250  Biso   1.000  H
  H83      1.0000 0.08690  0.81900  0.47220  Biso   1.000  H
  H84      1.0000 0.04590  0.85950  0.59340  Biso   1.000  H
  Cu1      1.0000 0.47665  0.52335  0.65643  Biso   1.000  Cu
  N1       1.0000 0.43470  0.56530  0.90700  Biso   1.000  N
  O37      1.0000 0.44010  0.55990  0.91350  Biso   1.000  O
  C49      1.0000 0.39340  0.60660  0.87600  Biso   1.000  C
  C50      1.0000 0.36550  0.63450  0.05000  Biso   1.000  C
  Cu2      1.0000 0.47665  0.95330  0.65643  Biso   1.000  Cu
  N2       1.0000 0.43470  0.86940  0.90700  Biso   1.000  N
  O38      1.0000 0.44010  0.88020  0.91350  Biso   1.000  O
  C51      1.0000 0.39340  0.78680  0.87600  Biso   1.000  C
  C52      1.0000 0.36550  0.73100  0.05000  Biso   1.000  C
  Cu3      1.0000 0.04670  0.52335  0.65643  Biso   1.000  Cu
  N3       1.0000 0.13060  0.56530  0.90700  Biso   1.000  N
  O39      1.0000 0.11980  0.55990  0.91350  Biso   1.000  O
  C53      1.0000 0.21320  0.60660  0.87600  Biso   1.000  C
  C54      1.0000 0.26900  0.63450  0.05000  Biso   1.000  C
  Cu4      1.0000 0.52335  0.47665  0.34357  Biso   1.000  Cu
  N4       1.0000 0.56530  0.43470  0.09300  Biso   1.000  N
  O40      1.0000 0.55990  0.44010  0.08650  Biso   1.000  O
  C55      1.0000 0.60660  0.39340  0.12400  Biso   1.000  C
  C56      1.0000 0.63450  0.36550  0.95000  Biso   1.000  C
  Cu5      1.0000 0.95330  0.47665  0.34357  Biso   1.000  Cu
  N5       1.0000 0.86940  0.43470  0.09300  Biso   1.000  N
  O41      1.0000 0.88020  0.44010  0.08650  Biso   1.000  O
  C57      1.0000 0.78680  0.39340  0.12400  Biso   1.000  C
  C58      1.0000 0.73100  0.36550  0.95000  Biso   1.000  C
  Cu6      1.0000 0.52335  0.04670  0.34357  Biso   1.000  Cu
  N6       1.0000 0.56530  0.13060  0.09300  Biso   1.000  N
  O42      1.0000 0.55990  0.11980  0.08650  Biso   1.000  O
  C59      1.0000 0.60660  0.21320  0.12400  Biso   1.000  C
  C60      1.0000 0.63450  0.26900  0.95000  Biso   1.000  C
  C61      1.0000 0.22205  0.44410  0.34990  Biso   1.000  C
  C62      1.0000 0.17705  0.35410  0.00570  Biso   1.000  C
  H85      1.0000 0.23685  0.47370  0.47240  Biso   1.000  H
  C63      1.0000 0.15230  0.30460  0.81940  Biso   1.000  C
  C64      1.0000 0.55590  0.77795  0.34990  Biso   1.000  C
  C65      1.0000 0.64590  0.82295  0.00570  Biso   1.000  C
  H86      1.0000 0.52630  0.76315  0.47240  Biso   1.000  H
  C66      1.0000 0.69540  0.84770  0.81940  Biso   1.000  C
  C67      1.0000 0.22205  0.77795  0.34990  Biso   1.000  C
  C68      1.0000 0.17705  0.82295  0.00570  Biso   1.000  C
  H87      1.0000 0.23685  0.76315  0.47240  Biso   1.000  H
  C69      1.0000 0.15230  0.84770  0.81940  Biso   1.000  C
  C70      1.0000 0.44410  0.22205  0.65010  Biso   1.000  C
  C71      1.0000 0.35410  0.17705  0.99430  Biso   1.000  C
  H88      1.0000 0.47370  0.23685  0.52760  Biso   1.000  H
  C72      1.0000 0.30460  0.15230  0.18060  Biso   1.000  C
  C73      1.0000 0.77795  0.55590  0.65010  Biso   1.000  C
  C74      1.0000 0.82295  0.64590  0.99430  Biso   1.000  C
  H89      1.0000 0.76315  0.52630  0.52760  Biso   1.000  H
  C75      1.0000 0.84770  0.69540  0.18060  Biso   1.000  C
  C76      1.0000 0.77795  0.22205  0.65010  Biso   1.000  C
  C77      1.0000 0.82295  0.17705  0.99430  Biso   1.000  C
  H90      1.0000 0.76315  0.23685  0.52760  Biso   1.000  H
  C78      1.0000 0.84770  0.15230  0.18060  Biso   1.000  C
