data_image0
_cell_length_a       14.297
_cell_length_b       17.164
_cell_length_c       27.333
_cell_angle_alpha    89.97
_cell_angle_beta     77.104
_cell_angle_gamma    74.591

_symmetry_space_group_name_H-M    "P 1"
_symmetry_int_tables_number       1

loop_
  _symmetry_equiv_pos_as_xyz
  'x, y, z'

loop_
  _atom_site_label
  _atom_site_occupancy
  _atom_site_fract_x
  _atom_site_fract_y
  _atom_site_fract_z
  _atom_site_thermal_displace_type
  _atom_site_B_iso_or_equiv
  _atom_site_type_symbol
  Zn1      1.0000 0.42920  0.37255  0.99867  Biso   1.000  Zn
  Zn2      1.0000 0.50160  0.69155  0.24291  Biso   1.000  Zn
  Zn3      1.0000 0.93350  0.55890  0.64221  Biso   1.000  Zn
  Zn4      1.0000 0.98580  0.84303  0.89533  Biso   1.000  Zn
  Zn5      1.0000 0.17990  0.04578  0.27999  Biso   1.000  Zn
  Zn6      1.0000 0.30110  0.20920  0.56360  Biso   1.000  Zn
  I1       1.0000 0.35722  0.42895  0.92498  Biso   1.000  I
  I2       1.0000 0.60456  0.36198  0.00611  Biso   1.000  I
  I3       1.0000 0.41368  0.78062  0.32314  Biso   1.000  I
  I4       1.0000 0.47517  0.55379  0.22785  Biso   1.000  I
  I5       1.0000 0.04040  0.47100  0.57490  Biso   1.000  I
  I6       1.0000 0.02730  0.43240  0.57370  Biso   1.000  I
  I7       1.0000 0.96044  0.55173  0.73117  Biso   1.000  I
  I8       1.0000 0.88882  0.97777  0.87185  Biso   1.000  I
  I9       1.0000 0.90106  0.74537  0.94358  Biso   1.000  I
  I10      1.0000 0.08400  0.17664  0.25151  Biso   1.000  I
  I11      1.0000 0.36126  0.02559  0.27871  Biso   1.000  I
  I12      1.0000 0.18650  0.11910  0.64070  Biso   1.000  I
  I13      1.0000 0.19150  0.14930  0.61120  Biso   1.000  I
  I14      1.0000 0.29870  0.28720  0.47090  Biso   1.000  I
  I15      1.0000 0.25050  0.25340  0.49630  Biso   1.000  I
  N1       1.0000 0.30510  0.00360  0.00130  Biso   1.000  N
  N2       1.0000 0.39820  0.98080  0.06370  Biso   1.000  N
  N3       1.0000 0.31670  0.88680  0.04100  Biso   1.000  N
  C1       1.0000 0.28020  0.93550  0.00950  Biso   1.000  C
  C2       1.0000 0.36160  0.02490  0.03040  Biso   1.000  C
  C3       1.0000 0.37400  0.90940  0.06900  Biso   1.000  C
  N4       1.0000 0.08420  0.86970  0.93420  Biso   1.000  N
  C4       1.0000 0.09700  0.94100  0.93560  Biso   1.000  C
  H1       1.0000 0.05750  0.98110  0.92050  Biso   1.000  H
  C5       1.0000 0.16600  0.96400  0.95760  Biso   1.000  C
  H2       1.0000 0.17730  0.01430  0.95180  Biso   1.000  H
  C6       1.0000 0.21300  0.91740  0.98500  Biso   1.000  C
  C7       1.0000 0.19800  0.83660  0.98290  Biso   1.000  C
  H3       1.0000 0.23310  0.79580  0.99940  Biso   1.000  H
  C8       1.0000 0.13400  0.81960  0.95750  Biso   1.000  C
  H4       1.0000 0.12700  0.76730  0.95760  Biso   1.000  H
  N5       1.0000 0.40910  0.25580  0.00760  Biso   1.000  N
  C9       1.0000 0.43900  0.21260  0.04310  Biso   1.000  C
  H5       1.0000 0.46980  0.23550  0.06390  Biso   1.000  H
  C10      1.0000 0.43000  0.13250  0.05280  Biso   1.000  C
  H6       1.0000 0.45160  0.10320  0.07860  Biso   1.000  H
  C11      1.0000 0.38390  0.10300  0.02000  Biso   1.000  C
  C12      1.0000 0.35300  0.14940  0.98360  Biso   1.000  C
  H7       1.0000 0.32060  0.12920  0.96280  Biso   1.000  H
  C13      1.0000 0.36720  0.22360  0.97610  Biso   1.000  C
  H8       1.0000 0.34820  0.25220  0.94940  Biso   1.000  H
  N6       1.0000 0.47050  0.76060  0.18200  Biso   1.000  N
  C14      1.0000 0.43120  0.73730  0.14730  Biso   1.000  C
  H9       1.0000 0.42160  0.68580  0.14830  Biso   1.000  H
  C15      1.0000 0.40400  0.78490  0.11010  Biso   1.000  C
  H10      1.0000 0.37990  0.76370  0.08560  Biso   1.000  H
  C16      1.0000 0.41070  0.86190  0.10780  Biso   1.000  C
  C17      1.0000 0.45600  0.88530  0.14270  Biso   1.000  C
  H11      1.0000 0.47020  0.93530  0.14130  Biso   1.000  H
  C18      1.0000 0.48010  0.83600  0.17850  Biso   1.000  C
  H12      1.0000 0.50540  0.85560  0.20290  Biso   1.000  H
  N7       1.0000 0.45970  0.52080  0.65010  Biso   1.000  N
  N8       1.0000 0.29480  0.55630  0.70170  Biso   1.000  N
  N9       1.0000 0.41060  0.63500  0.71110  Biso   1.000  N
  C19      1.0000 0.47650  0.57820  0.67120  Biso   1.000  C
  C20      1.0000 0.32000  0.62130  0.72250  Biso   1.000  C
  C21      1.0000 0.37200  0.51180  0.66790  Biso   1.000  C
  N10      1.0000 0.77970  0.57770  0.65030  Biso   1.000  N
  C22      1.0000 0.74400  0.54600  0.61450  Biso   1.000  C
  H13      1.0000 0.78890  0.52090  0.58510  Biso   1.000  H
  C23      1.0000 0.64500  0.54900  0.61980  Biso   1.000  C
  H14      1.0000 0.62390  0.52420  0.59560  Biso   1.000  H
  C24      1.0000 0.57710  0.59080  0.66410  Biso   1.000  C
  C25      1.0000 0.61310  0.62280  0.69840  Biso   1.000  C
  H15      1.0000 0.57030  0.64960  0.72790  Biso   1.000  H
  C26      1.0000 0.71190  0.61540  0.68970  Biso   1.000  C
  H16      1.0000 0.73390  0.63940  0.71380  Biso   1.000  H
  N11      1.0000 0.32600  0.30340  0.60090  Biso   1.000  N
  C27      1.0000 0.40600  0.31900  0.59170  Biso   1.000  C
  H17      1.0000 0.45870  0.28150  0.57070  Biso   1.000  H
  C28      1.0000 0.42700  0.38770  0.60910  Biso   1.000  C
  H18      1.0000 0.48760  0.39870  0.59730  Biso   1.000  H
  C29      1.0000 0.35210  0.43740  0.64440  Biso   1.000  C
  C30      1.0000 0.26400  0.42310  0.65590  Biso   1.000  C
  H19      1.0000 0.21110  0.45930  0.67810  Biso   1.000  H
  C31      1.0000 0.24710  0.35350  0.63500  Biso   1.000  C
  H20      1.0000 0.18560  0.34230  0.64390  Biso   1.000  H
  N12      1.0000 0.09440  0.77440  0.83590  Biso   1.000  N
  C32      1.0000 0.08460  0.70950  0.81440  Biso   1.000  C
  H21      1.0000 0.02210  0.69990  0.82270  Biso   1.000  H
  C33      1.0000 0.15570  0.65670  0.78220  Biso   1.000  C
  H22      1.0000 0.14650  0.60700  0.77420  Biso   1.000  H
  C34      1.0000 0.23800  0.67380  0.76160  Biso   1.000  C
  C35      1.0000 0.25050  0.74540  0.77880  Biso   1.000  C
  H23      1.0000 0.30740  0.76120  0.76440  Biso   1.000  H
  C36      1.0000 0.17900  0.79340  0.81720  Biso   1.000  C
  H24      1.0000 0.18980  0.83950  0.83000  Biso   1.000  H
  N13      1.0000 0.14850  0.67640  0.18540  Biso   1.000  N
  N14      1.0000 0.97930  0.73530  0.22440  Biso   1.000  N
  N15      1.0000 0.02390  0.60670  0.17840  Biso   1.000  N
  C37      1.0000 0.11800  0.60890  0.17050  Biso   1.000  C
  C38      1.0000 0.07600  0.73280  0.21250  Biso   1.000  C
  C39      1.0000 0.95570  0.67120  0.20530  Biso   1.000  C
  N16      1.0000 0.33170  0.43560  0.06270  Biso   1.000  N
  C40      1.0000 0.23900  0.43140  0.07860  Biso   1.000  C
  H25      1.0000 0.22000  0.38900  0.06600  Biso   1.000  H
  C41      1.0000 0.17100  0.48670  0.11220  Biso   1.000  C
  H26      1.0000 0.10490  0.48440  0.12100  Biso   1.000  H
  C42      1.0000 0.19820  0.54480  0.13310  Biso   1.000  C
  C43      1.0000 0.29550  0.54470  0.12290  Biso   1.000  C
  H27      1.0000 0.31560  0.58180  0.14000  Biso   1.000  H
  C44      1.0000 0.36480  0.48950  0.08700  Biso   1.000  C
  H28      1.0000 0.43180  0.48870  0.07950  Biso   1.000  H
  N17      1.0000 0.15050  0.94080  0.25260  Biso   1.000  N
  C45      1.0000 0.05400  0.94900  0.25000  Biso   1.000  C
  H29      1.0000 0.00710  0.99920  0.25450  Biso   1.000  H
  C46      1.0000 0.03300  0.88040  0.24100  Biso   1.000  C
  H30      1.0000 0.96690  0.88210  0.24270  Biso   1.000  H
  C47      1.0000 0.10510  0.80550  0.22910  Biso   1.000  C
  C48      1.0000 0.19910  0.80210  0.22740  Biso   1.000  C
  H31      1.0000 0.25160  0.75570  0.21700  Biso   1.000  H
  C49      1.0000 0.21100  0.87500  0.24280  Biso   1.000  C
  H32      1.0000 0.27520  0.87340  0.24600  Biso   1.000  H
  N18      1.0000 0.64920  0.67820  0.23570  Biso   1.000  N
  C50      1.0000 0.68490  0.73840  0.25370  Biso   1.000  C
  H33      1.0000 0.63910  0.78270  0.27290  Biso   1.000  H
  C51      1.0000 0.78000  0.73540  0.24470  Biso   1.000  C
  H34      1.0000 0.79830  0.77820  0.25710  Biso   1.000  H
  C52      1.0000 0.85250  0.67280  0.21810  Biso   1.000  C
  C53      1.0000 0.82200  0.60730  0.19800  Biso   1.000  C
  H35      1.0000 0.86820  0.56090  0.18100  Biso   1.000  H
  C54      1.0000 0.72270  0.61920  0.20600  Biso   1.000  C
  H36      1.0000 0.70190  0.58250  0.18900  Biso   1.000  H
  N19      1.0000 0.77250  0.93150  0.55290  Biso   1.000  N
  N20      1.0000 0.92930  0.89910  0.49990  Biso   1.000  N
  N21      1.0000 0.80630  0.01100  0.48460  Biso   1.000  N
  C55      1.0000 0.74420  0.99250  0.52440  Biso   1.000  C
  C56      1.0000 0.86070  0.88730  0.53890  Biso   1.000  C
  C57      1.0000 0.90200  0.96640  0.47470  Biso   1.000  C
  N22      1.0000 0.44900  0.13590  0.54440  Biso   1.000  N
  C58      1.0000 0.50800  0.12400  0.50260  Biso   1.000  C
  H37      1.0000 0.48590  0.14470  0.47460  Biso   1.000  H
  C59      1.0000 0.60400  0.07970  0.49720  Biso   1.000  C
  H38      1.0000 0.64720  0.07870  0.46600  Biso   1.000  H
  C60      1.0000 0.64200  0.03830  0.53200  Biso   1.000  C
  C61      1.0000 0.57600  0.03900  0.57620  Biso   1.000  C
  H39      1.0000 0.59740  0.00730  0.60120  Biso   1.000  H
  C62      1.0000 0.47700  0.08700  0.58570  Biso   1.000  C
  H40      1.0000 0.43130  0.08810  0.61610  Biso   1.000  H
  N23      1.0000 0.92660  0.66680  0.61310  Biso   1.000  N
  C63      1.0000 0.99500  0.68000  0.57400  Biso   1.000  C
  H41      1.0000 0.05910  0.64510  0.56660  Biso   1.000  H
  C64      1.0000 0.97200  0.74800  0.54510  Biso   1.000  C
  H42      1.0000 0.00880  0.74720  0.51250  Biso   1.000  H
  C65      1.0000 0.89290  0.81440  0.56500  Biso   1.000  C
  C66      1.0000 0.84000  0.80300  0.61280  Biso   1.000  C
  H43      1.0000 0.79100  0.84640  0.63070  Biso   1.000  H
  C67      1.0000 0.85800  0.73400  0.63290  Biso   1.000  C
  H44      1.0000 0.81800  0.73160  0.66450  Biso   1.000  H
  N24      1.0000 0.09620  0.03140  0.35240  Biso   1.000  N
  C68      1.0000 0.00500  0.07090  0.36700  Biso   1.000  C
  H45      1.0000 0.98080  0.11190  0.34720  Biso   1.000  H
  C69      1.0000 0.94300  0.05940  0.40680  Biso   1.000  C
  H46      1.0000 0.88210  0.09780  0.41880  Biso   1.000  H
  C70      1.0000 0.96900  0.98710  0.43180  Biso   1.000  C
  C71      1.0000 0.07200  0.94230  0.41850  Biso   1.000  C
  H47      1.0000 0.09960  0.89930  0.43620  Biso   1.000  H
  C72      1.0000 0.12500  0.96870  0.37760  Biso   1.000  C
  H48      1.0000 0.19110  0.93800  0.36610  Biso   1.000  H
  Zn7      1.0000 0.57080  0.62745  0.00133  Biso   1.000  Zn
  Zn8      1.0000 0.49840  0.30845  0.75709  Biso   1.000  Zn
  Zn9      1.0000 0.06650  0.44110  0.35779  Biso   1.000  Zn
  Zn10     1.0000 0.01420  0.15697  0.10467  Biso   1.000  Zn
  Zn11     1.0000 0.82010  0.95422  0.72001  Biso   1.000  Zn
  Zn12     1.0000 0.69890  0.79080  0.43640  Biso   1.000  Zn
  I16      1.0000 0.64278  0.57105  0.07502  Biso   1.000  I
  I17      1.0000 0.39544  0.63802  0.99389  Biso   1.000  I
  I18      1.0000 0.58632  0.21938  0.67686  Biso   1.000  I
  I19      1.0000 0.52483  0.44621  0.77215  Biso   1.000  I
  I20      1.0000 0.95960  0.52900  0.42510  Biso   1.000  I
  I21      1.0000 0.97270  0.56760  0.42630  Biso   1.000  I
  I22      1.0000 0.03956  0.44827  0.26883  Biso   1.000  I
  I23      1.0000 0.11118  0.02223  0.12815  Biso   1.000  I
  I24      1.0000 0.09894  0.25463  0.05642  Biso   1.000  I
  I25      1.0000 0.91600  0.82336  0.74849  Biso   1.000  I
  I26      1.0000 0.63874  0.97441  0.72129  Biso   1.000  I
  I27      1.0000 0.81350  0.88090  0.35930  Biso   1.000  I
  I28      1.0000 0.80850  0.85070  0.38880  Biso   1.000  I
  I29      1.0000 0.70130  0.71280  0.52910  Biso   1.000  I
  I30      1.0000 0.74950  0.74660  0.50370  Biso   1.000  I
  N25      1.0000 0.69490  0.99640  0.99870  Biso   1.000  N
  N26      1.0000 0.60180  0.01920  0.93630  Biso   1.000  N
  N27      1.0000 0.68330  0.11320  0.95900  Biso   1.000  N
  C73      1.0000 0.71980  0.06450  0.99050  Biso   1.000  C
  C74      1.0000 0.63840  0.97510  0.96960  Biso   1.000  C
  C75      1.0000 0.62600  0.09060  0.93100  Biso   1.000  C
  N28      1.0000 0.91580  0.13030  0.06580  Biso   1.000  N
  C76      1.0000 0.90300  0.05900  0.06440  Biso   1.000  C
  H49      1.0000 0.94250  0.01890  0.07950  Biso   1.000  H
  C77      1.0000 0.83400  0.03600  0.04240  Biso   1.000  C
  H50      1.0000 0.82270  0.98570  0.04820  Biso   1.000  H
  C78      1.0000 0.78700  0.08260  0.01500  Biso   1.000  C
  C79      1.0000 0.80200  0.16340  0.01710  Biso   1.000  C
  H51      1.0000 0.76690  0.20420  0.00060  Biso   1.000  H
  C80      1.0000 0.86600  0.18040  0.04250  Biso   1.000  C
  H52      1.0000 0.87300  0.23270  0.04240  Biso   1.000  H
  N29      1.0000 0.59090  0.74420  0.99240  Biso   1.000  N
  C81      1.0000 0.56100  0.78740  0.95690  Biso   1.000  C
  H53      1.0000 0.53020  0.76450  0.93610  Biso   1.000  H
  C82      1.0000 0.57000  0.86750  0.94720  Biso   1.000  C
  H54      1.0000 0.54840  0.89680  0.92140  Biso   1.000  H
  C83      1.0000 0.61610  0.89700  0.98000  Biso   1.000  C
  C84      1.0000 0.64700  0.85060  0.01640  Biso   1.000  C
  H55      1.0000 0.67940  0.87080  0.03720  Biso   1.000  H
  C85      1.0000 0.63280  0.77640  0.02390  Biso   1.000  C
  H56      1.0000 0.65180  0.74780  0.05060  Biso   1.000  H
  N30      1.0000 0.52950  0.23940  0.81800  Biso   1.000  N
  C86      1.0000 0.56880  0.26270  0.85270  Biso   1.000  C
  H57      1.0000 0.57840  0.31420  0.85170  Biso   1.000  H
  C87      1.0000 0.59600  0.21510  0.88990  Biso   1.000  C
  H58      1.0000 0.62010  0.23630  0.91440  Biso   1.000  H
  C88      1.0000 0.58930  0.13810  0.89220  Biso   1.000  C
  C89      1.0000 0.54400  0.11470  0.85730  Biso   1.000  C
  H59      1.0000 0.52980  0.06470  0.85870  Biso   1.000  H
  C90      1.0000 0.51990  0.16400  0.82150  Biso   1.000  C
  H60      1.0000 0.49460  0.14440  0.79710  Biso   1.000  H
  N31      1.0000 0.54030  0.47920  0.34990  Biso   1.000  N
  N32      1.0000 0.70520  0.44370  0.29830  Biso   1.000  N
  N33      1.0000 0.58940  0.36500  0.28890  Biso   1.000  N
  C91      1.0000 0.52350  0.42180  0.32880  Biso   1.000  C
  C92      1.0000 0.68000  0.37870  0.27750  Biso   1.000  C
  C93      1.0000 0.62800  0.48820  0.33210  Biso   1.000  C
  N34      1.0000 0.22030  0.42230  0.34970  Biso   1.000  N
  C94      1.0000 0.25600  0.45400  0.38550  Biso   1.000  C
  H61      1.0000 0.21110  0.47910  0.41490  Biso   1.000  H
  C95      1.0000 0.35500  0.45100  0.38020  Biso   1.000  C
  H62      1.0000 0.37610  0.47580  0.40440  Biso   1.000  H
  C96      1.0000 0.42290  0.40920  0.33590  Biso   1.000  C
  C97      1.0000 0.38690  0.37720  0.30160  Biso   1.000  C
  H63      1.0000 0.42970  0.35040  0.27210  Biso   1.000  H
  C98      1.0000 0.28810  0.38460  0.31030  Biso   1.000  C
  H64      1.0000 0.26610  0.36060  0.28620  Biso   1.000  H
  N35      1.0000 0.67400  0.69660  0.39910  Biso   1.000  N
  C99      1.0000 0.59400  0.68100  0.40830  Biso   1.000  C
  H65      1.0000 0.54130  0.71850  0.42930  Biso   1.000  H
  C100     1.0000 0.57300  0.61230  0.39090  Biso   1.000  C
  H66      1.0000 0.51240  0.60130  0.40270  Biso   1.000  H
  C101     1.0000 0.64790  0.56260  0.35560  Biso   1.000  C
  C102     1.0000 0.73600  0.57690  0.34410  Biso   1.000  C
  H67      1.0000 0.78890  0.54070  0.32190  Biso   1.000  H
  C103     1.0000 0.75290  0.64650  0.36500  Biso   1.000  C
  H68      1.0000 0.81440  0.65770  0.35610  Biso   1.000  H
  N36      1.0000 0.90560  0.22560  0.16410  Biso   1.000  N
  C104     1.0000 0.91540  0.29050  0.18560  Biso   1.000  C
  H69      1.0000 0.97790  0.30010  0.17730  Biso   1.000  H
  C105     1.0000 0.84430  0.34330  0.21780  Biso   1.000  C
  H70      1.0000 0.85350  0.39300  0.22580  Biso   1.000  H
  C106     1.0000 0.76200  0.32620  0.23840  Biso   1.000  C
  C107     1.0000 0.74950  0.25460  0.22120  Biso   1.000  C
  H71      1.0000 0.69260  0.23880  0.23560  Biso   1.000  H
  C108     1.0000 0.82100  0.20660  0.18280  Biso   1.000  C
  H72      1.0000 0.81020  0.16050  0.17000  Biso   1.000  H
  N37      1.0000 0.85150  0.32360  0.81460  Biso   1.000  N
  N38      1.0000 0.02070  0.26470  0.77560  Biso   1.000  N
  N39      1.0000 0.97610  0.39330  0.82160  Biso   1.000  N
  C109     1.0000 0.88200  0.39110  0.82950  Biso   1.000  C
  C110     1.0000 0.92400  0.26720  0.78750  Biso   1.000  C
  C111     1.0000 0.04430  0.32880  0.79470  Biso   1.000  C
  N40      1.0000 0.66830  0.56440  0.93730  Biso   1.000  N
  C112     1.0000 0.76100  0.56860  0.92140  Biso   1.000  C
  H73      1.0000 0.78000  0.61100  0.93400  Biso   1.000  H
  C113     1.0000 0.82900  0.51330  0.88780  Biso   1.000  C
  H74      1.0000 0.89510  0.51560  0.87900  Biso   1.000  H
  C114     1.0000 0.80180  0.45520  0.86690  Biso   1.000  C
  C115     1.0000 0.70450  0.45530  0.87710  Biso   1.000  C
  H75      1.0000 0.68440  0.41820  0.86000  Biso   1.000  H
  C116     1.0000 0.63520  0.51050  0.91300  Biso   1.000  C
  H76      1.0000 0.56820  0.51130  0.92050  Biso   1.000  H
  N41      1.0000 0.84950  0.05920  0.74740  Biso   1.000  N
  C117     1.0000 0.94600  0.05100  0.75000  Biso   1.000  C
  H77      1.0000 0.99290  0.00080  0.74550  Biso   1.000  H
  C118     1.0000 0.96700  0.11960  0.75900  Biso   1.000  C
  H78      1.0000 0.03310  0.11790  0.75730  Biso   1.000  H
  C119     1.0000 0.89490  0.19450  0.77090  Biso   1.000  C
  C120     1.0000 0.80090  0.19790  0.77260  Biso   1.000  C
  H79      1.0000 0.74840  0.24430  0.78300  Biso   1.000  H
  C121     1.0000 0.78900  0.12500  0.75720  Biso   1.000  C
  H80      1.0000 0.72480  0.12660  0.75400  Biso   1.000  H
  N42      1.0000 0.35080  0.32180  0.76430  Biso   1.000  N
  C122     1.0000 0.31510  0.26160  0.74630  Biso   1.000  C
  H81      1.0000 0.36090  0.21730  0.72710  Biso   1.000  H
  C123     1.0000 0.22000  0.26460  0.75530  Biso   1.000  C
  H82      1.0000 0.20170  0.22180  0.74290  Biso   1.000  H
  C124     1.0000 0.14750  0.32720  0.78190  Biso   1.000  C
  C125     1.0000 0.17800  0.39270  0.80200  Biso   1.000  C
  H83      1.0000 0.13180  0.43910  0.81900  Biso   1.000  H
  C126     1.0000 0.27730  0.38080  0.79400  Biso   1.000  C
  H84      1.0000 0.29810  0.41750  0.81100  Biso   1.000  H
  N43      1.0000 0.22750  0.06850  0.44710  Biso   1.000  N
  N44      1.0000 0.07070  0.10090  0.50010  Biso   1.000  N
  N45      1.0000 0.19370  0.98900  0.51540  Biso   1.000  N
  C127     1.0000 0.25580  0.00750  0.47560  Biso   1.000  C
  C128     1.0000 0.13930  0.11270  0.46110  Biso   1.000  C
  C129     1.0000 0.09800  0.03360  0.52530  Biso   1.000  C
  N46      1.0000 0.55100  0.86410  0.45560  Biso   1.000  N
  C130     1.0000 0.49200  0.87600  0.49740  Biso   1.000  C
  H85      1.0000 0.51410  0.85530  0.52540  Biso   1.000  H
  C131     1.0000 0.39600  0.92030  0.50280  Biso   1.000  C
  H86      1.0000 0.35280  0.92130  0.53400  Biso   1.000  H
  C132     1.0000 0.35800  0.96170  0.46800  Biso   1.000  C
  C133     1.0000 0.42400  0.96100  0.42380  Biso   1.000  C
  H87      1.0000 0.40260  0.99270  0.39880  Biso   1.000  H
  C134     1.0000 0.52300  0.91300  0.41430  Biso   1.000  C
  H88      1.0000 0.56870  0.91190  0.38390  Biso   1.000  H
  N47      1.0000 0.07340  0.33320  0.38690  Biso   1.000  N
  C135     1.0000 0.00500  0.32000  0.42600  Biso   1.000  C
  H89      1.0000 0.94090  0.35490  0.43340  Biso   1.000  H
  C136     1.0000 0.02800  0.25200  0.45490  Biso   1.000  C
  H90      1.0000 0.99120  0.25280  0.48750  Biso   1.000  H
  C137     1.0000 0.10710  0.18560  0.43500  Biso   1.000  C
  C138     1.0000 0.16000  0.19700  0.38720  Biso   1.000  C
  H91      1.0000 0.20900  0.15360  0.36930  Biso   1.000  H
  C139     1.0000 0.14200  0.26600  0.36710  Biso   1.000  C
  H92      1.0000 0.18200  0.26840  0.33550  Biso   1.000  H
  N48      1.0000 0.90380  0.96860  0.64760  Biso   1.000  N
  C140     1.0000 0.99500  0.92910  0.63300  Biso   1.000  C
  H93      1.0000 0.01920  0.88810  0.65280  Biso   1.000  H
  C141     1.0000 0.05700  0.94060  0.59320  Biso   1.000  C
  H94      1.0000 0.11790  0.90220  0.58120  Biso   1.000  H
  C142     1.0000 0.03100  0.01290  0.56820  Biso   1.000  C
  C143     1.0000 0.92800  0.05770  0.58150  Biso   1.000  C
  H95      1.0000 0.90040  0.10070  0.56380  Biso   1.000  H
  C144     1.0000 0.87500  0.03130  0.62240  Biso   1.000  C
  H96      1.0000 0.80890  0.06200  0.63390  Biso   1.000  H
