data_image0
_cell_length_a       12.024
_cell_length_b       15.032
_cell_length_c       12.948
_cell_angle_alpha    90
_cell_angle_beta     90
_cell_angle_gamma    90

_symmetry_space_group_name_H-M    "P 1"
_symmetry_int_tables_number       1

loop_
  _symmetry_equiv_pos_as_xyz
  'x, y, z'

loop_
  _atom_site_label
  _atom_site_occupancy
  _atom_site_fract_x
  _atom_site_fract_y
  _atom_site_fract_z
  _atom_site_thermal_displace_type
  _atom_site_B_iso_or_equiv
  _atom_site_type_symbol
  O1       1.0000 0.33770  0.42030  0.72071  Biso   1.000  O
  O2       1.0000 0.43160  0.48210  0.84840  Biso   1.000  O
  O3       1.0000 0.10310  0.15251  0.80760  Biso   1.000  O
  O4       1.0000 0.13570  0.08251  0.95450  Biso   1.000  O
  C1       1.0000 0.32250  0.35620  0.88760  Biso   1.000  C
  C2       1.0000 0.25480  0.28720  0.85670  Biso   1.000  C
  H1       1.0000 0.23260  0.28270  0.78650  Biso   1.000  H
  C3       1.0000 0.21870  0.22420  0.92820  Biso   1.000  C
  C4       1.0000 0.22690  0.24410  0.03500  Biso   1.000  C
  H2       1.0000 0.18750  0.20970  0.08450  Biso   1.000  H
  C5       1.0000 0.29350  0.31490  0.06610  Biso   1.000  C
  H3       1.0000 0.31100  0.32250  0.13710  Biso   1.000  H
  C6       1.0000 0.33420  0.37400  0.99390  Biso   1.000  C
  H4       1.0000 0.37010  0.42690  0.01590  Biso   1.000  H
  C7       1.0000 0.27100  0.22260  0.02740  Biso   1.000  C
  H5       1.0000 0.25520  0.17540  0.07380  Biso   1.000  H
  C8       1.0000 0.34280  0.28740  0.05610  Biso   1.000  C
  H6       1.0000 0.37210  0.28790  0.12420  Biso   1.000  H
  C9       1.0000 0.37390  0.35390  0.98570  Biso   1.000  C
  H7       1.0000 0.42870  0.39670  0.00370  Biso   1.000  H
  C10      1.0000 0.36640  0.42360  0.81230  Biso   1.000  C
  C11      1.0000 0.14770  0.14760  0.89520  Biso   1.000  C
  Li1      1.0000 0.40560  0.45960  0.58960  Biso   1.000  Li
  Li2      1.0000 0.30290  0.46380  0.58770  Biso   1.000  Li
  O5       1.0000 0.14500  0.49490  0.56700  Biso   1.000  O
  H8       1.0000 0.11150  0.49330  0.62460  Biso   1.000  H
  H9       1.0000 0.10670  0.51280  0.51610  Biso   1.000  H
  O6       1.0000 0.14000  0.45390  0.59300  Biso   1.000  O
  H10      1.0000 0.10650  0.46490  0.64970  Biso   1.000  H
  H11      1.0000 0.08970  0.42780  0.55850  Biso   1.000  H
  O7       1.0000 0.18600  0.08700  0.94500  Biso   1.000  O
  H12      1.0000 0.21270  0.11400  0.99710  Biso   1.000  H
  O8       1.0000 0.83770  0.92030  0.72071  Biso   1.000  O
  O9       1.0000 0.93160  0.98210  0.84840  Biso   1.000  O
  O10      1.0000 0.60310  0.65251  0.80760  Biso   1.000  O
  O11      1.0000 0.63570  0.58251  0.95450  Biso   1.000  O
  C12      1.0000 0.82250  0.85620  0.88760  Biso   1.000  C
  C13      1.0000 0.75480  0.78720  0.85670  Biso   1.000  C
  H13      1.0000 0.73260  0.78270  0.78650  Biso   1.000  H
  C14      1.0000 0.71870  0.72420  0.92820  Biso   1.000  C
  C15      1.0000 0.72690  0.74410  0.03500  Biso   1.000  C
  H14      1.0000 0.68750  0.70970  0.08450  Biso   1.000  H
  C16      1.0000 0.79350  0.81490  0.06610  Biso   1.000  C
  H15      1.0000 0.81100  0.82250  0.13710  Biso   1.000  H
  C17      1.0000 0.83420  0.87400  0.99390  Biso   1.000  C
  H16      1.0000 0.87010  0.92690  0.01590  Biso   1.000  H
  C18      1.0000 0.77100  0.72260  0.02740  Biso   1.000  C
  H17      1.0000 0.75520  0.67540  0.07380  Biso   1.000  H
  C19      1.0000 0.84280  0.78740  0.05610  Biso   1.000  C
  H18      1.0000 0.87210  0.78790  0.12420  Biso   1.000  H
  C20      1.0000 0.87390  0.85390  0.98570  Biso   1.000  C
  H19      1.0000 0.92870  0.89670  0.00370  Biso   1.000  H
  C21      1.0000 0.86640  0.92360  0.81230  Biso   1.000  C
  C22      1.0000 0.64770  0.64760  0.89520  Biso   1.000  C
  Li3      1.0000 0.90560  0.95960  0.58960  Biso   1.000  Li
  Li4      1.0000 0.80290  0.96380  0.58770  Biso   1.000  Li
  O12      1.0000 0.64500  0.99490  0.56700  Biso   1.000  O
  H20      1.0000 0.61150  0.99330  0.62460  Biso   1.000  H
  H21      1.0000 0.60670  0.01280  0.51610  Biso   1.000  H
  O13      1.0000 0.64000  0.95390  0.59300  Biso   1.000  O
  H22      1.0000 0.60650  0.96490  0.64970  Biso   1.000  H
  H23      1.0000 0.58970  0.92780  0.55850  Biso   1.000  H
  O14      1.0000 0.68600  0.58700  0.94500  Biso   1.000  O
  H24      1.0000 0.71270  0.61400  0.99710  Biso   1.000  H
  O15      1.0000 0.66230  0.57970  0.22071  Biso   1.000  O
  O16      1.0000 0.56840  0.51790  0.34840  Biso   1.000  O
  O17      1.0000 0.89690  0.84749  0.30760  Biso   1.000  O
  O18      1.0000 0.86430  0.91749  0.45450  Biso   1.000  O
  C23      1.0000 0.67750  0.64380  0.38760  Biso   1.000  C
  C24      1.0000 0.74520  0.71280  0.35670  Biso   1.000  C
  H25      1.0000 0.76740  0.71730  0.28650  Biso   1.000  H
  C25      1.0000 0.78130  0.77580  0.42820  Biso   1.000  C
  C26      1.0000 0.77310  0.75590  0.53500  Biso   1.000  C
  H26      1.0000 0.81250  0.79030  0.58450  Biso   1.000  H
  C27      1.0000 0.70650  0.68510  0.56610  Biso   1.000  C
  H27      1.0000 0.68900  0.67750  0.63710  Biso   1.000  H
  C28      1.0000 0.66580  0.62600  0.49390  Biso   1.000  C
  H28      1.0000 0.62990  0.57310  0.51590  Biso   1.000  H
  C29      1.0000 0.72900  0.77740  0.52740  Biso   1.000  C
  H29      1.0000 0.74480  0.82460  0.57380  Biso   1.000  H
  C30      1.0000 0.65720  0.71260  0.55610  Biso   1.000  C
  H30      1.0000 0.62790  0.71210  0.62420  Biso   1.000  H
  C31      1.0000 0.62610  0.64610  0.48570  Biso   1.000  C
  H31      1.0000 0.57130  0.60330  0.50370  Biso   1.000  H
  C32      1.0000 0.63360  0.57640  0.31230  Biso   1.000  C
  C33      1.0000 0.85230  0.85240  0.39520  Biso   1.000  C
  Li5      1.0000 0.59440  0.54040  0.08960  Biso   1.000  Li
  Li6      1.0000 0.69710  0.53620  0.08770  Biso   1.000  Li
  O19      1.0000 0.85500  0.50510  0.06700  Biso   1.000  O
  H32      1.0000 0.88850  0.50670  0.12460  Biso   1.000  H
  H33      1.0000 0.89330  0.48720  0.01610  Biso   1.000  H
  O20      1.0000 0.86000  0.54610  0.09300  Biso   1.000  O
  H34      1.0000 0.89350  0.53510  0.14970  Biso   1.000  H
  H35      1.0000 0.91030  0.57220  0.05850  Biso   1.000  H
  O21      1.0000 0.81400  0.91300  0.44500  Biso   1.000  O
  H36      1.0000 0.78730  0.88600  0.49710  Biso   1.000  H
  O22      1.0000 0.16230  0.07970  0.22071  Biso   1.000  O
  O23      1.0000 0.06840  0.01790  0.34840  Biso   1.000  O
  O24      1.0000 0.39690  0.34749  0.30760  Biso   1.000  O
  O25      1.0000 0.36430  0.41749  0.45450  Biso   1.000  O
  C34      1.0000 0.17750  0.14380  0.38760  Biso   1.000  C
  C35      1.0000 0.24520  0.21280  0.35670  Biso   1.000  C
  H37      1.0000 0.26740  0.21730  0.28650  Biso   1.000  H
  C36      1.0000 0.28130  0.27580  0.42820  Biso   1.000  C
  C37      1.0000 0.27310  0.25590  0.53500  Biso   1.000  C
  H38      1.0000 0.31250  0.29030  0.58450  Biso   1.000  H
  C38      1.0000 0.20650  0.18510  0.56610  Biso   1.000  C
  H39      1.0000 0.18900  0.17750  0.63710  Biso   1.000  H
  C39      1.0000 0.16580  0.12600  0.49390  Biso   1.000  C
  H40      1.0000 0.12990  0.07310  0.51590  Biso   1.000  H
  C40      1.0000 0.22900  0.27740  0.52740  Biso   1.000  C
  H41      1.0000 0.24480  0.32460  0.57380  Biso   1.000  H
  C41      1.0000 0.15720  0.21260  0.55610  Biso   1.000  C
  H42      1.0000 0.12790  0.21210  0.62420  Biso   1.000  H
  C42      1.0000 0.12610  0.14610  0.48570  Biso   1.000  C
  H43      1.0000 0.07130  0.10330  0.50370  Biso   1.000  H
  C43      1.0000 0.13360  0.07640  0.31230  Biso   1.000  C
  C44      1.0000 0.35230  0.35240  0.39520  Biso   1.000  C
  Li7      1.0000 0.09440  0.04040  0.08960  Biso   1.000  Li
  Li8      1.0000 0.19710  0.03620  0.08770  Biso   1.000  Li
  O26      1.0000 0.35500  0.00510  0.06700  Biso   1.000  O
  H44      1.0000 0.38850  0.00670  0.12460  Biso   1.000  H
  H45      1.0000 0.39330  0.98720  0.01610  Biso   1.000  H
  O27      1.0000 0.36000  0.04610  0.09300  Biso   1.000  O
  H46      1.0000 0.39350  0.03510  0.14970  Biso   1.000  H
  H47      1.0000 0.41030  0.07220  0.05850  Biso   1.000  H
  O28      1.0000 0.31400  0.41300  0.44500  Biso   1.000  O
  H48      1.0000 0.28730  0.38600  0.49710  Biso   1.000  H
  O29      1.0000 0.66230  0.42030  0.77929  Biso   1.000  O
  O30      1.0000 0.56840  0.48210  0.65160  Biso   1.000  O
  O31      1.0000 0.89690  0.15251  0.69240  Biso   1.000  O
  O32      1.0000 0.86430  0.08251  0.54550  Biso   1.000  O
  C45      1.0000 0.67750  0.35620  0.61240  Biso   1.000  C
  C46      1.0000 0.74520  0.28720  0.64330  Biso   1.000  C
  H49      1.0000 0.76740  0.28270  0.71350  Biso   1.000  H
  C47      1.0000 0.78130  0.22420  0.57180  Biso   1.000  C
  C48      1.0000 0.77310  0.24410  0.46500  Biso   1.000  C
  H50      1.0000 0.81250  0.20970  0.41550  Biso   1.000  H
  C49      1.0000 0.70650  0.31490  0.43390  Biso   1.000  C
  H51      1.0000 0.68900  0.32250  0.36290  Biso   1.000  H
  C50      1.0000 0.66580  0.37400  0.50610  Biso   1.000  C
  H52      1.0000 0.62990  0.42690  0.48410  Biso   1.000  H
  C51      1.0000 0.72900  0.22260  0.47260  Biso   1.000  C
  H53      1.0000 0.74480  0.17540  0.42620  Biso   1.000  H
  C52      1.0000 0.65720  0.28740  0.44390  Biso   1.000  C
  H54      1.0000 0.62790  0.28790  0.37580  Biso   1.000  H
  C53      1.0000 0.62610  0.35390  0.51430  Biso   1.000  C
  H55      1.0000 0.57130  0.39670  0.49630  Biso   1.000  H
  C54      1.0000 0.63360  0.42360  0.68770  Biso   1.000  C
  C55      1.0000 0.85230  0.14760  0.60480  Biso   1.000  C
  Li9      1.0000 0.59440  0.45960  0.91040  Biso   1.000  Li
  Li10     1.0000 0.69710  0.46380  0.91230  Biso   1.000  Li
  O33      1.0000 0.85500  0.49490  0.93300  Biso   1.000  O
  H56      1.0000 0.88850  0.49330  0.87540  Biso   1.000  H
  H57      1.0000 0.89330  0.51280  0.98390  Biso   1.000  H
  O34      1.0000 0.86000  0.45390  0.90700  Biso   1.000  O
  H58      1.0000 0.89350  0.46490  0.85030  Biso   1.000  H
  H59      1.0000 0.91030  0.42780  0.94150  Biso   1.000  H
  O35      1.0000 0.81400  0.08700  0.55500  Biso   1.000  O
  H60      1.0000 0.78730  0.11400  0.50290  Biso   1.000  H
  O36      1.0000 0.16230  0.92030  0.77929  Biso   1.000  O
  O37      1.0000 0.06840  0.98210  0.65160  Biso   1.000  O
  O38      1.0000 0.39690  0.65251  0.69240  Biso   1.000  O
  O39      1.0000 0.36430  0.58251  0.54550  Biso   1.000  O
  C56      1.0000 0.17750  0.85620  0.61240  Biso   1.000  C
  C57      1.0000 0.24520  0.78720  0.64330  Biso   1.000  C
  H61      1.0000 0.26740  0.78270  0.71350  Biso   1.000  H
  C58      1.0000 0.28130  0.72420  0.57180  Biso   1.000  C
  C59      1.0000 0.27310  0.74410  0.46500  Biso   1.000  C
  H62      1.0000 0.31250  0.70970  0.41550  Biso   1.000  H
  C60      1.0000 0.20650  0.81490  0.43390  Biso   1.000  C
  H63      1.0000 0.18900  0.82250  0.36290  Biso   1.000  H
  C61      1.0000 0.16580  0.87400  0.50610  Biso   1.000  C
  H64      1.0000 0.12990  0.92690  0.48410  Biso   1.000  H
  C62      1.0000 0.22900  0.72260  0.47260  Biso   1.000  C
  H65      1.0000 0.24480  0.67540  0.42620  Biso   1.000  H
  C63      1.0000 0.15720  0.78740  0.44390  Biso   1.000  C
  H66      1.0000 0.12790  0.78790  0.37580  Biso   1.000  H
  C64      1.0000 0.12610  0.85390  0.51430  Biso   1.000  C
  H67      1.0000 0.07130  0.89670  0.49630  Biso   1.000  H
  C65      1.0000 0.13360  0.92360  0.68770  Biso   1.000  C
  C66      1.0000 0.35230  0.64760  0.60480  Biso   1.000  C
  Li11     1.0000 0.09440  0.95960  0.91040  Biso   1.000  Li
  Li12     1.0000 0.19710  0.96380  0.91230  Biso   1.000  Li
  O40      1.0000 0.35500  0.99490  0.93300  Biso   1.000  O
  H68      1.0000 0.38850  0.99330  0.87540  Biso   1.000  H
  H69      1.0000 0.39330  0.01280  0.98390  Biso   1.000  H
  O41      1.0000 0.36000  0.95390  0.90700  Biso   1.000  O
  H70      1.0000 0.39350  0.96490  0.85030  Biso   1.000  H
  H71      1.0000 0.41030  0.92780  0.94150  Biso   1.000  H
  O42      1.0000 0.31400  0.58700  0.55500  Biso   1.000  O
  H72      1.0000 0.28730  0.61400  0.50290  Biso   1.000  H
  O43      1.0000 0.33770  0.57970  0.27929  Biso   1.000  O
  O44      1.0000 0.43160  0.51790  0.15160  Biso   1.000  O
  O45      1.0000 0.10310  0.84749  0.19240  Biso   1.000  O
  O46      1.0000 0.13570  0.91749  0.04550  Biso   1.000  O
  C67      1.0000 0.32250  0.64380  0.11240  Biso   1.000  C
  C68      1.0000 0.25480  0.71280  0.14330  Biso   1.000  C
  H73      1.0000 0.23260  0.71730  0.21350  Biso   1.000  H
  C69      1.0000 0.21870  0.77580  0.07180  Biso   1.000  C
  C70      1.0000 0.22690  0.75590  0.96500  Biso   1.000  C
  H74      1.0000 0.18750  0.79030  0.91550  Biso   1.000  H
  C71      1.0000 0.29350  0.68510  0.93390  Biso   1.000  C
  H75      1.0000 0.31100  0.67750  0.86290  Biso   1.000  H
  C72      1.0000 0.33420  0.62600  0.00610  Biso   1.000  C
  H76      1.0000 0.37010  0.57310  0.98410  Biso   1.000  H
  C73      1.0000 0.27100  0.77740  0.97260  Biso   1.000  C
  H77      1.0000 0.25520  0.82460  0.92620  Biso   1.000  H
  C74      1.0000 0.34280  0.71260  0.94390  Biso   1.000  C
  H78      1.0000 0.37210  0.71210  0.87580  Biso   1.000  H
  C75      1.0000 0.37390  0.64610  0.01430  Biso   1.000  C
  H79      1.0000 0.42870  0.60330  0.99630  Biso   1.000  H
  C76      1.0000 0.36640  0.57640  0.18770  Biso   1.000  C
  C77      1.0000 0.14770  0.85240  0.10480  Biso   1.000  C
  Li13     1.0000 0.40560  0.54040  0.41040  Biso   1.000  Li
  Li14     1.0000 0.30290  0.53620  0.41230  Biso   1.000  Li
  O47      1.0000 0.14500  0.50510  0.43300  Biso   1.000  O
  H80      1.0000 0.11150  0.50670  0.37540  Biso   1.000  H
  H81      1.0000 0.10670  0.48720  0.48390  Biso   1.000  H
  O48      1.0000 0.14000  0.54610  0.40700  Biso   1.000  O
  H82      1.0000 0.10650  0.53510  0.35030  Biso   1.000  H
  H83      1.0000 0.08970  0.57220  0.44150  Biso   1.000  H
  O49      1.0000 0.18600  0.91300  0.05500  Biso   1.000  O
  H84      1.0000 0.21270  0.88600  0.00290  Biso   1.000  H
  O50      1.0000 0.83770  0.07970  0.27929  Biso   1.000  O
  O51      1.0000 0.93160  0.01790  0.15160  Biso   1.000  O
  O52      1.0000 0.60310  0.34749  0.19240  Biso   1.000  O
  O53      1.0000 0.63570  0.41749  0.04550  Biso   1.000  O
  C78      1.0000 0.82250  0.14380  0.11240  Biso   1.000  C
  C79      1.0000 0.75480  0.21280  0.14330  Biso   1.000  C
  H85      1.0000 0.73260  0.21730  0.21350  Biso   1.000  H
  C80      1.0000 0.71870  0.27580  0.07180  Biso   1.000  C
  C81      1.0000 0.72690  0.25590  0.96500  Biso   1.000  C
  H86      1.0000 0.68750  0.29030  0.91550  Biso   1.000  H
  C82      1.0000 0.79350  0.18510  0.93390  Biso   1.000  C
  H87      1.0000 0.81100  0.17750  0.86290  Biso   1.000  H
  C83      1.0000 0.83420  0.12600  0.00610  Biso   1.000  C
  H88      1.0000 0.87010  0.07310  0.98410  Biso   1.000  H
  C84      1.0000 0.77100  0.27740  0.97260  Biso   1.000  C
  H89      1.0000 0.75520  0.32460  0.92620  Biso   1.000  H
  C85      1.0000 0.84280  0.21260  0.94390  Biso   1.000  C
  H90      1.0000 0.87210  0.21210  0.87580  Biso   1.000  H
  C86      1.0000 0.87390  0.14610  0.01430  Biso   1.000  C
  H91      1.0000 0.92870  0.10330  0.99630  Biso   1.000  H
  C87      1.0000 0.86640  0.07640  0.18770  Biso   1.000  C
  C88      1.0000 0.64770  0.35240  0.10480  Biso   1.000  C
  Li15     1.0000 0.90560  0.04040  0.41040  Biso   1.000  Li
  Li16     1.0000 0.80290  0.03620  0.41230  Biso   1.000  Li
  O54      1.0000 0.64500  0.00510  0.43300  Biso   1.000  O
  H92      1.0000 0.61150  0.00670  0.37540  Biso   1.000  H
  H93      1.0000 0.60670  0.98720  0.48390  Biso   1.000  H
  O55      1.0000 0.64000  0.04610  0.40700  Biso   1.000  O
  H94      1.0000 0.60650  0.03510  0.35030  Biso   1.000  H
  H95      1.0000 0.58970  0.07220  0.44150  Biso   1.000  H
  O56      1.0000 0.68600  0.41300  0.05500  Biso   1.000  O
  H96      1.0000 0.71270  0.38600  0.00290  Biso   1.000  H
  Co1      1.0000 0.50000  0.56435  0.75000  Biso   1.000  Co
  Co2      1.0000 0.00000  0.06435  0.75000  Biso   1.000  Co
  Co3      1.0000 0.50000  0.43565  0.25000  Biso   1.000  Co
  Co4      1.0000 0.00000  0.93565  0.25000  Biso   1.000  Co
