data_image0
_cell_length_a       30.748
_cell_length_b       7.12
_cell_length_c       15.932
_cell_angle_alpha    90
_cell_angle_beta     90
_cell_angle_gamma    90

_symmetry_space_group_name_H-M    "P 1"
_symmetry_int_tables_number       1

loop_
  _symmetry_equiv_pos_as_xyz
  'x, y, z'

loop_
  _atom_site_label
  _atom_site_occupancy
  _atom_site_fract_x
  _atom_site_fract_y
  _atom_site_fract_z
  _atom_site_thermal_displace_type
  _atom_site_B_iso_or_equiv
  _atom_site_type_symbol
  O1       1.0000 0.20593  0.34840  0.09560  Biso   1.000  O
  C1       1.0000 0.13890  0.65100  0.20940  Biso   1.000  C
  H1       1.0000 0.13780  0.74770  0.16840  Biso   1.000  H
  C2       1.0000 0.11340  0.66600  0.28110  Biso   1.000  C
  H2       1.0000 0.09530  0.77260  0.28800  Biso   1.000  H
  C3       1.0000 0.11380  0.52300  0.34550  Biso   1.000  C
  C4       1.0000 0.14220  0.36500  0.32970  Biso   1.000  C
  H3       1.0000 0.14400  0.26590  0.36940  Biso   1.000  H
  C5       1.0000 0.16690  0.35800  0.25680  Biso   1.000  C
  H4       1.0000 0.18540  0.25230  0.24800  Biso   1.000  H
  C6       1.0000 0.14250  0.34300  0.22470  Biso   1.000  C
  H5       1.0000 0.14620  0.22510  0.19790  Biso   1.000  H
  C7       1.0000 0.11380  0.35900  0.29170  Biso   1.000  C
  H6       1.0000 0.09370  0.26040  0.30240  Biso   1.000  H
  C8       1.0000 0.13680  0.68300  0.31190  Biso   1.000  C
  H7       1.0000 0.13630  0.79940  0.34120  Biso   1.000  H
  C9       1.0000 0.15960  0.66800  0.23690  Biso   1.000  C
  H8       1.0000 0.17150  0.77830  0.21250  Biso   1.000  H
  O2       1.0000 0.70593  0.84840  0.09560  Biso   1.000  O
  C10      1.0000 0.63890  0.15100  0.20940  Biso   1.000  C
  H9       1.0000 0.63780  0.24770  0.16840  Biso   1.000  H
  C11      1.0000 0.61340  0.16600  0.28110  Biso   1.000  C
  H10      1.0000 0.59530  0.27260  0.28800  Biso   1.000  H
  C12      1.0000 0.61380  0.02300  0.34550  Biso   1.000  C
  C13      1.0000 0.64220  0.86500  0.32970  Biso   1.000  C
  H11      1.0000 0.64400  0.76590  0.36940  Biso   1.000  H
  C14      1.0000 0.66690  0.85800  0.25680  Biso   1.000  C
  H12      1.0000 0.68540  0.75230  0.24800  Biso   1.000  H
  C15      1.0000 0.64250  0.84300  0.22470  Biso   1.000  C
  H13      1.0000 0.64620  0.72510  0.19790  Biso   1.000  H
  C16      1.0000 0.61380  0.85900  0.29170  Biso   1.000  C
  H14      1.0000 0.59370  0.76040  0.30240  Biso   1.000  H
  C17      1.0000 0.63680  0.18300  0.31190  Biso   1.000  C
  H15      1.0000 0.63630  0.29940  0.34120  Biso   1.000  H
  C18      1.0000 0.65960  0.16800  0.23690  Biso   1.000  C
  H16      1.0000 0.67150  0.27830  0.21250  Biso   1.000  H
  O3       1.0000 0.79407  0.65160  0.09560  Biso   1.000  O
  C19      1.0000 0.86110  0.34900  0.20940  Biso   1.000  C
  H17      1.0000 0.86220  0.25230  0.16840  Biso   1.000  H
  C20      1.0000 0.88660  0.33400  0.28110  Biso   1.000  C
  H18      1.0000 0.90470  0.22740  0.28800  Biso   1.000  H
  C21      1.0000 0.88620  0.47700  0.34550  Biso   1.000  C
  C22      1.0000 0.85780  0.63500  0.32970  Biso   1.000  C
  H19      1.0000 0.85600  0.73410  0.36940  Biso   1.000  H
  C23      1.0000 0.83310  0.64200  0.25680  Biso   1.000  C
  H20      1.0000 0.81460  0.74770  0.24800  Biso   1.000  H
  C24      1.0000 0.85750  0.65700  0.22470  Biso   1.000  C
  H21      1.0000 0.85380  0.77490  0.19790  Biso   1.000  H
  C25      1.0000 0.88620  0.64100  0.29170  Biso   1.000  C
  H22      1.0000 0.90630  0.73960  0.30240  Biso   1.000  H
  C26      1.0000 0.86320  0.31700  0.31190  Biso   1.000  C
  H23      1.0000 0.86370  0.20060  0.34120  Biso   1.000  H
  C27      1.0000 0.84040  0.33200  0.23690  Biso   1.000  C
  H24      1.0000 0.82850  0.22170  0.21250  Biso   1.000  H
  O4       1.0000 0.29407  0.15160  0.09560  Biso   1.000  O
  C28      1.0000 0.36110  0.84900  0.20940  Biso   1.000  C
  H25      1.0000 0.36220  0.75230  0.16840  Biso   1.000  H
  C29      1.0000 0.38660  0.83400  0.28110  Biso   1.000  C
  H26      1.0000 0.40470  0.72740  0.28800  Biso   1.000  H
  C30      1.0000 0.38620  0.97700  0.34550  Biso   1.000  C
  C31      1.0000 0.35780  0.13500  0.32970  Biso   1.000  C
  H27      1.0000 0.35600  0.23410  0.36940  Biso   1.000  H
  C32      1.0000 0.33310  0.14200  0.25680  Biso   1.000  C
  H28      1.0000 0.31460  0.24770  0.24800  Biso   1.000  H
  C33      1.0000 0.35750  0.15700  0.22470  Biso   1.000  C
  H29      1.0000 0.35380  0.27490  0.19790  Biso   1.000  H
  C34      1.0000 0.38620  0.14100  0.29170  Biso   1.000  C
  H30      1.0000 0.40630  0.23960  0.30240  Biso   1.000  H
  C35      1.0000 0.36320  0.81700  0.31190  Biso   1.000  C
  H31      1.0000 0.36370  0.70060  0.34120  Biso   1.000  H
  C36      1.0000 0.34040  0.83200  0.23690  Biso   1.000  C
  H32      1.0000 0.32850  0.72170  0.21250  Biso   1.000  H
  O5       1.0000 0.79407  0.34840  0.90440  Biso   1.000  O
  C37      1.0000 0.86110  0.65100  0.79060  Biso   1.000  C
  H33      1.0000 0.86220  0.74770  0.83160  Biso   1.000  H
  C38      1.0000 0.88660  0.66600  0.71890  Biso   1.000  C
  H34      1.0000 0.90470  0.77260  0.71200  Biso   1.000  H
  C39      1.0000 0.88620  0.52300  0.65450  Biso   1.000  C
  C40      1.0000 0.85780  0.36500  0.67030  Biso   1.000  C
  H35      1.0000 0.85600  0.26590  0.63060  Biso   1.000  H
  C41      1.0000 0.83310  0.35800  0.74320  Biso   1.000  C
  H36      1.0000 0.81460  0.25230  0.75200  Biso   1.000  H
  C42      1.0000 0.85750  0.34300  0.77530  Biso   1.000  C
  H37      1.0000 0.85380  0.22510  0.80210  Biso   1.000  H
  C43      1.0000 0.88620  0.35900  0.70830  Biso   1.000  C
  H38      1.0000 0.90630  0.26040  0.69760  Biso   1.000  H
  C44      1.0000 0.86320  0.68300  0.68810  Biso   1.000  C
  H39      1.0000 0.86370  0.79940  0.65880  Biso   1.000  H
  C45      1.0000 0.84040  0.66800  0.76310  Biso   1.000  C
  H40      1.0000 0.82850  0.77830  0.78750  Biso   1.000  H
  O6       1.0000 0.29407  0.84840  0.90440  Biso   1.000  O
  C46      1.0000 0.36110  0.15100  0.79060  Biso   1.000  C
  H41      1.0000 0.36220  0.24770  0.83160  Biso   1.000  H
  C47      1.0000 0.38660  0.16600  0.71890  Biso   1.000  C
  H42      1.0000 0.40470  0.27260  0.71200  Biso   1.000  H
  C48      1.0000 0.38620  0.02300  0.65450  Biso   1.000  C
  C49      1.0000 0.35780  0.86500  0.67030  Biso   1.000  C
  H43      1.0000 0.35600  0.76590  0.63060  Biso   1.000  H
  C50      1.0000 0.33310  0.85800  0.74320  Biso   1.000  C
  H44      1.0000 0.31460  0.75230  0.75200  Biso   1.000  H
  C51      1.0000 0.35750  0.84300  0.77530  Biso   1.000  C
  H45      1.0000 0.35380  0.72510  0.80210  Biso   1.000  H
  C52      1.0000 0.38620  0.85900  0.70830  Biso   1.000  C
  H46      1.0000 0.40630  0.76040  0.69760  Biso   1.000  H
  C53      1.0000 0.36320  0.18300  0.68810  Biso   1.000  C
  H47      1.0000 0.36370  0.29940  0.65880  Biso   1.000  H
  C54      1.0000 0.34040  0.16800  0.76310  Biso   1.000  C
  H48      1.0000 0.32850  0.27830  0.78750  Biso   1.000  H
  O7       1.0000 0.20593  0.65160  0.90440  Biso   1.000  O
  C55      1.0000 0.13890  0.34900  0.79060  Biso   1.000  C
  H49      1.0000 0.13780  0.25230  0.83160  Biso   1.000  H
  C56      1.0000 0.11340  0.33400  0.71890  Biso   1.000  C
  H50      1.0000 0.09530  0.22740  0.71200  Biso   1.000  H
  C57      1.0000 0.11380  0.47700  0.65450  Biso   1.000  C
  C58      1.0000 0.14220  0.63500  0.67030  Biso   1.000  C
  H51      1.0000 0.14400  0.73410  0.63060  Biso   1.000  H
  C59      1.0000 0.16690  0.64200  0.74320  Biso   1.000  C
  H52      1.0000 0.18540  0.74770  0.75200  Biso   1.000  H
  C60      1.0000 0.14250  0.65700  0.77530  Biso   1.000  C
  H53      1.0000 0.14620  0.77490  0.80210  Biso   1.000  H
  C61      1.0000 0.11380  0.64100  0.70830  Biso   1.000  C
  H54      1.0000 0.09370  0.73960  0.69760  Biso   1.000  H
  C62      1.0000 0.13680  0.31700  0.68810  Biso   1.000  C
  H55      1.0000 0.13630  0.20060  0.65880  Biso   1.000  H
  C63      1.0000 0.15960  0.33200  0.76310  Biso   1.000  C
  H56      1.0000 0.17150  0.22170  0.78750  Biso   1.000  H
  O8       1.0000 0.70593  0.15160  0.90440  Biso   1.000  O
  C64      1.0000 0.63890  0.84900  0.79060  Biso   1.000  C
  H57      1.0000 0.63780  0.75230  0.83160  Biso   1.000  H
  C65      1.0000 0.61340  0.83400  0.71890  Biso   1.000  C
  H58      1.0000 0.59530  0.72740  0.71200  Biso   1.000  H
  C66      1.0000 0.61380  0.97700  0.65450  Biso   1.000  C
  C67      1.0000 0.64220  0.13500  0.67030  Biso   1.000  C
  H59      1.0000 0.64400  0.23410  0.63060  Biso   1.000  H
  C68      1.0000 0.66690  0.14200  0.74320  Biso   1.000  C
  H60      1.0000 0.68540  0.24770  0.75200  Biso   1.000  H
  C69      1.0000 0.64250  0.15700  0.77530  Biso   1.000  C
  H61      1.0000 0.64620  0.27490  0.80210  Biso   1.000  H
  C70      1.0000 0.61380  0.14100  0.70830  Biso   1.000  C
  H62      1.0000 0.59370  0.23960  0.69760  Biso   1.000  H
  C71      1.0000 0.63680  0.81700  0.68810  Biso   1.000  C
  H63      1.0000 0.63630  0.70060  0.65880  Biso   1.000  H
  C72      1.0000 0.65960  0.83200  0.76310  Biso   1.000  C
  H64      1.0000 0.67150  0.72170  0.78750  Biso   1.000  H
  O9       1.0000 0.79407  0.65160  0.90440  Biso   1.000  O
  C73      1.0000 0.86110  0.34900  0.79060  Biso   1.000  C
  H65      1.0000 0.86220  0.25230  0.83160  Biso   1.000  H
  C74      1.0000 0.88660  0.33400  0.71890  Biso   1.000  C
  H66      1.0000 0.90470  0.22740  0.71200  Biso   1.000  H
  C75      1.0000 0.88620  0.47700  0.65450  Biso   1.000  C
  C76      1.0000 0.85780  0.63500  0.67030  Biso   1.000  C
  H67      1.0000 0.85600  0.73410  0.63060  Biso   1.000  H
  C77      1.0000 0.83310  0.64200  0.74320  Biso   1.000  C
  H68      1.0000 0.81460  0.74770  0.75200  Biso   1.000  H
  C78      1.0000 0.85750  0.65700  0.77530  Biso   1.000  C
  H69      1.0000 0.85380  0.77490  0.80210  Biso   1.000  H
  C79      1.0000 0.88620  0.64100  0.70830  Biso   1.000  C
  H70      1.0000 0.90630  0.73960  0.69760  Biso   1.000  H
  C80      1.0000 0.86320  0.31700  0.68810  Biso   1.000  C
  H71      1.0000 0.86370  0.20060  0.65880  Biso   1.000  H
  C81      1.0000 0.84040  0.33200  0.76310  Biso   1.000  C
  H72      1.0000 0.82850  0.22170  0.78750  Biso   1.000  H
  O10      1.0000 0.29407  0.15160  0.90440  Biso   1.000  O
  C82      1.0000 0.36110  0.84900  0.79060  Biso   1.000  C
  H73      1.0000 0.36220  0.75230  0.83160  Biso   1.000  H
  C83      1.0000 0.38660  0.83400  0.71890  Biso   1.000  C
  H74      1.0000 0.40470  0.72740  0.71200  Biso   1.000  H
  C84      1.0000 0.38620  0.97700  0.65450  Biso   1.000  C
  C85      1.0000 0.35780  0.13500  0.67030  Biso   1.000  C
  H75      1.0000 0.35600  0.23410  0.63060  Biso   1.000  H
  C86      1.0000 0.33310  0.14200  0.74320  Biso   1.000  C
  H76      1.0000 0.31460  0.24770  0.75200  Biso   1.000  H
  C87      1.0000 0.35750  0.15700  0.77530  Biso   1.000  C
  H77      1.0000 0.35380  0.27490  0.80210  Biso   1.000  H
  C88      1.0000 0.38620  0.14100  0.70830  Biso   1.000  C
  H78      1.0000 0.40630  0.23960  0.69760  Biso   1.000  H
  C89      1.0000 0.36320  0.81700  0.68810  Biso   1.000  C
  H79      1.0000 0.36370  0.70060  0.65880  Biso   1.000  H
  C90      1.0000 0.34040  0.83200  0.76310  Biso   1.000  C
  H80      1.0000 0.32850  0.72170  0.78750  Biso   1.000  H
  O11      1.0000 0.20593  0.34840  0.90440  Biso   1.000  O
  C91      1.0000 0.13890  0.65100  0.79060  Biso   1.000  C
  H81      1.0000 0.13780  0.74770  0.83160  Biso   1.000  H
  C92      1.0000 0.11340  0.66600  0.71890  Biso   1.000  C
  H82      1.0000 0.09530  0.77260  0.71200  Biso   1.000  H
  C93      1.0000 0.11380  0.52300  0.65450  Biso   1.000  C
  C94      1.0000 0.14220  0.36500  0.67030  Biso   1.000  C
  H83      1.0000 0.14400  0.26590  0.63060  Biso   1.000  H
  C95      1.0000 0.16690  0.35800  0.74320  Biso   1.000  C
  H84      1.0000 0.18540  0.25230  0.75200  Biso   1.000  H
  C96      1.0000 0.14250  0.34300  0.77530  Biso   1.000  C
  H85      1.0000 0.14620  0.22510  0.80210  Biso   1.000  H
  C97      1.0000 0.11380  0.35900  0.70830  Biso   1.000  C
  H86      1.0000 0.09370  0.26040  0.69760  Biso   1.000  H
  C98      1.0000 0.13680  0.68300  0.68810  Biso   1.000  C
  H87      1.0000 0.13630  0.79940  0.65880  Biso   1.000  H
  C99      1.0000 0.15960  0.66800  0.76310  Biso   1.000  C
  H88      1.0000 0.17150  0.77830  0.78750  Biso   1.000  H
  O12      1.0000 0.70593  0.84840  0.90440  Biso   1.000  O
  C100     1.0000 0.63890  0.15100  0.79060  Biso   1.000  C
  H89      1.0000 0.63780  0.24770  0.83160  Biso   1.000  H
  C101     1.0000 0.61340  0.16600  0.71890  Biso   1.000  C
  H90      1.0000 0.59530  0.27260  0.71200  Biso   1.000  H
  C102     1.0000 0.61380  0.02300  0.65450  Biso   1.000  C
  C103     1.0000 0.64220  0.86500  0.67030  Biso   1.000  C
  H91      1.0000 0.64400  0.76590  0.63060  Biso   1.000  H
  C104     1.0000 0.66690  0.85800  0.74320  Biso   1.000  C
  H92      1.0000 0.68540  0.75230  0.75200  Biso   1.000  H
  C105     1.0000 0.64250  0.84300  0.77530  Biso   1.000  C
  H93      1.0000 0.64620  0.72510  0.80210  Biso   1.000  H
  C106     1.0000 0.61380  0.85900  0.70830  Biso   1.000  C
  H94      1.0000 0.59370  0.76040  0.69760  Biso   1.000  H
  C107     1.0000 0.63680  0.18300  0.68810  Biso   1.000  C
  H95      1.0000 0.63630  0.29940  0.65880  Biso   1.000  H
  C108     1.0000 0.65960  0.16800  0.76310  Biso   1.000  C
  H96      1.0000 0.67150  0.27830  0.78750  Biso   1.000  H
  O13      1.0000 0.20593  0.65160  0.09560  Biso   1.000  O
  C109     1.0000 0.13890  0.34900  0.20940  Biso   1.000  C
  H97      1.0000 0.13780  0.25230  0.16840  Biso   1.000  H
  C110     1.0000 0.11340  0.33400  0.28110  Biso   1.000  C
  H98      1.0000 0.09530  0.22740  0.28800  Biso   1.000  H
  C111     1.0000 0.11380  0.47700  0.34550  Biso   1.000  C
  C112     1.0000 0.14220  0.63500  0.32970  Biso   1.000  C
  H99      1.0000 0.14400  0.73410  0.36940  Biso   1.000  H
  C113     1.0000 0.16690  0.64200  0.25680  Biso   1.000  C
  H100     1.0000 0.18540  0.74770  0.24800  Biso   1.000  H
  C114     1.0000 0.14250  0.65700  0.22470  Biso   1.000  C
  H101     1.0000 0.14620  0.77490  0.19790  Biso   1.000  H
  C115     1.0000 0.11380  0.64100  0.29170  Biso   1.000  C
  H102     1.0000 0.09370  0.73960  0.30240  Biso   1.000  H
  C116     1.0000 0.13680  0.31700  0.31190  Biso   1.000  C
  H103     1.0000 0.13630  0.20060  0.34120  Biso   1.000  H
  C117     1.0000 0.15960  0.33200  0.23690  Biso   1.000  C
  H104     1.0000 0.17150  0.22170  0.21250  Biso   1.000  H
  O14      1.0000 0.70593  0.15160  0.09560  Biso   1.000  O
  C118     1.0000 0.63890  0.84900  0.20940  Biso   1.000  C
  H105     1.0000 0.63780  0.75230  0.16840  Biso   1.000  H
  C119     1.0000 0.61340  0.83400  0.28110  Biso   1.000  C
  H106     1.0000 0.59530  0.72740  0.28800  Biso   1.000  H
  C120     1.0000 0.61380  0.97700  0.34550  Biso   1.000  C
  C121     1.0000 0.64220  0.13500  0.32970  Biso   1.000  C
  H107     1.0000 0.64400  0.23410  0.36940  Biso   1.000  H
  C122     1.0000 0.66690  0.14200  0.25680  Biso   1.000  C
  H108     1.0000 0.68540  0.24770  0.24800  Biso   1.000  H
  C123     1.0000 0.64250  0.15700  0.22470  Biso   1.000  C
  H109     1.0000 0.64620  0.27490  0.19790  Biso   1.000  H
  C124     1.0000 0.61380  0.14100  0.29170  Biso   1.000  C
  H110     1.0000 0.59370  0.23960  0.30240  Biso   1.000  H
  C125     1.0000 0.63680  0.81700  0.31190  Biso   1.000  C
  H111     1.0000 0.63630  0.70060  0.34120  Biso   1.000  H
  C126     1.0000 0.65960  0.83200  0.23690  Biso   1.000  C
  H112     1.0000 0.67150  0.72170  0.21250  Biso   1.000  H
  O15      1.0000 0.79407  0.34840  0.09560  Biso   1.000  O
  C127     1.0000 0.86110  0.65100  0.20940  Biso   1.000  C
  H113     1.0000 0.86220  0.74770  0.16840  Biso   1.000  H
  C128     1.0000 0.88660  0.66600  0.28110  Biso   1.000  C
  H114     1.0000 0.90470  0.77260  0.28800  Biso   1.000  H
  C129     1.0000 0.88620  0.52300  0.34550  Biso   1.000  C
  C130     1.0000 0.85780  0.36500  0.32970  Biso   1.000  C
  H115     1.0000 0.85600  0.26590  0.36940  Biso   1.000  H
  C131     1.0000 0.83310  0.35800  0.25680  Biso   1.000  C
  H116     1.0000 0.81460  0.25230  0.24800  Biso   1.000  H
  C132     1.0000 0.85750  0.34300  0.22470  Biso   1.000  C
  H117     1.0000 0.85380  0.22510  0.19790  Biso   1.000  H
  C133     1.0000 0.88620  0.35900  0.29170  Biso   1.000  C
  H118     1.0000 0.90630  0.26040  0.30240  Biso   1.000  H
  C134     1.0000 0.86320  0.68300  0.31190  Biso   1.000  C
  H119     1.0000 0.86370  0.79940  0.34120  Biso   1.000  H
  C135     1.0000 0.84040  0.66800  0.23690  Biso   1.000  C
  H120     1.0000 0.82850  0.77830  0.21250  Biso   1.000  H
  O16      1.0000 0.29407  0.84840  0.09560  Biso   1.000  O
  C136     1.0000 0.36110  0.15100  0.20940  Biso   1.000  C
  H121     1.0000 0.36220  0.24770  0.16840  Biso   1.000  H
  C137     1.0000 0.38660  0.16600  0.28110  Biso   1.000  C
  H122     1.0000 0.40470  0.27260  0.28800  Biso   1.000  H
  C138     1.0000 0.38620  0.02300  0.34550  Biso   1.000  C
  C139     1.0000 0.35780  0.86500  0.32970  Biso   1.000  C
  H123     1.0000 0.35600  0.76590  0.36940  Biso   1.000  H
  C140     1.0000 0.33310  0.85800  0.25680  Biso   1.000  C
  H124     1.0000 0.31460  0.75230  0.24800  Biso   1.000  H
  C141     1.0000 0.35750  0.84300  0.22470  Biso   1.000  C
  H125     1.0000 0.35380  0.72510  0.19790  Biso   1.000  H
  C142     1.0000 0.38620  0.85900  0.29170  Biso   1.000  C
  H126     1.0000 0.40630  0.76040  0.30240  Biso   1.000  H
  C143     1.0000 0.36320  0.18300  0.31190  Biso   1.000  C
  H127     1.0000 0.36370  0.29940  0.34120  Biso   1.000  H
  C144     1.0000 0.34040  0.16800  0.23690  Biso   1.000  C
  H128     1.0000 0.32850  0.27830  0.21250  Biso   1.000  H
  In1      1.0000 0.25000  0.25000  0.00000  Biso   1.000  In
  In2      1.0000 0.75000  0.75000  0.00000  Biso   1.000  In
  In3      1.0000 0.75000  0.25000  0.00000  Biso   1.000  In
  In4      1.0000 0.25000  0.75000  0.00000  Biso   1.000  In
  O17      1.0000 0.28370  0.50000  0.00000  Biso   1.000  O
  H129     1.0000 0.31560  0.50000  0.00000  Biso   1.000  H
  O18      1.0000 0.78370  0.00000  0.00000  Biso   1.000  O
  H130     1.0000 0.81560  0.00000  0.00000  Biso   1.000  H
  O19      1.0000 0.71630  0.50000  0.00000  Biso   1.000  O
  H131     1.0000 0.68440  0.50000  0.00000  Biso   1.000  H
  O20      1.0000 0.21630  0.00000  0.00000  Biso   1.000  O
  H132     1.0000 0.18440  0.00000  0.00000  Biso   1.000  H
  C145     1.0000 0.19440  0.50000  0.12230  Biso   1.000  C
  C146     1.0000 0.02490  0.50000  0.33930  Biso   1.000  C
  H133     1.0000 0.04160  0.50000  0.28920  Biso   1.000  H
  C147     1.0000 0.09010  0.50000  0.42570  Biso   1.000  C
  C148     1.0000 0.04410  0.50000  0.42130  Biso   1.000  C
  C149     1.0000 0.16580  0.50000  0.19630  Biso   1.000  C
  C150     1.0000 0.69440  0.00000  0.12230  Biso   1.000  C
  C151     1.0000 0.52490  0.00000  0.33930  Biso   1.000  C
  H134     1.0000 0.54160  0.00000  0.28920  Biso   1.000  H
  C152     1.0000 0.59010  0.00000  0.42570  Biso   1.000  C
  C153     1.0000 0.54410  0.00000  0.42130  Biso   1.000  C
  C154     1.0000 0.66580  0.00000  0.19630  Biso   1.000  C
  C155     1.0000 0.80560  0.50000  0.12230  Biso   1.000  C
  C156     1.0000 0.97510  0.50000  0.33930  Biso   1.000  C
  H135     1.0000 0.95840  0.50000  0.28920  Biso   1.000  H
  C157     1.0000 0.90990  0.50000  0.42570  Biso   1.000  C
  C158     1.0000 0.95590  0.50000  0.42130  Biso   1.000  C
  C159     1.0000 0.83420  0.50000  0.19630  Biso   1.000  C
  C160     1.0000 0.30560  0.00000  0.12230  Biso   1.000  C
  C161     1.0000 0.47510  0.00000  0.33930  Biso   1.000  C
  H136     1.0000 0.45840  0.00000  0.28920  Biso   1.000  H
  C162     1.0000 0.40990  0.00000  0.42570  Biso   1.000  C
  C163     1.0000 0.45590  0.00000  0.42130  Biso   1.000  C
  C164     1.0000 0.33420  0.00000  0.19630  Biso   1.000  C
  C165     1.0000 0.80560  0.50000  0.87770  Biso   1.000  C
  C166     1.0000 0.97510  0.50000  0.66070  Biso   1.000  C
  H137     1.0000 0.95840  0.50000  0.71080  Biso   1.000  H
  C167     1.0000 0.90990  0.50000  0.57430  Biso   1.000  C
  C168     1.0000 0.95590  0.50000  0.57870  Biso   1.000  C
  C169     1.0000 0.83420  0.50000  0.80370  Biso   1.000  C
  C170     1.0000 0.30560  0.00000  0.87770  Biso   1.000  C
  C171     1.0000 0.47510  0.00000  0.66070  Biso   1.000  C
  H138     1.0000 0.45840  0.00000  0.71080  Biso   1.000  H
  C172     1.0000 0.40990  0.00000  0.57430  Biso   1.000  C
  C173     1.0000 0.45590  0.00000  0.57870  Biso   1.000  C
  C174     1.0000 0.33420  0.00000  0.80370  Biso   1.000  C
  C175     1.0000 0.19440  0.50000  0.87770  Biso   1.000  C
  C176     1.0000 0.02490  0.50000  0.66070  Biso   1.000  C
  H139     1.0000 0.04160  0.50000  0.71080  Biso   1.000  H
  C177     1.0000 0.09010  0.50000  0.57430  Biso   1.000  C
  C178     1.0000 0.04410  0.50000  0.57870  Biso   1.000  C
  C179     1.0000 0.16580  0.50000  0.80370  Biso   1.000  C
  C180     1.0000 0.69440  0.00000  0.87770  Biso   1.000  C
  C181     1.0000 0.52490  0.00000  0.66070  Biso   1.000  C
  H140     1.0000 0.54160  0.00000  0.71080  Biso   1.000  H
  C182     1.0000 0.59010  0.00000  0.57430  Biso   1.000  C
  C183     1.0000 0.54410  0.00000  0.57870  Biso   1.000  C
  C184     1.0000 0.66580  0.00000  0.80370  Biso   1.000  C
  C185     1.0000 0.02240  0.50000  0.50000  Biso   1.000  C
  C186     1.0000 0.11390  0.50000  0.50000  Biso   1.000  C
  H141     1.0000 0.14480  0.50000  0.50000  Biso   1.000  H
  C187     1.0000 0.52240  0.00000  0.50000  Biso   1.000  C
  C188     1.0000 0.61390  0.00000  0.50000  Biso   1.000  C
  H142     1.0000 0.64480  0.00000  0.50000  Biso   1.000  H
  C189     1.0000 0.97760  0.50000  0.50000  Biso   1.000  C
  C190     1.0000 0.88610  0.50000  0.50000  Biso   1.000  C
  H143     1.0000 0.85520  0.50000  0.50000  Biso   1.000  H
  C191     1.0000 0.47760  0.00000  0.50000  Biso   1.000  C
  C192     1.0000 0.38610  0.00000  0.50000  Biso   1.000  C
  H144     1.0000 0.35520  0.00000  0.50000  Biso   1.000  H
