data_image0
_cell_length_a       21.5599
_cell_length_b       21.5599
_cell_length_c       12.8974
_cell_angle_alpha    90
_cell_angle_beta     90
_cell_angle_gamma    90

_symmetry_space_group_name_H-M    "P 1"
_symmetry_int_tables_number       1

loop_
  _symmetry_equiv_pos_as_xyz
  'x, y, z'

loop_
  _atom_site_label
  _atom_site_occupancy
  _atom_site_fract_x
  _atom_site_fract_y
  _atom_site_fract_z
  _atom_site_thermal_displace_type
  _atom_site_B_iso_or_equiv
  _atom_site_type_symbol
  Cu1      1.0000 0.05811  0.31312  0.68583  Biso   1.000  Cu
  O1       1.0000 0.14609  0.26223  0.56017  Biso   1.000  O
  O2       1.0000 0.05301  0.30176  0.53150  Biso   1.000  O
  O3       1.0000 0.09447  0.39403  0.66560  Biso   1.000  O
  N1       1.0000 0.16340  0.22915  0.36510  Biso   1.000  N
  H1       1.0000 0.16320  0.19360  0.32420  Biso   1.000  H
  N2       1.0000 0.09806  0.31816  0.82590  Biso   1.000  N
  H2       1.0000 0.12130  0.28200  0.83240  Biso   1.000  H
  C1       1.0000 0.09945  0.27202  0.50220  Biso   1.000  C
  C2       1.0000 0.09806  0.24310  0.39580  Biso   1.000  C
  H3       1.0000 0.08010  0.27360  0.34550  Biso   1.000  H
  C3       1.0000 0.05780  0.18580  0.39810  Biso   1.000  C
  H4       1.0000 0.08450  0.15050  0.41890  Biso   1.000  H
  H5       1.0000 0.02680  0.19150  0.45400  Biso   1.000  H
  C4       1.0000 0.02350  0.16670  0.30270  Biso   1.000  C
  H6       1.0000 0.05660  0.15180  0.25450  Biso   1.000  H
  C5       1.0000 0.99110  0.21400  0.24420  Biso   1.000  C
  H7       1.0000 0.01860  0.24960  0.23360  Biso   1.000  H
  H8       1.0000 0.95420  0.22730  0.28270  Biso   1.000  H
  H9       1.0000 0.97860  0.19710  0.17680  Biso   1.000  H
  C6       1.0000 0.98240  0.11100  0.31830  Biso   1.000  C
  H10      1.0000 0.00490  0.07930  0.35760  Biso   1.000  H
  H11      1.0000 0.97030  0.09410  0.25060  Biso   1.000  H
  H12      1.0000 0.94510  0.12330  0.35670  Biso   1.000  H
  C7       1.0000 0.19145  0.28040  0.30380  Biso   1.000  C
  H13      1.0000 0.23540  0.27030  0.28920  Biso   1.000  H
  H14      1.0000 0.19050  0.31890  0.34540  Biso   1.000  H
  C8       1.0000 0.15772  0.29140  0.20170  Biso   1.000  C
  C9       1.0000 0.15370  0.24610  0.12750  Biso   1.000  C
  H15      1.0000 0.17430  0.20770  0.13880  Biso   1.000  H
  C10      1.0000 0.12110  0.25440  0.03810  Biso   1.000  C
  H16      1.0000 0.11920  0.22170  0.98890  Biso   1.000  H
  C11      1.0000 0.09084  0.30936  0.01770  Biso   1.000  C
  C12      1.0000 0.09580  0.35600  0.09220  Biso   1.000  C
  H17      1.0000 0.07610  0.39480  0.08050  Biso   1.000  H
  C13      1.0000 0.12860  0.34690  0.18170  Biso   1.000  C
  H18      1.0000 0.13120  0.37950  0.23110  Biso   1.000  H
  C14      1.0000 0.12940  0.41435  0.73700  Biso   1.000  C
  C15      1.0000 0.14377  0.36950  0.82590  Biso   1.000  C
  H19      1.0000 0.14120  0.39230  0.89340  Biso   1.000  H
  C16      1.0000 0.20985  0.34292  0.81260  Biso   1.000  C
  H20      1.0000 0.21270  0.30390  0.85280  Biso   1.000  H
  H21      1.0000 0.21580  0.33220  0.73860  Biso   1.000  H
  C17      1.0000 0.26240  0.38510  0.84570  Biso   1.000  C
  H22      1.0000 0.25760  0.42520  0.80780  Biso   1.000  H
  C18      1.0000 0.26260  0.39930  0.95960  Biso   1.000  C
  H23      1.0000 0.29770  0.42640  0.97590  Biso   1.000  H
  H24      1.0000 0.26640  0.36050  0.99890  Biso   1.000  H
  H25      1.0000 0.22380  0.42010  0.97840  Biso   1.000  H
  C19      1.0000 0.32330  0.35630  0.81210  Biso   1.000  C
  H26      1.0000 0.35770  0.38330  0.83320  Biso   1.000  H
  H27      1.0000 0.32360  0.35160  0.73650  Biso   1.000  H
  H28      1.0000 0.32800  0.31560  0.84470  Biso   1.000  H
  C20      1.0000 0.05640  0.31920  0.91740  Biso   1.000  C
  H29      1.0000 0.02470  0.28640  0.90970  Biso   1.000  H
  H30      1.0000 0.03470  0.35960  0.92010  Biso   1.000  H
  O4       1.0000 0.15384  0.46520  0.73800  Biso   1.000  O
  H31      1.0000 0.07360  0.15830  0.34260  Biso   1.000  H
  H32      1.0000 0.06720  0.16470  0.46450  Biso   1.000  H
  C21      1.0000 0.99840  0.18540  0.38940  Biso   1.000  C
  H33      1.0000 0.98260  0.20640  0.45340  Biso   1.000  H
  C22      1.0000 0.96970  0.22330  0.29500  Biso   1.000  C
  H34      1.0000 0.92450  0.22500  0.30260  Biso   1.000  H
  H35      1.0000 0.98040  0.20280  0.22990  Biso   1.000  H
  H36      1.0000 0.98650  0.26550  0.29530  Biso   1.000  H
  C23      1.0000 0.97210  0.11460  0.39500  Biso   1.000  C
  H37      1.0000 0.92660  0.11520  0.39380  Biso   1.000  H
  H38      1.0000 0.98620  0.09500  0.45950  Biso   1.000  H
  H39      1.0000 0.98750  0.09090  0.33560  Biso   1.000  H
  Cu2      1.0000 0.94189  0.68688  0.68583  Biso   1.000  Cu
  O5       1.0000 0.85391  0.73777  0.56017  Biso   1.000  O
  O6       1.0000 0.94699  0.69824  0.53150  Biso   1.000  O
  O7       1.0000 0.90553  0.60597  0.66560  Biso   1.000  O
  N3       1.0000 0.83660  0.77085  0.36510  Biso   1.000  N
  H40      1.0000 0.83680  0.80640  0.32420  Biso   1.000  H
  N4       1.0000 0.90194  0.68184  0.82590  Biso   1.000  N
  H41      1.0000 0.87870  0.71800  0.83240  Biso   1.000  H
  C24      1.0000 0.90055  0.72798  0.50220  Biso   1.000  C
  C25      1.0000 0.90194  0.75690  0.39580  Biso   1.000  C
  H42      1.0000 0.91990  0.72640  0.34550  Biso   1.000  H
  C26      1.0000 0.94220  0.81420  0.39810  Biso   1.000  C
  H43      1.0000 0.91550  0.84950  0.41890  Biso   1.000  H
  H44      1.0000 0.97320  0.80850  0.45400  Biso   1.000  H
  C27      1.0000 0.97650  0.83330  0.30270  Biso   1.000  C
  H45      1.0000 0.94340  0.84820  0.25450  Biso   1.000  H
  C28      1.0000 0.00890  0.78600  0.24420  Biso   1.000  C
  H46      1.0000 0.98140  0.75040  0.23360  Biso   1.000  H
  H47      1.0000 0.04580  0.77270  0.28270  Biso   1.000  H
  H48      1.0000 0.02140  0.80290  0.17680  Biso   1.000  H
  C29      1.0000 0.01760  0.88900  0.31830  Biso   1.000  C
  H49      1.0000 0.99510  0.92070  0.35760  Biso   1.000  H
  H50      1.0000 0.02970  0.90590  0.25060  Biso   1.000  H
  H51      1.0000 0.05490  0.87670  0.35670  Biso   1.000  H
  C30      1.0000 0.80855  0.71960  0.30380  Biso   1.000  C
  H52      1.0000 0.76460  0.72970  0.28920  Biso   1.000  H
  H53      1.0000 0.80950  0.68110  0.34540  Biso   1.000  H
  C31      1.0000 0.84228  0.70860  0.20170  Biso   1.000  C
  C32      1.0000 0.84630  0.75390  0.12750  Biso   1.000  C
  H54      1.0000 0.82570  0.79230  0.13880  Biso   1.000  H
  C33      1.0000 0.87890  0.74560  0.03810  Biso   1.000  C
  H55      1.0000 0.88080  0.77830  0.98890  Biso   1.000  H
  C34      1.0000 0.90916  0.69064  0.01770  Biso   1.000  C
  C35      1.0000 0.90420  0.64400  0.09220  Biso   1.000  C
  H56      1.0000 0.92390  0.60520  0.08050  Biso   1.000  H
  C36      1.0000 0.87140  0.65310  0.18170  Biso   1.000  C
  H57      1.0000 0.86880  0.62050  0.23110  Biso   1.000  H
  C37      1.0000 0.87060  0.58565  0.73700  Biso   1.000  C
  C38      1.0000 0.85623  0.63050  0.82590  Biso   1.000  C
  H58      1.0000 0.85880  0.60770  0.89340  Biso   1.000  H
  C39      1.0000 0.79015  0.65708  0.81260  Biso   1.000  C
  H59      1.0000 0.78730  0.69610  0.85280  Biso   1.000  H
  H60      1.0000 0.78420  0.66780  0.73860  Biso   1.000  H
  C40      1.0000 0.73760  0.61490  0.84570  Biso   1.000  C
  H61      1.0000 0.74240  0.57480  0.80780  Biso   1.000  H
  C41      1.0000 0.73740  0.60070  0.95960  Biso   1.000  C
  H62      1.0000 0.70230  0.57360  0.97590  Biso   1.000  H
  H63      1.0000 0.73360  0.63950  0.99890  Biso   1.000  H
  H64      1.0000 0.77620  0.57990  0.97840  Biso   1.000  H
  C42      1.0000 0.67670  0.64370  0.81210  Biso   1.000  C
  H65      1.0000 0.64230  0.61670  0.83320  Biso   1.000  H
  H66      1.0000 0.67640  0.64840  0.73650  Biso   1.000  H
  H67      1.0000 0.67200  0.68440  0.84470  Biso   1.000  H
  C43      1.0000 0.94360  0.68080  0.91740  Biso   1.000  C
  H68      1.0000 0.97530  0.71360  0.90970  Biso   1.000  H
  H69      1.0000 0.96530  0.64040  0.92010  Biso   1.000  H
  O8       1.0000 0.84616  0.53480  0.73800  Biso   1.000  O
  H70      1.0000 0.92640  0.84170  0.34260  Biso   1.000  H
  H71      1.0000 0.93280  0.83530  0.46450  Biso   1.000  H
  C44      1.0000 0.00160  0.81460  0.38940  Biso   1.000  C
  H72      1.0000 0.01740  0.79360  0.45340  Biso   1.000  H
  C45      1.0000 0.03030  0.77670  0.29500  Biso   1.000  C
  H73      1.0000 0.07550  0.77500  0.30260  Biso   1.000  H
  H74      1.0000 0.01960  0.79720  0.22990  Biso   1.000  H
  H75      1.0000 0.01350  0.73450  0.29530  Biso   1.000  H
  C46      1.0000 0.02790  0.88540  0.39500  Biso   1.000  C
  H76      1.0000 0.07340  0.88480  0.39380  Biso   1.000  H
  H77      1.0000 0.01380  0.90500  0.45950  Biso   1.000  H
  H78      1.0000 0.01250  0.90910  0.33560  Biso   1.000  H
  Cu3      1.0000 0.18688  0.55811  0.68583  Biso   1.000  Cu
  O9       1.0000 0.23777  0.64609  0.56017  Biso   1.000  O
  O10      1.0000 0.19824  0.55301  0.53150  Biso   1.000  O
  O11      1.0000 0.10597  0.59447  0.66560  Biso   1.000  O
  N5       1.0000 0.27085  0.66340  0.36510  Biso   1.000  N
  H79      1.0000 0.30640  0.66320  0.32420  Biso   1.000  H
  N6       1.0000 0.18184  0.59806  0.82590  Biso   1.000  N
  H80      1.0000 0.21800  0.62130  0.83240  Biso   1.000  H
  C47      1.0000 0.22798  0.59945  0.50220  Biso   1.000  C
  C48      1.0000 0.25690  0.59806  0.39580  Biso   1.000  C
  H81      1.0000 0.22640  0.58010  0.34550  Biso   1.000  H
  C49      1.0000 0.31420  0.55780  0.39810  Biso   1.000  C
  H82      1.0000 0.34950  0.58450  0.41890  Biso   1.000  H
  H83      1.0000 0.30850  0.52680  0.45400  Biso   1.000  H
  C50      1.0000 0.33330  0.52350  0.30270  Biso   1.000  C
  H84      1.0000 0.34820  0.55660  0.25450  Biso   1.000  H
  C51      1.0000 0.28600  0.49110  0.24420  Biso   1.000  C
  H85      1.0000 0.25040  0.51860  0.23360  Biso   1.000  H
  H86      1.0000 0.27270  0.45420  0.28270  Biso   1.000  H
  H87      1.0000 0.30290  0.47860  0.17680  Biso   1.000  H
  C52      1.0000 0.38900  0.48240  0.31830  Biso   1.000  C
  H88      1.0000 0.42070  0.50490  0.35760  Biso   1.000  H
  H89      1.0000 0.40590  0.47030  0.25060  Biso   1.000  H
  H90      1.0000 0.37670  0.44510  0.35670  Biso   1.000  H
  C53      1.0000 0.21960  0.69145  0.30380  Biso   1.000  C
  H91      1.0000 0.22970  0.73540  0.28920  Biso   1.000  H
  H92      1.0000 0.18110  0.69050  0.34540  Biso   1.000  H
  C54      1.0000 0.20860  0.65772  0.20170  Biso   1.000  C
  C55      1.0000 0.25390  0.65370  0.12750  Biso   1.000  C
  H93      1.0000 0.29230  0.67430  0.13880  Biso   1.000  H
  C56      1.0000 0.24560  0.62110  0.03810  Biso   1.000  C
  H94      1.0000 0.27830  0.61920  0.98890  Biso   1.000  H
  C57      1.0000 0.19064  0.59084  0.01770  Biso   1.000  C
  C58      1.0000 0.14400  0.59580  0.09220  Biso   1.000  C
  H95      1.0000 0.10520  0.57610  0.08050  Biso   1.000  H
  C59      1.0000 0.15310  0.62860  0.18170  Biso   1.000  C
  H96      1.0000 0.12050  0.63120  0.23110  Biso   1.000  H
  C60      1.0000 0.08565  0.62940  0.73700  Biso   1.000  C
  C61      1.0000 0.13050  0.64377  0.82590  Biso   1.000  C
  H97      1.0000 0.10770  0.64120  0.89340  Biso   1.000  H
  C62      1.0000 0.15708  0.70985  0.81260  Biso   1.000  C
  H98      1.0000 0.19610  0.71270  0.85280  Biso   1.000  H
  H99      1.0000 0.16780  0.71580  0.73860  Biso   1.000  H
  C63      1.0000 0.11490  0.76240  0.84570  Biso   1.000  C
  H100     1.0000 0.07480  0.75760  0.80780  Biso   1.000  H
  C64      1.0000 0.10070  0.76260  0.95960  Biso   1.000  C
  H101     1.0000 0.07360  0.79770  0.97590  Biso   1.000  H
  H102     1.0000 0.13950  0.76640  0.99890  Biso   1.000  H
  H103     1.0000 0.07990  0.72380  0.97840  Biso   1.000  H
  C65      1.0000 0.14370  0.82330  0.81210  Biso   1.000  C
  H104     1.0000 0.11670  0.85770  0.83320  Biso   1.000  H
  H105     1.0000 0.14840  0.82360  0.73650  Biso   1.000  H
  H106     1.0000 0.18440  0.82800  0.84470  Biso   1.000  H
  C66      1.0000 0.18080  0.55640  0.91740  Biso   1.000  C
  H107     1.0000 0.21360  0.52470  0.90970  Biso   1.000  H
  H108     1.0000 0.14040  0.53470  0.92010  Biso   1.000  H
  O12      1.0000 0.03480  0.65384  0.73800  Biso   1.000  O
  H109     1.0000 0.34170  0.57360  0.34260  Biso   1.000  H
  H110     1.0000 0.33530  0.56720  0.46450  Biso   1.000  H
  C67      1.0000 0.31460  0.49840  0.38940  Biso   1.000  C
  H111     1.0000 0.29360  0.48260  0.45340  Biso   1.000  H
  C68      1.0000 0.27670  0.46970  0.29500  Biso   1.000  C
  H112     1.0000 0.27500  0.42450  0.30260  Biso   1.000  H
  H113     1.0000 0.29720  0.48040  0.22990  Biso   1.000  H
  H114     1.0000 0.23450  0.48650  0.29530  Biso   1.000  H
  C69      1.0000 0.38540  0.47210  0.39500  Biso   1.000  C
  H115     1.0000 0.38480  0.42660  0.39380  Biso   1.000  H
  H116     1.0000 0.40500  0.48620  0.45950  Biso   1.000  H
  H117     1.0000 0.40910  0.48750  0.33560  Biso   1.000  H
  Cu4      1.0000 0.81312  0.44189  0.68583  Biso   1.000  Cu
  O13      1.0000 0.76223  0.35391  0.56017  Biso   1.000  O
  O14      1.0000 0.80176  0.44699  0.53150  Biso   1.000  O
  O15      1.0000 0.89403  0.40553  0.66560  Biso   1.000  O
  N7       1.0000 0.72915  0.33660  0.36510  Biso   1.000  N
  H118     1.0000 0.69360  0.33680  0.32420  Biso   1.000  H
  N8       1.0000 0.81816  0.40194  0.82590  Biso   1.000  N
  H119     1.0000 0.78200  0.37870  0.83240  Biso   1.000  H
  C70      1.0000 0.77202  0.40055  0.50220  Biso   1.000  C
  C71      1.0000 0.74310  0.40194  0.39580  Biso   1.000  C
  H120     1.0000 0.77360  0.41990  0.34550  Biso   1.000  H
  C72      1.0000 0.68580  0.44220  0.39810  Biso   1.000  C
  H121     1.0000 0.65050  0.41550  0.41890  Biso   1.000  H
  H122     1.0000 0.69150  0.47320  0.45400  Biso   1.000  H
  C73      1.0000 0.66670  0.47650  0.30270  Biso   1.000  C
  H123     1.0000 0.65180  0.44340  0.25450  Biso   1.000  H
  C74      1.0000 0.71400  0.50890  0.24420  Biso   1.000  C
  H124     1.0000 0.74960  0.48140  0.23360  Biso   1.000  H
  H125     1.0000 0.72730  0.54580  0.28270  Biso   1.000  H
  H126     1.0000 0.69710  0.52140  0.17680  Biso   1.000  H
  C75      1.0000 0.61100  0.51760  0.31830  Biso   1.000  C
  H127     1.0000 0.57930  0.49510  0.35760  Biso   1.000  H
  H128     1.0000 0.59410  0.52970  0.25060  Biso   1.000  H
  H129     1.0000 0.62330  0.55490  0.35670  Biso   1.000  H
  C76      1.0000 0.78040  0.30855  0.30380  Biso   1.000  C
  H130     1.0000 0.77030  0.26460  0.28920  Biso   1.000  H
  H131     1.0000 0.81890  0.30950  0.34540  Biso   1.000  H
  C77      1.0000 0.79140  0.34228  0.20170  Biso   1.000  C
  C78      1.0000 0.74610  0.34630  0.12750  Biso   1.000  C
  H132     1.0000 0.70770  0.32570  0.13880  Biso   1.000  H
  C79      1.0000 0.75440  0.37890  0.03810  Biso   1.000  C
  H133     1.0000 0.72170  0.38080  0.98890  Biso   1.000  H
  C80      1.0000 0.80936  0.40916  0.01770  Biso   1.000  C
  C81      1.0000 0.85600  0.40420  0.09220  Biso   1.000  C
  H134     1.0000 0.89480  0.42390  0.08050  Biso   1.000  H
  C82      1.0000 0.84690  0.37140  0.18170  Biso   1.000  C
  H135     1.0000 0.87950  0.36880  0.23110  Biso   1.000  H
  C83      1.0000 0.91435  0.37060  0.73700  Biso   1.000  C
  C84      1.0000 0.86950  0.35623  0.82590  Biso   1.000  C
  H136     1.0000 0.89230  0.35880  0.89340  Biso   1.000  H
  C85      1.0000 0.84292  0.29015  0.81260  Biso   1.000  C
  H137     1.0000 0.80390  0.28730  0.85280  Biso   1.000  H
  H138     1.0000 0.83220  0.28420  0.73860  Biso   1.000  H
  C86      1.0000 0.88510  0.23760  0.84570  Biso   1.000  C
  H139     1.0000 0.92520  0.24240  0.80780  Biso   1.000  H
  C87      1.0000 0.89930  0.23740  0.95960  Biso   1.000  C
  H140     1.0000 0.92640  0.20230  0.97590  Biso   1.000  H
  H141     1.0000 0.86050  0.23360  0.99890  Biso   1.000  H
  H142     1.0000 0.92010  0.27620  0.97840  Biso   1.000  H
  C88      1.0000 0.85630  0.17670  0.81210  Biso   1.000  C
  H143     1.0000 0.88330  0.14230  0.83320  Biso   1.000  H
  H144     1.0000 0.85160  0.17640  0.73650  Biso   1.000  H
  H145     1.0000 0.81560  0.17200  0.84470  Biso   1.000  H
  C89      1.0000 0.81920  0.44360  0.91740  Biso   1.000  C
  H146     1.0000 0.78640  0.47530  0.90970  Biso   1.000  H
  H147     1.0000 0.85960  0.46530  0.92010  Biso   1.000  H
  O16      1.0000 0.96520  0.34616  0.73800  Biso   1.000  O
  H148     1.0000 0.65830  0.42640  0.34260  Biso   1.000  H
  H149     1.0000 0.66470  0.43280  0.46450  Biso   1.000  H
  C90      1.0000 0.68540  0.50160  0.38940  Biso   1.000  C
  H150     1.0000 0.70640  0.51740  0.45340  Biso   1.000  H
  C91      1.0000 0.72330  0.53030  0.29500  Biso   1.000  C
  H151     1.0000 0.72500  0.57550  0.30260  Biso   1.000  H
  H152     1.0000 0.70280  0.51960  0.22990  Biso   1.000  H
  H153     1.0000 0.76550  0.51350  0.29530  Biso   1.000  H
  C92      1.0000 0.61460  0.52790  0.39500  Biso   1.000  C
  H154     1.0000 0.61520  0.57340  0.39380  Biso   1.000  H
  H155     1.0000 0.59500  0.51380  0.45950  Biso   1.000  H
  H156     1.0000 0.59090  0.51250  0.33560  Biso   1.000  H
  Cu5      1.0000 0.44189  0.81312  0.31417  Biso   1.000  Cu
  O17      1.0000 0.35391  0.76223  0.43983  Biso   1.000  O
  O18      1.0000 0.44699  0.80176  0.46850  Biso   1.000  O
  O19      1.0000 0.40553  0.89403  0.33440  Biso   1.000  O
  N9       1.0000 0.33660  0.72915  0.63490  Biso   1.000  N
  H157     1.0000 0.33680  0.69360  0.67580  Biso   1.000  H
  N10      1.0000 0.40194  0.81816  0.17410  Biso   1.000  N
  H158     1.0000 0.37870  0.78200  0.16760  Biso   1.000  H
  C93      1.0000 0.40055  0.77202  0.49780  Biso   1.000  C
  C94      1.0000 0.40194  0.74310  0.60420  Biso   1.000  C
  H159     1.0000 0.41990  0.77360  0.65450  Biso   1.000  H
  C95      1.0000 0.44220  0.68580  0.60190  Biso   1.000  C
  H160     1.0000 0.41550  0.65050  0.58110  Biso   1.000  H
  H161     1.0000 0.47320  0.69150  0.54600  Biso   1.000  H
  C96      1.0000 0.47650  0.66670  0.69730  Biso   1.000  C
  H162     1.0000 0.44340  0.65180  0.74550  Biso   1.000  H
  C97      1.0000 0.50890  0.71400  0.75580  Biso   1.000  C
  H163     1.0000 0.48140  0.74960  0.76640  Biso   1.000  H
  H164     1.0000 0.54580  0.72730  0.71730  Biso   1.000  H
  H165     1.0000 0.52140  0.69710  0.82320  Biso   1.000  H
  C98      1.0000 0.51760  0.61100  0.68170  Biso   1.000  C
  H166     1.0000 0.49510  0.57930  0.64240  Biso   1.000  H
  H167     1.0000 0.52970  0.59410  0.74940  Biso   1.000  H
  H168     1.0000 0.55490  0.62330  0.64330  Biso   1.000  H
  C99      1.0000 0.30855  0.78040  0.69620  Biso   1.000  C
  H169     1.0000 0.26460  0.77030  0.71080  Biso   1.000  H
  H170     1.0000 0.30950  0.81890  0.65460  Biso   1.000  H
  C100     1.0000 0.34228  0.79140  0.79830  Biso   1.000  C
  C101     1.0000 0.34630  0.74610  0.87250  Biso   1.000  C
  H171     1.0000 0.32570  0.70770  0.86120  Biso   1.000  H
  C102     1.0000 0.37890  0.75440  0.96190  Biso   1.000  C
  H172     1.0000 0.38080  0.72170  0.01110  Biso   1.000  H
  C103     1.0000 0.40916  0.80936  0.98230  Biso   1.000  C
  C104     1.0000 0.40420  0.85600  0.90780  Biso   1.000  C
  H173     1.0000 0.42390  0.89480  0.91950  Biso   1.000  H
  C105     1.0000 0.37140  0.84690  0.81830  Biso   1.000  C
  H174     1.0000 0.36880  0.87950  0.76890  Biso   1.000  H
  C106     1.0000 0.37060  0.91435  0.26300  Biso   1.000  C
  C107     1.0000 0.35623  0.86950  0.17410  Biso   1.000  C
  H175     1.0000 0.35880  0.89230  0.10660  Biso   1.000  H
  C108     1.0000 0.29015  0.84292  0.18740  Biso   1.000  C
  H176     1.0000 0.28730  0.80390  0.14720  Biso   1.000  H
  H177     1.0000 0.28420  0.83220  0.26140  Biso   1.000  H
  C109     1.0000 0.23760  0.88510  0.15430  Biso   1.000  C
  H178     1.0000 0.24240  0.92520  0.19220  Biso   1.000  H
  C110     1.0000 0.23740  0.89930  0.04040  Biso   1.000  C
  H179     1.0000 0.20230  0.92640  0.02410  Biso   1.000  H
  H180     1.0000 0.23360  0.86050  0.00110  Biso   1.000  H
  H181     1.0000 0.27620  0.92010  0.02160  Biso   1.000  H
  C111     1.0000 0.17670  0.85630  0.18790  Biso   1.000  C
  H182     1.0000 0.14230  0.88330  0.16680  Biso   1.000  H
  H183     1.0000 0.17640  0.85160  0.26350  Biso   1.000  H
  H184     1.0000 0.17200  0.81560  0.15530  Biso   1.000  H
  C112     1.0000 0.44360  0.81920  0.08260  Biso   1.000  C
  H185     1.0000 0.47530  0.78640  0.09030  Biso   1.000  H
  H186     1.0000 0.46530  0.85960  0.07990  Biso   1.000  H
  O20      1.0000 0.34616  0.96520  0.26200  Biso   1.000  O
  H187     1.0000 0.42640  0.65830  0.65740  Biso   1.000  H
  H188     1.0000 0.43280  0.66470  0.53550  Biso   1.000  H
  C113     1.0000 0.50160  0.68540  0.61060  Biso   1.000  C
  H189     1.0000 0.51740  0.70640  0.54660  Biso   1.000  H
  C114     1.0000 0.53030  0.72330  0.70500  Biso   1.000  C
  H190     1.0000 0.57550  0.72500  0.69740  Biso   1.000  H
  H191     1.0000 0.51960  0.70280  0.77010  Biso   1.000  H
  H192     1.0000 0.51350  0.76550  0.70470  Biso   1.000  H
  C115     1.0000 0.52790  0.61460  0.60500  Biso   1.000  C
  H193     1.0000 0.57340  0.61520  0.60620  Biso   1.000  H
  H194     1.0000 0.51380  0.59500  0.54050  Biso   1.000  H
  H195     1.0000 0.51250  0.59090  0.66440  Biso   1.000  H
  Cu6      1.0000 0.55811  0.18688  0.31417  Biso   1.000  Cu
  O21      1.0000 0.64609  0.23777  0.43983  Biso   1.000  O
  O22      1.0000 0.55301  0.19824  0.46850  Biso   1.000  O
  O23      1.0000 0.59447  0.10597  0.33440  Biso   1.000  O
  N11      1.0000 0.66340  0.27085  0.63490  Biso   1.000  N
  H196     1.0000 0.66320  0.30640  0.67580  Biso   1.000  H
  N12      1.0000 0.59806  0.18184  0.17410  Biso   1.000  N
  H197     1.0000 0.62130  0.21800  0.16760  Biso   1.000  H
  C116     1.0000 0.59945  0.22798  0.49780  Biso   1.000  C
  C117     1.0000 0.59806  0.25690  0.60420  Biso   1.000  C
  H198     1.0000 0.58010  0.22640  0.65450  Biso   1.000  H
  C118     1.0000 0.55780  0.31420  0.60190  Biso   1.000  C
  H199     1.0000 0.58450  0.34950  0.58110  Biso   1.000  H
  H200     1.0000 0.52680  0.30850  0.54600  Biso   1.000  H
  C119     1.0000 0.52350  0.33330  0.69730  Biso   1.000  C
  H201     1.0000 0.55660  0.34820  0.74550  Biso   1.000  H
  C120     1.0000 0.49110  0.28600  0.75580  Biso   1.000  C
  H202     1.0000 0.51860  0.25040  0.76640  Biso   1.000  H
  H203     1.0000 0.45420  0.27270  0.71730  Biso   1.000  H
  H204     1.0000 0.47860  0.30290  0.82320  Biso   1.000  H
  C121     1.0000 0.48240  0.38900  0.68170  Biso   1.000  C
  H205     1.0000 0.50490  0.42070  0.64240  Biso   1.000  H
  H206     1.0000 0.47030  0.40590  0.74940  Biso   1.000  H
  H207     1.0000 0.44510  0.37670  0.64330  Biso   1.000  H
  C122     1.0000 0.69145  0.21960  0.69620  Biso   1.000  C
  H208     1.0000 0.73540  0.22970  0.71080  Biso   1.000  H
  H209     1.0000 0.69050  0.18110  0.65460  Biso   1.000  H
  C123     1.0000 0.65772  0.20860  0.79830  Biso   1.000  C
  C124     1.0000 0.65370  0.25390  0.87250  Biso   1.000  C
  H210     1.0000 0.67430  0.29230  0.86120  Biso   1.000  H
  C125     1.0000 0.62110  0.24560  0.96190  Biso   1.000  C
  H211     1.0000 0.61920  0.27830  0.01110  Biso   1.000  H
  C126     1.0000 0.59084  0.19064  0.98230  Biso   1.000  C
  C127     1.0000 0.59580  0.14400  0.90780  Biso   1.000  C
  H212     1.0000 0.57610  0.10520  0.91950  Biso   1.000  H
  C128     1.0000 0.62860  0.15310  0.81830  Biso   1.000  C
  H213     1.0000 0.63120  0.12050  0.76890  Biso   1.000  H
  C129     1.0000 0.62940  0.08565  0.26300  Biso   1.000  C
  C130     1.0000 0.64377  0.13050  0.17410  Biso   1.000  C
  H214     1.0000 0.64120  0.10770  0.10660  Biso   1.000  H
  C131     1.0000 0.70985  0.15708  0.18740  Biso   1.000  C
  H215     1.0000 0.71270  0.19610  0.14720  Biso   1.000  H
  H216     1.0000 0.71580  0.16780  0.26140  Biso   1.000  H
  C132     1.0000 0.76240  0.11490  0.15430  Biso   1.000  C
  H217     1.0000 0.75760  0.07480  0.19220  Biso   1.000  H
  C133     1.0000 0.76260  0.10070  0.04040  Biso   1.000  C
  H218     1.0000 0.79770  0.07360  0.02410  Biso   1.000  H
  H219     1.0000 0.76640  0.13950  0.00110  Biso   1.000  H
  H220     1.0000 0.72380  0.07990  0.02160  Biso   1.000  H
  C134     1.0000 0.82330  0.14370  0.18790  Biso   1.000  C
  H221     1.0000 0.85770  0.11670  0.16680  Biso   1.000  H
  H222     1.0000 0.82360  0.14840  0.26350  Biso   1.000  H
  H223     1.0000 0.82800  0.18440  0.15530  Biso   1.000  H
  C135     1.0000 0.55640  0.18080  0.08260  Biso   1.000  C
  H224     1.0000 0.52470  0.21360  0.09030  Biso   1.000  H
  H225     1.0000 0.53470  0.14040  0.07990  Biso   1.000  H
  O24      1.0000 0.65384  0.03480  0.26200  Biso   1.000  O
  H226     1.0000 0.57360  0.34170  0.65740  Biso   1.000  H
  H227     1.0000 0.56720  0.33530  0.53550  Biso   1.000  H
  C136     1.0000 0.49840  0.31460  0.61060  Biso   1.000  C
  H228     1.0000 0.48260  0.29360  0.54660  Biso   1.000  H
  C137     1.0000 0.46970  0.27670  0.70500  Biso   1.000  C
  H229     1.0000 0.42450  0.27500  0.69740  Biso   1.000  H
  H230     1.0000 0.48040  0.29720  0.77010  Biso   1.000  H
  H231     1.0000 0.48650  0.23450  0.70470  Biso   1.000  H
  C138     1.0000 0.47210  0.38540  0.60500  Biso   1.000  C
  H232     1.0000 0.42660  0.38480  0.60620  Biso   1.000  H
  H233     1.0000 0.48620  0.40500  0.54050  Biso   1.000  H
  H234     1.0000 0.48750  0.40910  0.66440  Biso   1.000  H
  Cu7      1.0000 0.31312  0.05811  0.31417  Biso   1.000  Cu
  O25      1.0000 0.26223  0.14609  0.43983  Biso   1.000  O
  O26      1.0000 0.30176  0.05301  0.46850  Biso   1.000  O
  O27      1.0000 0.39403  0.09447  0.33440  Biso   1.000  O
  N13      1.0000 0.22915  0.16340  0.63490  Biso   1.000  N
  H235     1.0000 0.19360  0.16320  0.67580  Biso   1.000  H
  N14      1.0000 0.31816  0.09806  0.17410  Biso   1.000  N
  H236     1.0000 0.28200  0.12130  0.16760  Biso   1.000  H
  C139     1.0000 0.27202  0.09945  0.49780  Biso   1.000  C
  C140     1.0000 0.24310  0.09806  0.60420  Biso   1.000  C
  H237     1.0000 0.27360  0.08010  0.65450  Biso   1.000  H
  C141     1.0000 0.18580  0.05780  0.60190  Biso   1.000  C
  H238     1.0000 0.15050  0.08450  0.58110  Biso   1.000  H
  H239     1.0000 0.19150  0.02680  0.54600  Biso   1.000  H
  C142     1.0000 0.16670  0.02350  0.69730  Biso   1.000  C
  H240     1.0000 0.15180  0.05660  0.74550  Biso   1.000  H
  C143     1.0000 0.21400  0.99110  0.75580  Biso   1.000  C
  H241     1.0000 0.24960  0.01860  0.76640  Biso   1.000  H
  H242     1.0000 0.22730  0.95420  0.71730  Biso   1.000  H
  H243     1.0000 0.19710  0.97860  0.82320  Biso   1.000  H
  C144     1.0000 0.11100  0.98240  0.68170  Biso   1.000  C
  H244     1.0000 0.07930  0.00490  0.64240  Biso   1.000  H
  H245     1.0000 0.09410  0.97030  0.74940  Biso   1.000  H
  H246     1.0000 0.12330  0.94510  0.64330  Biso   1.000  H
  C145     1.0000 0.28040  0.19145  0.69620  Biso   1.000  C
  H247     1.0000 0.27030  0.23540  0.71080  Biso   1.000  H
  H248     1.0000 0.31890  0.19050  0.65460  Biso   1.000  H
  C146     1.0000 0.29140  0.15772  0.79830  Biso   1.000  C
  C147     1.0000 0.24610  0.15370  0.87250  Biso   1.000  C
  H249     1.0000 0.20770  0.17430  0.86120  Biso   1.000  H
  C148     1.0000 0.25440  0.12110  0.96190  Biso   1.000  C
  H250     1.0000 0.22170  0.11920  0.01110  Biso   1.000  H
  C149     1.0000 0.30936  0.09084  0.98230  Biso   1.000  C
  C150     1.0000 0.35600  0.09580  0.90780  Biso   1.000  C
  H251     1.0000 0.39480  0.07610  0.91950  Biso   1.000  H
  C151     1.0000 0.34690  0.12860  0.81830  Biso   1.000  C
  H252     1.0000 0.37950  0.13120  0.76890  Biso   1.000  H
  C152     1.0000 0.41435  0.12940  0.26300  Biso   1.000  C
  C153     1.0000 0.36950  0.14377  0.17410  Biso   1.000  C
  H253     1.0000 0.39230  0.14120  0.10660  Biso   1.000  H
  C154     1.0000 0.34292  0.20985  0.18740  Biso   1.000  C
  H254     1.0000 0.30390  0.21270  0.14720  Biso   1.000  H
  H255     1.0000 0.33220  0.21580  0.26140  Biso   1.000  H
  C155     1.0000 0.38510  0.26240  0.15430  Biso   1.000  C
  H256     1.0000 0.42520  0.25760  0.19220  Biso   1.000  H
  C156     1.0000 0.39930  0.26260  0.04040  Biso   1.000  C
  H257     1.0000 0.42640  0.29770  0.02410  Biso   1.000  H
  H258     1.0000 0.36050  0.26640  0.00110  Biso   1.000  H
  H259     1.0000 0.42010  0.22380  0.02160  Biso   1.000  H
  C157     1.0000 0.35630  0.32330  0.18790  Biso   1.000  C
  H260     1.0000 0.38330  0.35770  0.16680  Biso   1.000  H
  H261     1.0000 0.35160  0.32360  0.26350  Biso   1.000  H
  H262     1.0000 0.31560  0.32800  0.15530  Biso   1.000  H
  C158     1.0000 0.31920  0.05640  0.08260  Biso   1.000  C
  H263     1.0000 0.28640  0.02470  0.09030  Biso   1.000  H
  H264     1.0000 0.35960  0.03470  0.07990  Biso   1.000  H
  O28      1.0000 0.46520  0.15384  0.26200  Biso   1.000  O
  H265     1.0000 0.15830  0.07360  0.65740  Biso   1.000  H
  H266     1.0000 0.16470  0.06720  0.53550  Biso   1.000  H
  C159     1.0000 0.18540  0.99840  0.61060  Biso   1.000  C
  H267     1.0000 0.20640  0.98260  0.54660  Biso   1.000  H
  C160     1.0000 0.22330  0.96970  0.70500  Biso   1.000  C
  H268     1.0000 0.22500  0.92450  0.69740  Biso   1.000  H
  H269     1.0000 0.20280  0.98040  0.77010  Biso   1.000  H
  H270     1.0000 0.26550  0.98650  0.70470  Biso   1.000  H
  C161     1.0000 0.11460  0.97210  0.60500  Biso   1.000  C
  H271     1.0000 0.11520  0.92660  0.60620  Biso   1.000  H
  H272     1.0000 0.09500  0.98620  0.54050  Biso   1.000  H
  H273     1.0000 0.09090  0.98750  0.66440  Biso   1.000  H
  Cu8      1.0000 0.68688  0.94189  0.31417  Biso   1.000  Cu
  O29      1.0000 0.73777  0.85391  0.43983  Biso   1.000  O
  O30      1.0000 0.69824  0.94699  0.46850  Biso   1.000  O
  O31      1.0000 0.60597  0.90553  0.33440  Biso   1.000  O
  N15      1.0000 0.77085  0.83660  0.63490  Biso   1.000  N
  H274     1.0000 0.80640  0.83680  0.67580  Biso   1.000  H
  N16      1.0000 0.68184  0.90194  0.17410  Biso   1.000  N
  H275     1.0000 0.71800  0.87870  0.16760  Biso   1.000  H
  C162     1.0000 0.72798  0.90055  0.49780  Biso   1.000  C
  C163     1.0000 0.75690  0.90194  0.60420  Biso   1.000  C
  H276     1.0000 0.72640  0.91990  0.65450  Biso   1.000  H
  C164     1.0000 0.81420  0.94220  0.60190  Biso   1.000  C
  H277     1.0000 0.84950  0.91550  0.58110  Biso   1.000  H
  H278     1.0000 0.80850  0.97320  0.54600  Biso   1.000  H
  C165     1.0000 0.83330  0.97650  0.69730  Biso   1.000  C
  H279     1.0000 0.84820  0.94340  0.74550  Biso   1.000  H
  C166     1.0000 0.78600  0.00890  0.75580  Biso   1.000  C
  H280     1.0000 0.75040  0.98140  0.76640  Biso   1.000  H
  H281     1.0000 0.77270  0.04580  0.71730  Biso   1.000  H
  H282     1.0000 0.80290  0.02140  0.82320  Biso   1.000  H
  C167     1.0000 0.88900  0.01760  0.68170  Biso   1.000  C
  H283     1.0000 0.92070  0.99510  0.64240  Biso   1.000  H
  H284     1.0000 0.90590  0.02970  0.74940  Biso   1.000  H
  H285     1.0000 0.87670  0.05490  0.64330  Biso   1.000  H
  C168     1.0000 0.71960  0.80855  0.69620  Biso   1.000  C
  H286     1.0000 0.72970  0.76460  0.71080  Biso   1.000  H
  H287     1.0000 0.68110  0.80950  0.65460  Biso   1.000  H
  C169     1.0000 0.70860  0.84228  0.79830  Biso   1.000  C
  C170     1.0000 0.75390  0.84630  0.87250  Biso   1.000  C
  H288     1.0000 0.79230  0.82570  0.86120  Biso   1.000  H
  C171     1.0000 0.74560  0.87890  0.96190  Biso   1.000  C
  H289     1.0000 0.77830  0.88080  0.01110  Biso   1.000  H
  C172     1.0000 0.69064  0.90916  0.98230  Biso   1.000  C
  C173     1.0000 0.64400  0.90420  0.90780  Biso   1.000  C
  H290     1.0000 0.60520  0.92390  0.91950  Biso   1.000  H
  C174     1.0000 0.65310  0.87140  0.81830  Biso   1.000  C
  H291     1.0000 0.62050  0.86880  0.76890  Biso   1.000  H
  C175     1.0000 0.58565  0.87060  0.26300  Biso   1.000  C
  C176     1.0000 0.63050  0.85623  0.17410  Biso   1.000  C
  H292     1.0000 0.60770  0.85880  0.10660  Biso   1.000  H
  C177     1.0000 0.65708  0.79015  0.18740  Biso   1.000  C
  H293     1.0000 0.69610  0.78730  0.14720  Biso   1.000  H
  H294     1.0000 0.66780  0.78420  0.26140  Biso   1.000  H
  C178     1.0000 0.61490  0.73760  0.15430  Biso   1.000  C
  H295     1.0000 0.57480  0.74240  0.19220  Biso   1.000  H
  C179     1.0000 0.60070  0.73740  0.04040  Biso   1.000  C
  H296     1.0000 0.57360  0.70230  0.02410  Biso   1.000  H
  H297     1.0000 0.63950  0.73360  0.00110  Biso   1.000  H
  H298     1.0000 0.57990  0.77620  0.02160  Biso   1.000  H
  C180     1.0000 0.64370  0.67670  0.18790  Biso   1.000  C
  H299     1.0000 0.61670  0.64230  0.16680  Biso   1.000  H
  H300     1.0000 0.64840  0.67640  0.26350  Biso   1.000  H
  H301     1.0000 0.68440  0.67200  0.15530  Biso   1.000  H
  C181     1.0000 0.68080  0.94360  0.08260  Biso   1.000  C
  H302     1.0000 0.71360  0.97530  0.09030  Biso   1.000  H
  H303     1.0000 0.64040  0.96530  0.07990  Biso   1.000  H
  O32      1.0000 0.53480  0.84616  0.26200  Biso   1.000  O
  H304     1.0000 0.84170  0.92640  0.65740  Biso   1.000  H
  H305     1.0000 0.83530  0.93280  0.53550  Biso   1.000  H
  C182     1.0000 0.81460  0.00160  0.61060  Biso   1.000  C
  H306     1.0000 0.79360  0.01740  0.54660  Biso   1.000  H
  C183     1.0000 0.77670  0.03030  0.70500  Biso   1.000  C
  H307     1.0000 0.77500  0.07550  0.69740  Biso   1.000  H
  H308     1.0000 0.79720  0.01960  0.77010  Biso   1.000  H
  H309     1.0000 0.73450  0.01350  0.70470  Biso   1.000  H
  C184     1.0000 0.88540  0.02790  0.60500  Biso   1.000  C
  H310     1.0000 0.88480  0.07340  0.60620  Biso   1.000  H
  H311     1.0000 0.90500  0.01380  0.54050  Biso   1.000  H
  H312     1.0000 0.90910  0.01250  0.66440  Biso   1.000  H
  Cu9      1.0000 0.20949  0.20949  0.50000  Biso   1.000  Cu
  Cu10     1.0000 0.79051  0.79051  0.50000  Biso   1.000  Cu
  Cu11     1.0000 0.29051  0.70949  0.50000  Biso   1.000  Cu
  Cu12     1.0000 0.70949  0.29051  0.50000  Biso   1.000  Cu
