data_image0
_cell_length_a       28.568
_cell_length_b       20.467
_cell_length_c       18.171
_cell_angle_alpha    90
_cell_angle_beta     104.043
_cell_angle_gamma    90

_symmetry_space_group_name_H-M    "P 1"
_symmetry_int_tables_number       1

loop_
  _symmetry_equiv_pos_as_xyz
  'x, y, z'

loop_
  _atom_site_label
  _atom_site_occupancy
  _atom_site_fract_x
  _atom_site_fract_y
  _atom_site_fract_z
  _atom_site_thermal_displace_type
  _atom_site_B_iso_or_equiv
  _atom_site_type_symbol
  Sm1      1.0000 0.68539  0.77936  0.01708  Biso   1.000  Sm
  C1       1.0000 0.41149  0.74042  0.54637  Biso   1.000  C
  C2       1.0000 0.46094  0.71546  0.58623  Biso   1.000  C
  C3       1.0000 0.49439  0.75580  0.63000  Biso   1.000  C
  H1       1.0000 0.48630  0.79910  0.63640  Biso   1.000  H
  C4       1.0000 0.54046  0.73330  0.66550  Biso   1.000  C
  H2       1.0000 0.56290  0.76220  0.69390  Biso   1.000  H
  C5       1.0000 0.55313  0.66943  0.65912  Biso   1.000  C
  C6       1.0000 0.51868  0.62710  0.61770  Biso   1.000  C
  H3       1.0000 0.52630  0.58330  0.61360  Biso   1.000  H
  C7       1.0000 0.47291  0.64960  0.58220  Biso   1.000  C
  H4       1.0000 0.45000  0.62050  0.55550  Biso   1.000  H
  C8       1.0000 0.70402  0.68960  0.86725  Biso   1.000  C
  C9       1.0000 0.67616  0.65632  0.79486  Biso   1.000  C
  C10      1.0000 0.62920  0.67555  0.76266  Biso   1.000  C
  H5       1.0000 0.61520  0.70850  0.78540  Biso   1.000  H
  C11      1.0000 0.60262  0.64609  0.69638  Biso   1.000  C
  C12      1.0000 0.62447  0.59592  0.66524  Biso   1.000  C
  H6       1.0000 0.60720  0.57560  0.62120  Biso   1.000  H
  C13      1.0000 0.67139  0.57504  0.69784  Biso   1.000  C
  C14      1.0000 0.69694  0.60690  0.76248  Biso   1.000  C
  H7       1.0000 0.72860  0.59470  0.78430  Biso   1.000  H
  C15      1.0000 0.75903  0.36515  0.56411  Biso   1.000  C
  C16      1.0000 0.73562  0.41878  0.59937  Biso   1.000  C
  C17      1.0000 0.76288  0.47192  0.63198  Biso   1.000  C
  H8       1.0000 0.79540  0.47400  0.63230  Biso   1.000  H
  C18      1.0000 0.74204  0.52193  0.66407  Biso   1.000  C
  H9       1.0000 0.76100  0.55690  0.68660  Biso   1.000  H
  C19      1.0000 0.69339  0.52104  0.66333  Biso   1.000  C
  C20      1.0000 0.66665  0.46797  0.63008  Biso   1.000  C
  H10      1.0000 0.63400  0.46610  0.62910  Biso   1.000  H
  C21      1.0000 0.68722  0.41732  0.59811  Biso   1.000  C
  H11      1.0000 0.66830  0.38230  0.57580  Biso   1.000  H
  O1       1.0000 0.68140  0.72953  0.89674  Biso   1.000  O
  O2       1.0000 0.74786  0.67501  0.89013  Biso   1.000  O
  O3       1.0000 0.80063  0.37349  0.55639  Biso   1.000  O
  O4       1.0000 0.73585  0.31367  0.54277  Biso   1.000  O
  O5       1.0000 0.39879  0.79597  0.56117  Biso   1.000  O
  O6       1.0000 0.38413  0.70388  0.50054  Biso   1.000  O
  C22      1.0000 0.48260  0.73500  0.65820  Biso   1.000  C
  H12      1.0000 0.46690  0.76420  0.68320  Biso   1.000  H
  C23      1.0000 0.52740  0.71170  0.69390  Biso   1.000  C
  H13      1.0000 0.54100  0.72490  0.74350  Biso   1.000  H
  C24      1.0000 0.53090  0.65500  0.58070  Biso   1.000  C
  H14      1.0000 0.54730  0.62950  0.55280  Biso   1.000  H
  C25      1.0000 0.48640  0.67810  0.54730  Biso   1.000  C
  H15      1.0000 0.47290  0.66840  0.49660  Biso   1.000  H
  Sm2      1.0000 0.18539  0.27936  0.01708  Biso   1.000  Sm
  C26      1.0000 0.91149  0.24042  0.54637  Biso   1.000  C
  C27      1.0000 0.96094  0.21546  0.58623  Biso   1.000  C
  C28      1.0000 0.99439  0.25580  0.63000  Biso   1.000  C
  H16      1.0000 0.98630  0.29910  0.63640  Biso   1.000  H
  C29      1.0000 0.04046  0.23330  0.66550  Biso   1.000  C
  H17      1.0000 0.06290  0.26220  0.69390  Biso   1.000  H
  C30      1.0000 0.05313  0.16943  0.65912  Biso   1.000  C
  C31      1.0000 0.01868  0.12710  0.61770  Biso   1.000  C
  H18      1.0000 0.02630  0.08330  0.61360  Biso   1.000  H
  C32      1.0000 0.97291  0.14960  0.58220  Biso   1.000  C
  H19      1.0000 0.95000  0.12050  0.55550  Biso   1.000  H
  C33      1.0000 0.20402  0.18960  0.86725  Biso   1.000  C
  C34      1.0000 0.17616  0.15632  0.79486  Biso   1.000  C
  C35      1.0000 0.12920  0.17555  0.76266  Biso   1.000  C
  H20      1.0000 0.11520  0.20850  0.78540  Biso   1.000  H
  C36      1.0000 0.10262  0.14609  0.69638  Biso   1.000  C
  C37      1.0000 0.12447  0.09592  0.66524  Biso   1.000  C
  H21      1.0000 0.10720  0.07560  0.62120  Biso   1.000  H
  C38      1.0000 0.17139  0.07504  0.69784  Biso   1.000  C
  C39      1.0000 0.19694  0.10690  0.76248  Biso   1.000  C
  H22      1.0000 0.22860  0.09470  0.78430  Biso   1.000  H
  C40      1.0000 0.25903  0.86515  0.56411  Biso   1.000  C
  C41      1.0000 0.23562  0.91878  0.59937  Biso   1.000  C
  C42      1.0000 0.26288  0.97192  0.63198  Biso   1.000  C
  H23      1.0000 0.29540  0.97400  0.63230  Biso   1.000  H
  C43      1.0000 0.24204  0.02193  0.66407  Biso   1.000  C
  H24      1.0000 0.26100  0.05690  0.68660  Biso   1.000  H
  C44      1.0000 0.19339  0.02104  0.66333  Biso   1.000  C
  C45      1.0000 0.16665  0.96797  0.63008  Biso   1.000  C
  H25      1.0000 0.13400  0.96610  0.62910  Biso   1.000  H
  C46      1.0000 0.18722  0.91732  0.59811  Biso   1.000  C
  H26      1.0000 0.16830  0.88230  0.57580  Biso   1.000  H
  O7       1.0000 0.18140  0.22953  0.89674  Biso   1.000  O
  O8       1.0000 0.24786  0.17501  0.89013  Biso   1.000  O
  O9       1.0000 0.30063  0.87349  0.55639  Biso   1.000  O
  O10      1.0000 0.23585  0.81367  0.54277  Biso   1.000  O
  O11      1.0000 0.89879  0.29597  0.56117  Biso   1.000  O
  O12      1.0000 0.88413  0.20388  0.50054  Biso   1.000  O
  C47      1.0000 0.98260  0.23500  0.65820  Biso   1.000  C
  H27      1.0000 0.96690  0.26420  0.68320  Biso   1.000  H
  C48      1.0000 0.02740  0.21170  0.69390  Biso   1.000  C
  H28      1.0000 0.04100  0.22490  0.74350  Biso   1.000  H
  C49      1.0000 0.03090  0.15500  0.58070  Biso   1.000  C
  H29      1.0000 0.04730  0.12950  0.55280  Biso   1.000  H
  C50      1.0000 0.98640  0.17810  0.54730  Biso   1.000  C
  H30      1.0000 0.97290  0.16840  0.49660  Biso   1.000  H
  Sm3      1.0000 0.31461  0.77936  0.48292  Biso   1.000  Sm
  C51      1.0000 0.58851  0.74042  0.95363  Biso   1.000  C
  C52      1.0000 0.53906  0.71546  0.91377  Biso   1.000  C
  C53      1.0000 0.50561  0.75580  0.87000  Biso   1.000  C
  H31      1.0000 0.51370  0.79910  0.86360  Biso   1.000  H
  C54      1.0000 0.45954  0.73330  0.83450  Biso   1.000  C
  H32      1.0000 0.43710  0.76220  0.80610  Biso   1.000  H
  C55      1.0000 0.44687  0.66943  0.84088  Biso   1.000  C
  C56      1.0000 0.48132  0.62710  0.88230  Biso   1.000  C
  H33      1.0000 0.47370  0.58330  0.88640  Biso   1.000  H
  C57      1.0000 0.52709  0.64960  0.91780  Biso   1.000  C
  H34      1.0000 0.55000  0.62050  0.94450  Biso   1.000  H
  C58      1.0000 0.29598  0.68960  0.63275  Biso   1.000  C
  C59      1.0000 0.32384  0.65632  0.70514  Biso   1.000  C
  C60      1.0000 0.37080  0.67555  0.73734  Biso   1.000  C
  H35      1.0000 0.38480  0.70850  0.71460  Biso   1.000  H
  C61      1.0000 0.39738  0.64609  0.80362  Biso   1.000  C
  C62      1.0000 0.37553  0.59592  0.83476  Biso   1.000  C
  H36      1.0000 0.39280  0.57560  0.87880  Biso   1.000  H
  C63      1.0000 0.32861  0.57504  0.80216  Biso   1.000  C
  C64      1.0000 0.30306  0.60690  0.73752  Biso   1.000  C
  H37      1.0000 0.27140  0.59470  0.71570  Biso   1.000  H
  C65      1.0000 0.24097  0.36515  0.93589  Biso   1.000  C
  C66      1.0000 0.26438  0.41878  0.90063  Biso   1.000  C
  C67      1.0000 0.23712  0.47192  0.86802  Biso   1.000  C
  H38      1.0000 0.20460  0.47400  0.86770  Biso   1.000  H
  C68      1.0000 0.25796  0.52193  0.83593  Biso   1.000  C
  H39      1.0000 0.23900  0.55690  0.81340  Biso   1.000  H
  C69      1.0000 0.30661  0.52104  0.83667  Biso   1.000  C
  C70      1.0000 0.33335  0.46797  0.86992  Biso   1.000  C
  H40      1.0000 0.36600  0.46610  0.87090  Biso   1.000  H
  C71      1.0000 0.31278  0.41732  0.90189  Biso   1.000  C
  H41      1.0000 0.33170  0.38230  0.92420  Biso   1.000  H
  O13      1.0000 0.31860  0.72953  0.60326  Biso   1.000  O
  O14      1.0000 0.25214  0.67501  0.60987  Biso   1.000  O
  O15      1.0000 0.19937  0.37349  0.94361  Biso   1.000  O
  O16      1.0000 0.26415  0.31367  0.95723  Biso   1.000  O
  O17      1.0000 0.60121  0.79597  0.93883  Biso   1.000  O
  O18      1.0000 0.61587  0.70388  0.99946  Biso   1.000  O
  C72      1.0000 0.51740  0.73500  0.84180  Biso   1.000  C
  H42      1.0000 0.53310  0.76420  0.81680  Biso   1.000  H
  C73      1.0000 0.47260  0.71170  0.80610  Biso   1.000  C
  H43      1.0000 0.45900  0.72490  0.75650  Biso   1.000  H
  C74      1.0000 0.46910  0.65500  0.91930  Biso   1.000  C
  H44      1.0000 0.45270  0.62950  0.94720  Biso   1.000  H
  C75      1.0000 0.51360  0.67810  0.95270  Biso   1.000  C
  H45      1.0000 0.52710  0.66840  0.00340  Biso   1.000  H
  Sm4      1.0000 0.81461  0.27936  0.48292  Biso   1.000  Sm
  C76      1.0000 0.08851  0.24042  0.95363  Biso   1.000  C
  C77      1.0000 0.03906  0.21546  0.91377  Biso   1.000  C
  C78      1.0000 0.00561  0.25580  0.87000  Biso   1.000  C
  H46      1.0000 0.01370  0.29910  0.86360  Biso   1.000  H
  C79      1.0000 0.95954  0.23330  0.83450  Biso   1.000  C
  H47      1.0000 0.93710  0.26220  0.80610  Biso   1.000  H
  C80      1.0000 0.94687  0.16943  0.84088  Biso   1.000  C
  C81      1.0000 0.98132  0.12710  0.88230  Biso   1.000  C
  H48      1.0000 0.97370  0.08330  0.88640  Biso   1.000  H
  C82      1.0000 0.02709  0.14960  0.91780  Biso   1.000  C
  H49      1.0000 0.05000  0.12050  0.94450  Biso   1.000  H
  C83      1.0000 0.79598  0.18960  0.63275  Biso   1.000  C
  C84      1.0000 0.82384  0.15632  0.70514  Biso   1.000  C
  C85      1.0000 0.87080  0.17555  0.73734  Biso   1.000  C
  H50      1.0000 0.88480  0.20850  0.71460  Biso   1.000  H
  C86      1.0000 0.89738  0.14609  0.80362  Biso   1.000  C
  C87      1.0000 0.87553  0.09592  0.83476  Biso   1.000  C
  H51      1.0000 0.89280  0.07560  0.87880  Biso   1.000  H
  C88      1.0000 0.82861  0.07504  0.80216  Biso   1.000  C
  C89      1.0000 0.80306  0.10690  0.73752  Biso   1.000  C
  H52      1.0000 0.77140  0.09470  0.71570  Biso   1.000  H
  C90      1.0000 0.74097  0.86515  0.93589  Biso   1.000  C
  C91      1.0000 0.76438  0.91878  0.90063  Biso   1.000  C
  C92      1.0000 0.73712  0.97192  0.86802  Biso   1.000  C
  H53      1.0000 0.70460  0.97400  0.86770  Biso   1.000  H
  C93      1.0000 0.75796  0.02193  0.83593  Biso   1.000  C
  H54      1.0000 0.73900  0.05690  0.81340  Biso   1.000  H
  C94      1.0000 0.80661  0.02104  0.83667  Biso   1.000  C
  C95      1.0000 0.83335  0.96797  0.86992  Biso   1.000  C
  H55      1.0000 0.86600  0.96610  0.87090  Biso   1.000  H
  C96      1.0000 0.81278  0.91732  0.90189  Biso   1.000  C
  H56      1.0000 0.83170  0.88230  0.92420  Biso   1.000  H
  O19      1.0000 0.81860  0.22953  0.60326  Biso   1.000  O
  O20      1.0000 0.75214  0.17501  0.60987  Biso   1.000  O
  O21      1.0000 0.69937  0.87349  0.94361  Biso   1.000  O
  O22      1.0000 0.76415  0.81367  0.95723  Biso   1.000  O
  O23      1.0000 0.10121  0.29597  0.93883  Biso   1.000  O
  O24      1.0000 0.11587  0.20388  0.99946  Biso   1.000  O
  C97      1.0000 0.01740  0.23500  0.84180  Biso   1.000  C
  H57      1.0000 0.03310  0.26420  0.81680  Biso   1.000  H
  C98      1.0000 0.97260  0.21170  0.80610  Biso   1.000  C
  H58      1.0000 0.95900  0.22490  0.75650  Biso   1.000  H
  C99      1.0000 0.96910  0.15500  0.91930  Biso   1.000  C
  H59      1.0000 0.95270  0.12950  0.94720  Biso   1.000  H
  C100     1.0000 0.01360  0.17810  0.95270  Biso   1.000  C
  H60      1.0000 0.02710  0.16840  0.00340  Biso   1.000  H
  Sm5      1.0000 0.31461  0.22064  0.98292  Biso   1.000  Sm
  C101     1.0000 0.58851  0.25958  0.45363  Biso   1.000  C
  C102     1.0000 0.53906  0.28454  0.41377  Biso   1.000  C
  C103     1.0000 0.50561  0.24420  0.37000  Biso   1.000  C
  H61      1.0000 0.51370  0.20090  0.36360  Biso   1.000  H
  C104     1.0000 0.45954  0.26670  0.33450  Biso   1.000  C
  H62      1.0000 0.43710  0.23780  0.30610  Biso   1.000  H
  C105     1.0000 0.44687  0.33057  0.34088  Biso   1.000  C
  C106     1.0000 0.48132  0.37290  0.38230  Biso   1.000  C
  H63      1.0000 0.47370  0.41670  0.38640  Biso   1.000  H
  C107     1.0000 0.52709  0.35040  0.41780  Biso   1.000  C
  H64      1.0000 0.55000  0.37950  0.44450  Biso   1.000  H
  C108     1.0000 0.29598  0.31040  0.13275  Biso   1.000  C
  C109     1.0000 0.32384  0.34368  0.20514  Biso   1.000  C
  C110     1.0000 0.37080  0.32445  0.23734  Biso   1.000  C
  H65      1.0000 0.38480  0.29150  0.21460  Biso   1.000  H
  C111     1.0000 0.39738  0.35391  0.30362  Biso   1.000  C
  C112     1.0000 0.37553  0.40408  0.33476  Biso   1.000  C
  H66      1.0000 0.39280  0.42440  0.37880  Biso   1.000  H
  C113     1.0000 0.32861  0.42496  0.30216  Biso   1.000  C
  C114     1.0000 0.30306  0.39310  0.23752  Biso   1.000  C
  H67      1.0000 0.27140  0.40530  0.21570  Biso   1.000  H
  C115     1.0000 0.24097  0.63485  0.43589  Biso   1.000  C
  C116     1.0000 0.26438  0.58122  0.40063  Biso   1.000  C
  C117     1.0000 0.23712  0.52808  0.36802  Biso   1.000  C
  H68      1.0000 0.20460  0.52600  0.36770  Biso   1.000  H
  C118     1.0000 0.25796  0.47807  0.33593  Biso   1.000  C
  H69      1.0000 0.23900  0.44310  0.31340  Biso   1.000  H
  C119     1.0000 0.30661  0.47896  0.33667  Biso   1.000  C
  C120     1.0000 0.33335  0.53203  0.36992  Biso   1.000  C
  H70      1.0000 0.36600  0.53390  0.37090  Biso   1.000  H
  C121     1.0000 0.31278  0.58268  0.40189  Biso   1.000  C
  H71      1.0000 0.33170  0.61770  0.42420  Biso   1.000  H
  O25      1.0000 0.31860  0.27047  0.10326  Biso   1.000  O
  O26      1.0000 0.25214  0.32499  0.10987  Biso   1.000  O
  O27      1.0000 0.19937  0.62651  0.44361  Biso   1.000  O
  O28      1.0000 0.26415  0.68633  0.45723  Biso   1.000  O
  O29      1.0000 0.60121  0.20403  0.43883  Biso   1.000  O
  O30      1.0000 0.61587  0.29612  0.49946  Biso   1.000  O
  C122     1.0000 0.51740  0.26500  0.34180  Biso   1.000  C
  H72      1.0000 0.53310  0.23580  0.31680  Biso   1.000  H
  C123     1.0000 0.47260  0.28830  0.30610  Biso   1.000  C
  H73      1.0000 0.45900  0.27510  0.25650  Biso   1.000  H
  C124     1.0000 0.46910  0.34500  0.41930  Biso   1.000  C
  H74      1.0000 0.45270  0.37050  0.44720  Biso   1.000  H
  C125     1.0000 0.51360  0.32190  0.45270  Biso   1.000  C
  H75      1.0000 0.52710  0.33160  0.50340  Biso   1.000  H
  Sm6      1.0000 0.81461  0.72064  0.98292  Biso   1.000  Sm
  C126     1.0000 0.08851  0.75958  0.45363  Biso   1.000  C
  C127     1.0000 0.03906  0.78454  0.41377  Biso   1.000  C
  C128     1.0000 0.00561  0.74420  0.37000  Biso   1.000  C
  H76      1.0000 0.01370  0.70090  0.36360  Biso   1.000  H
  C129     1.0000 0.95954  0.76670  0.33450  Biso   1.000  C
  H77      1.0000 0.93710  0.73780  0.30610  Biso   1.000  H
  C130     1.0000 0.94687  0.83057  0.34088  Biso   1.000  C
  C131     1.0000 0.98132  0.87290  0.38230  Biso   1.000  C
  H78      1.0000 0.97370  0.91670  0.38640  Biso   1.000  H
  C132     1.0000 0.02709  0.85040  0.41780  Biso   1.000  C
  H79      1.0000 0.05000  0.87950  0.44450  Biso   1.000  H
  C133     1.0000 0.79598  0.81040  0.13275  Biso   1.000  C
  C134     1.0000 0.82384  0.84368  0.20514  Biso   1.000  C
  C135     1.0000 0.87080  0.82445  0.23734  Biso   1.000  C
  H80      1.0000 0.88480  0.79150  0.21460  Biso   1.000  H
  C136     1.0000 0.89738  0.85391  0.30362  Biso   1.000  C
  C137     1.0000 0.87553  0.90408  0.33476  Biso   1.000  C
  H81      1.0000 0.89280  0.92440  0.37880  Biso   1.000  H
  C138     1.0000 0.82861  0.92496  0.30216  Biso   1.000  C
  C139     1.0000 0.80306  0.89310  0.23752  Biso   1.000  C
  H82      1.0000 0.77140  0.90530  0.21570  Biso   1.000  H
  C140     1.0000 0.74097  0.13485  0.43589  Biso   1.000  C
  C141     1.0000 0.76438  0.08122  0.40063  Biso   1.000  C
  C142     1.0000 0.73712  0.02808  0.36802  Biso   1.000  C
  H83      1.0000 0.70460  0.02600  0.36770  Biso   1.000  H
  C143     1.0000 0.75796  0.97807  0.33593  Biso   1.000  C
  H84      1.0000 0.73900  0.94310  0.31340  Biso   1.000  H
  C144     1.0000 0.80661  0.97896  0.33667  Biso   1.000  C
  C145     1.0000 0.83335  0.03203  0.36992  Biso   1.000  C
  H85      1.0000 0.86600  0.03390  0.37090  Biso   1.000  H
  C146     1.0000 0.81278  0.08268  0.40189  Biso   1.000  C
  H86      1.0000 0.83170  0.11770  0.42420  Biso   1.000  H
  O31      1.0000 0.81860  0.77047  0.10326  Biso   1.000  O
  O32      1.0000 0.75214  0.82499  0.10987  Biso   1.000  O
  O33      1.0000 0.69937  0.12651  0.44361  Biso   1.000  O
  O34      1.0000 0.76415  0.18633  0.45723  Biso   1.000  O
  O35      1.0000 0.10121  0.70403  0.43883  Biso   1.000  O
  O36      1.0000 0.11587  0.79612  0.49946  Biso   1.000  O
  C147     1.0000 0.01740  0.76500  0.34180  Biso   1.000  C
  H87      1.0000 0.03310  0.73580  0.31680  Biso   1.000  H
  C148     1.0000 0.97260  0.78830  0.30610  Biso   1.000  C
  H88      1.0000 0.95900  0.77510  0.25650  Biso   1.000  H
  C149     1.0000 0.96910  0.84500  0.41930  Biso   1.000  C
  H89      1.0000 0.95270  0.87050  0.44720  Biso   1.000  H
  C150     1.0000 0.01360  0.82190  0.45270  Biso   1.000  C
  H90      1.0000 0.02710  0.83160  0.50340  Biso   1.000  H
  Sm7      1.0000 0.68539  0.22064  0.51708  Biso   1.000  Sm
  C151     1.0000 0.41149  0.25958  0.04637  Biso   1.000  C
  C152     1.0000 0.46094  0.28454  0.08623  Biso   1.000  C
  C153     1.0000 0.49439  0.24420  0.13000  Biso   1.000  C
  H91      1.0000 0.48630  0.20090  0.13640  Biso   1.000  H
  C154     1.0000 0.54046  0.26670  0.16550  Biso   1.000  C
  H92      1.0000 0.56290  0.23780  0.19390  Biso   1.000  H
  C155     1.0000 0.55313  0.33057  0.15912  Biso   1.000  C
  C156     1.0000 0.51868  0.37290  0.11770  Biso   1.000  C
  H93      1.0000 0.52630  0.41670  0.11360  Biso   1.000  H
  C157     1.0000 0.47291  0.35040  0.08220  Biso   1.000  C
  H94      1.0000 0.45000  0.37950  0.05550  Biso   1.000  H
  C158     1.0000 0.70402  0.31040  0.36725  Biso   1.000  C
  C159     1.0000 0.67616  0.34368  0.29486  Biso   1.000  C
  C160     1.0000 0.62920  0.32445  0.26266  Biso   1.000  C
  H95      1.0000 0.61520  0.29150  0.28540  Biso   1.000  H
  C161     1.0000 0.60262  0.35391  0.19638  Biso   1.000  C
  C162     1.0000 0.62447  0.40408  0.16524  Biso   1.000  C
  H96      1.0000 0.60720  0.42440  0.12120  Biso   1.000  H
  C163     1.0000 0.67139  0.42496  0.19784  Biso   1.000  C
  C164     1.0000 0.69694  0.39310  0.26248  Biso   1.000  C
  H97      1.0000 0.72860  0.40530  0.28430  Biso   1.000  H
  C165     1.0000 0.75903  0.63485  0.06411  Biso   1.000  C
  C166     1.0000 0.73562  0.58122  0.09937  Biso   1.000  C
  C167     1.0000 0.76288  0.52808  0.13198  Biso   1.000  C
  H98      1.0000 0.79540  0.52600  0.13230  Biso   1.000  H
  C168     1.0000 0.74204  0.47807  0.16407  Biso   1.000  C
  H99      1.0000 0.76100  0.44310  0.18660  Biso   1.000  H
  C169     1.0000 0.69339  0.47896  0.16333  Biso   1.000  C
  C170     1.0000 0.66665  0.53203  0.13008  Biso   1.000  C
  H100     1.0000 0.63400  0.53390  0.12910  Biso   1.000  H
  C171     1.0000 0.68722  0.58268  0.09811  Biso   1.000  C
  H101     1.0000 0.66830  0.61770  0.07580  Biso   1.000  H
  O37      1.0000 0.68140  0.27047  0.39674  Biso   1.000  O
  O38      1.0000 0.74786  0.32499  0.39013  Biso   1.000  O
  O39      1.0000 0.80063  0.62651  0.05639  Biso   1.000  O
  O40      1.0000 0.73585  0.68633  0.04277  Biso   1.000  O
  O41      1.0000 0.39879  0.20403  0.06117  Biso   1.000  O
  O42      1.0000 0.38413  0.29612  0.00054  Biso   1.000  O
  C172     1.0000 0.48260  0.26500  0.15820  Biso   1.000  C
  H102     1.0000 0.46690  0.23580  0.18320  Biso   1.000  H
  C173     1.0000 0.52740  0.28830  0.19390  Biso   1.000  C
  H103     1.0000 0.54100  0.27510  0.24350  Biso   1.000  H
  C174     1.0000 0.53090  0.34500  0.08070  Biso   1.000  C
  H104     1.0000 0.54730  0.37050  0.05280  Biso   1.000  H
  C175     1.0000 0.48640  0.32190  0.04730  Biso   1.000  C
  H105     1.0000 0.47290  0.33160  0.99660  Biso   1.000  H
  Sm8      1.0000 0.18539  0.72064  0.51708  Biso   1.000  Sm
  C176     1.0000 0.91149  0.75958  0.04637  Biso   1.000  C
  C177     1.0000 0.96094  0.78454  0.08623  Biso   1.000  C
  C178     1.0000 0.99439  0.74420  0.13000  Biso   1.000  C
  H106     1.0000 0.98630  0.70090  0.13640  Biso   1.000  H
  C179     1.0000 0.04046  0.76670  0.16550  Biso   1.000  C
  H107     1.0000 0.06290  0.73780  0.19390  Biso   1.000  H
  C180     1.0000 0.05313  0.83057  0.15912  Biso   1.000  C
  C181     1.0000 0.01868  0.87290  0.11770  Biso   1.000  C
  H108     1.0000 0.02630  0.91670  0.11360  Biso   1.000  H
  C182     1.0000 0.97291  0.85040  0.08220  Biso   1.000  C
  H109     1.0000 0.95000  0.87950  0.05550  Biso   1.000  H
  C183     1.0000 0.20402  0.81040  0.36725  Biso   1.000  C
  C184     1.0000 0.17616  0.84368  0.29486  Biso   1.000  C
  C185     1.0000 0.12920  0.82445  0.26266  Biso   1.000  C
  H110     1.0000 0.11520  0.79150  0.28540  Biso   1.000  H
  C186     1.0000 0.10262  0.85391  0.19638  Biso   1.000  C
  C187     1.0000 0.12447  0.90408  0.16524  Biso   1.000  C
  H111     1.0000 0.10720  0.92440  0.12120  Biso   1.000  H
  C188     1.0000 0.17139  0.92496  0.19784  Biso   1.000  C
  C189     1.0000 0.19694  0.89310  0.26248  Biso   1.000  C
  H112     1.0000 0.22860  0.90530  0.28430  Biso   1.000  H
  C190     1.0000 0.25903  0.13485  0.06411  Biso   1.000  C
  C191     1.0000 0.23562  0.08122  0.09937  Biso   1.000  C
  C192     1.0000 0.26288  0.02808  0.13198  Biso   1.000  C
  H113     1.0000 0.29540  0.02600  0.13230  Biso   1.000  H
  C193     1.0000 0.24204  0.97807  0.16407  Biso   1.000  C
  H114     1.0000 0.26100  0.94310  0.18660  Biso   1.000  H
  C194     1.0000 0.19339  0.97896  0.16333  Biso   1.000  C
  C195     1.0000 0.16665  0.03203  0.13008  Biso   1.000  C
  H115     1.0000 0.13400  0.03390  0.12910  Biso   1.000  H
  C196     1.0000 0.18722  0.08268  0.09811  Biso   1.000  C
  H116     1.0000 0.16830  0.11770  0.07580  Biso   1.000  H
  O43      1.0000 0.18140  0.77047  0.39674  Biso   1.000  O
  O44      1.0000 0.24786  0.82499  0.39013  Biso   1.000  O
  O45      1.0000 0.30063  0.12651  0.05639  Biso   1.000  O
  O46      1.0000 0.23585  0.18633  0.04277  Biso   1.000  O
  O47      1.0000 0.89879  0.70403  0.06117  Biso   1.000  O
  O48      1.0000 0.88413  0.79612  0.00054  Biso   1.000  O
  C197     1.0000 0.98260  0.76500  0.15820  Biso   1.000  C
  H117     1.0000 0.96690  0.73580  0.18320  Biso   1.000  H
  C198     1.0000 0.02740  0.78830  0.19390  Biso   1.000  C
  H118     1.0000 0.04100  0.77510  0.24350  Biso   1.000  H
  C199     1.0000 0.03090  0.84500  0.08070  Biso   1.000  C
  H119     1.0000 0.04730  0.87050  0.05280  Biso   1.000  H
  C200     1.0000 0.98640  0.82190  0.04730  Biso   1.000  C
  H120     1.0000 0.97290  0.83160  0.99660  Biso   1.000  H
