data_image0
_cell_length_a       28.526
_cell_length_b       20.41
_cell_length_c       18.118
_cell_angle_alpha    90
_cell_angle_beta     104.134
_cell_angle_gamma    90

_symmetry_space_group_name_H-M    "P 1"
_symmetry_int_tables_number       1

loop_
  _symmetry_equiv_pos_as_xyz
  'x, y, z'

loop_
  _atom_site_label
  _atom_site_occupancy
  _atom_site_fract_x
  _atom_site_fract_y
  _atom_site_fract_z
  _atom_site_thermal_displace_type
  _atom_site_B_iso_or_equiv
  _atom_site_type_symbol
  Gd1      1.0000 0.68541  0.27991  0.01658  Biso   1.000  Gd
  O1       1.0000 0.68168  0.23080  0.89714  Biso   1.000  O
  O2       1.0000 0.74816  0.17516  0.89149  Biso   1.000  O
  O3       1.0000 0.79984  0.87249  0.55612  Biso   1.000  O
  O4       1.0000 0.73457  0.81241  0.54326  Biso   1.000  O
  O5       1.0000 0.38347  0.20519  0.50087  Biso   1.000  O
  O6       1.0000 0.39829  0.29685  0.56118  Biso   1.000  O
  C1       1.0000 0.70445  0.19050  0.86814  Biso   1.000  C
  C2       1.0000 0.67643  0.15663  0.79536  Biso   1.000  C
  C3       1.0000 0.69700  0.10703  0.76388  Biso   1.000  C
  H1       1.0000 0.72860  0.09450  0.78620  Biso   1.000  H
  C4       1.0000 0.67127  0.07479  0.69858  Biso   1.000  C
  C5       1.0000 0.69254  0.02041  0.66434  Biso   1.000  C
  C6       1.0000 0.74216  0.02148  0.66427  Biso   1.000  C
  H2       1.0000 0.76120  0.05670  0.68630  Biso   1.000  H
  C7       1.0000 0.76255  0.97164  0.63235  Biso   1.000  C
  H3       1.0000 0.79520  0.97360  0.63270  Biso   1.000  H
  C8       1.0000 0.73506  0.91807  0.59933  Biso   1.000  C
  C9       1.0000 0.75790  0.86421  0.56428  Biso   1.000  C
  C10      1.0000 0.68613  0.91707  0.59985  Biso   1.000  C
  H4       1.0000 0.66700  0.88190  0.57790  Biso   1.000  H
  C11      1.0000 0.66604  0.96685  0.63201  Biso   1.000  C
  H5       1.0000 0.63350  0.96450  0.63210  Biso   1.000  H
  C12      1.0000 0.62445  0.09609  0.66542  Biso   1.000  C
  H6       1.0000 0.60730  0.07610  0.62090  Biso   1.000  H
  C13      1.0000 0.60254  0.14633  0.69674  Biso   1.000  C
  C14      1.0000 0.62915  0.17592  0.76357  Biso   1.000  C
  H7       1.0000 0.61510  0.20860  0.78680  Biso   1.000  H
  C15      1.0000 0.51850  0.12770  0.61460  Biso   1.000  C
  H8       1.0000 0.52630  0.08410  0.60850  Biso   1.000  H
  C16      1.0000 0.47347  0.15190  0.58030  Biso   1.000  C
  H9       1.0000 0.45060  0.12340  0.55210  Biso   1.000  H
  C17      1.0000 0.49460  0.25850  0.62750  Biso   1.000  C
  H10      1.0000 0.48690  0.30250  0.63120  Biso   1.000  H
  C18      1.0000 0.54140  0.23560  0.66490  Biso   1.000  C
  H11      1.0000 0.56420  0.26430  0.69290  Biso   1.000  H
  C19      1.0000 0.46075  0.21642  0.58604  Biso   1.000  C
  C20      1.0000 0.55274  0.17095  0.65937  Biso   1.000  C
  C21      1.0000 0.41090  0.24210  0.54705  Biso   1.000  C
  C22      1.0000 0.53080  0.15980  0.58080  Biso   1.000  C
  H12      1.0000 0.54770  0.13480  0.55290  Biso   1.000  H
  C23      1.0000 0.48840  0.18270  0.54550  Biso   1.000  C
  H13      1.0000 0.47690  0.17630  0.49340  Biso   1.000  H
  C24      1.0000 0.48420  0.23900  0.65630  Biso   1.000  C
  H14      1.0000 0.46970  0.27060  0.68050  Biso   1.000  H
  C25      1.0000 0.52840  0.21540  0.69070  Biso   1.000  C
  H15      1.0000 0.54310  0.23090  0.73920  Biso   1.000  H
  Gd2      1.0000 0.18541  0.77991  0.01658  Biso   1.000  Gd
  O7       1.0000 0.18168  0.73080  0.89714  Biso   1.000  O
  O8       1.0000 0.24816  0.67516  0.89149  Biso   1.000  O
  O9       1.0000 0.29984  0.37249  0.55612  Biso   1.000  O
  O10      1.0000 0.23457  0.31241  0.54326  Biso   1.000  O
  O11      1.0000 0.88347  0.70519  0.50087  Biso   1.000  O
  O12      1.0000 0.89829  0.79685  0.56118  Biso   1.000  O
  C26      1.0000 0.20445  0.69050  0.86814  Biso   1.000  C
  C27      1.0000 0.17643  0.65663  0.79536  Biso   1.000  C
  C28      1.0000 0.19700  0.60703  0.76388  Biso   1.000  C
  H16      1.0000 0.22860  0.59450  0.78620  Biso   1.000  H
  C29      1.0000 0.17127  0.57479  0.69858  Biso   1.000  C
  C30      1.0000 0.19254  0.52041  0.66434  Biso   1.000  C
  C31      1.0000 0.24216  0.52148  0.66427  Biso   1.000  C
  H17      1.0000 0.26120  0.55670  0.68630  Biso   1.000  H
  C32      1.0000 0.26255  0.47164  0.63235  Biso   1.000  C
  H18      1.0000 0.29520  0.47360  0.63270  Biso   1.000  H
  C33      1.0000 0.23506  0.41807  0.59933  Biso   1.000  C
  C34      1.0000 0.25790  0.36421  0.56428  Biso   1.000  C
  C35      1.0000 0.18613  0.41707  0.59985  Biso   1.000  C
  H19      1.0000 0.16700  0.38190  0.57790  Biso   1.000  H
  C36      1.0000 0.16604  0.46685  0.63201  Biso   1.000  C
  H20      1.0000 0.13350  0.46450  0.63210  Biso   1.000  H
  C37      1.0000 0.12445  0.59609  0.66542  Biso   1.000  C
  H21      1.0000 0.10730  0.57610  0.62090  Biso   1.000  H
  C38      1.0000 0.10254  0.64633  0.69674  Biso   1.000  C
  C39      1.0000 0.12915  0.67592  0.76357  Biso   1.000  C
  H22      1.0000 0.11510  0.70860  0.78680  Biso   1.000  H
  C40      1.0000 0.01850  0.62770  0.61460  Biso   1.000  C
  H23      1.0000 0.02630  0.58410  0.60850  Biso   1.000  H
  C41      1.0000 0.97347  0.65190  0.58030  Biso   1.000  C
  H24      1.0000 0.95060  0.62340  0.55210  Biso   1.000  H
  C42      1.0000 0.99460  0.75850  0.62750  Biso   1.000  C
  H25      1.0000 0.98690  0.80250  0.63120  Biso   1.000  H
  C43      1.0000 0.04140  0.73560  0.66490  Biso   1.000  C
  H26      1.0000 0.06420  0.76430  0.69290  Biso   1.000  H
  C44      1.0000 0.96075  0.71642  0.58604  Biso   1.000  C
  C45      1.0000 0.05274  0.67095  0.65937  Biso   1.000  C
  C46      1.0000 0.91090  0.74210  0.54705  Biso   1.000  C
  C47      1.0000 0.03080  0.65980  0.58080  Biso   1.000  C
  H27      1.0000 0.04770  0.63480  0.55290  Biso   1.000  H
  C48      1.0000 0.98840  0.68270  0.54550  Biso   1.000  C
  H28      1.0000 0.97690  0.67630  0.49340  Biso   1.000  H
  C49      1.0000 0.98420  0.73900  0.65630  Biso   1.000  C
  H29      1.0000 0.96970  0.77060  0.68050  Biso   1.000  H
  C50      1.0000 0.02840  0.71540  0.69070  Biso   1.000  C
  H30      1.0000 0.04310  0.73090  0.73920  Biso   1.000  H
  Gd3      1.0000 0.31459  0.27991  0.48342  Biso   1.000  Gd
  O13      1.0000 0.31832  0.23080  0.60286  Biso   1.000  O
  O14      1.0000 0.25184  0.17516  0.60851  Biso   1.000  O
  O15      1.0000 0.20016  0.87249  0.94388  Biso   1.000  O
  O16      1.0000 0.26543  0.81241  0.95674  Biso   1.000  O
  O17      1.0000 0.61653  0.20519  0.99913  Biso   1.000  O
  O18      1.0000 0.60171  0.29685  0.93882  Biso   1.000  O
  C51      1.0000 0.29555  0.19050  0.63186  Biso   1.000  C
  C52      1.0000 0.32357  0.15663  0.70464  Biso   1.000  C
  C53      1.0000 0.30300  0.10703  0.73612  Biso   1.000  C
  H31      1.0000 0.27140  0.09450  0.71380  Biso   1.000  H
  C54      1.0000 0.32873  0.07479  0.80142  Biso   1.000  C
  C55      1.0000 0.30746  0.02041  0.83566  Biso   1.000  C
  C56      1.0000 0.25784  0.02148  0.83573  Biso   1.000  C
  H32      1.0000 0.23880  0.05670  0.81370  Biso   1.000  H
  C57      1.0000 0.23745  0.97164  0.86765  Biso   1.000  C
  H33      1.0000 0.20480  0.97360  0.86730  Biso   1.000  H
  C58      1.0000 0.26494  0.91807  0.90067  Biso   1.000  C
  C59      1.0000 0.24210  0.86421  0.93572  Biso   1.000  C
  C60      1.0000 0.31387  0.91707  0.90015  Biso   1.000  C
  H34      1.0000 0.33300  0.88190  0.92210  Biso   1.000  H
  C61      1.0000 0.33396  0.96685  0.86799  Biso   1.000  C
  H35      1.0000 0.36650  0.96450  0.86790  Biso   1.000  H
  C62      1.0000 0.37555  0.09609  0.83458  Biso   1.000  C
  H36      1.0000 0.39270  0.07610  0.87910  Biso   1.000  H
  C63      1.0000 0.39746  0.14633  0.80326  Biso   1.000  C
  C64      1.0000 0.37085  0.17592  0.73643  Biso   1.000  C
  H37      1.0000 0.38490  0.20860  0.71320  Biso   1.000  H
  C65      1.0000 0.48150  0.12770  0.88540  Biso   1.000  C
  H38      1.0000 0.47370  0.08410  0.89150  Biso   1.000  H
  C66      1.0000 0.52653  0.15190  0.91970  Biso   1.000  C
  H39      1.0000 0.54940  0.12340  0.94790  Biso   1.000  H
  C67      1.0000 0.50540  0.25850  0.87250  Biso   1.000  C
  H40      1.0000 0.51310  0.30250  0.86880  Biso   1.000  H
  C68      1.0000 0.45860  0.23560  0.83510  Biso   1.000  C
  H41      1.0000 0.43580  0.26430  0.80710  Biso   1.000  H
  C69      1.0000 0.53925  0.21642  0.91396  Biso   1.000  C
  C70      1.0000 0.44726  0.17095  0.84063  Biso   1.000  C
  C71      1.0000 0.58910  0.24210  0.95295  Biso   1.000  C
  C72      1.0000 0.46920  0.15980  0.91920  Biso   1.000  C
  H42      1.0000 0.45230  0.13480  0.94710  Biso   1.000  H
  C73      1.0000 0.51160  0.18270  0.95450  Biso   1.000  C
  H43      1.0000 0.52310  0.17630  0.00660  Biso   1.000  H
  C74      1.0000 0.51580  0.23900  0.84370  Biso   1.000  C
  H44      1.0000 0.53030  0.27060  0.81950  Biso   1.000  H
  C75      1.0000 0.47160  0.21540  0.80930  Biso   1.000  C
  H45      1.0000 0.45690  0.23090  0.76080  Biso   1.000  H
  Gd4      1.0000 0.81459  0.77991  0.48342  Biso   1.000  Gd
  O19      1.0000 0.81832  0.73080  0.60286  Biso   1.000  O
  O20      1.0000 0.75184  0.67516  0.60851  Biso   1.000  O
  O21      1.0000 0.70016  0.37249  0.94388  Biso   1.000  O
  O22      1.0000 0.76543  0.31241  0.95674  Biso   1.000  O
  O23      1.0000 0.11653  0.70519  0.99913  Biso   1.000  O
  O24      1.0000 0.10171  0.79685  0.93882  Biso   1.000  O
  C76      1.0000 0.79555  0.69050  0.63186  Biso   1.000  C
  C77      1.0000 0.82357  0.65663  0.70464  Biso   1.000  C
  C78      1.0000 0.80300  0.60703  0.73612  Biso   1.000  C
  H46      1.0000 0.77140  0.59450  0.71380  Biso   1.000  H
  C79      1.0000 0.82873  0.57479  0.80142  Biso   1.000  C
  C80      1.0000 0.80746  0.52041  0.83566  Biso   1.000  C
  C81      1.0000 0.75784  0.52148  0.83573  Biso   1.000  C
  H47      1.0000 0.73880  0.55670  0.81370  Biso   1.000  H
  C82      1.0000 0.73745  0.47164  0.86765  Biso   1.000  C
  H48      1.0000 0.70480  0.47360  0.86730  Biso   1.000  H
  C83      1.0000 0.76494  0.41807  0.90067  Biso   1.000  C
  C84      1.0000 0.74210  0.36421  0.93572  Biso   1.000  C
  C85      1.0000 0.81387  0.41707  0.90015  Biso   1.000  C
  H49      1.0000 0.83300  0.38190  0.92210  Biso   1.000  H
  C86      1.0000 0.83396  0.46685  0.86799  Biso   1.000  C
  H50      1.0000 0.86650  0.46450  0.86790  Biso   1.000  H
  C87      1.0000 0.87555  0.59609  0.83458  Biso   1.000  C
  H51      1.0000 0.89270  0.57610  0.87910  Biso   1.000  H
  C88      1.0000 0.89746  0.64633  0.80326  Biso   1.000  C
  C89      1.0000 0.87085  0.67592  0.73643  Biso   1.000  C
  H52      1.0000 0.88490  0.70860  0.71320  Biso   1.000  H
  C90      1.0000 0.98150  0.62770  0.88540  Biso   1.000  C
  H53      1.0000 0.97370  0.58410  0.89150  Biso   1.000  H
  C91      1.0000 0.02653  0.65190  0.91970  Biso   1.000  C
  H54      1.0000 0.04940  0.62340  0.94790  Biso   1.000  H
  C92      1.0000 0.00540  0.75850  0.87250  Biso   1.000  C
  H55      1.0000 0.01310  0.80250  0.86880  Biso   1.000  H
  C93      1.0000 0.95860  0.73560  0.83510  Biso   1.000  C
  H56      1.0000 0.93580  0.76430  0.80710  Biso   1.000  H
  C94      1.0000 0.03925  0.71642  0.91396  Biso   1.000  C
  C95      1.0000 0.94726  0.67095  0.84063  Biso   1.000  C
  C96      1.0000 0.08910  0.74210  0.95295  Biso   1.000  C
  C97      1.0000 0.96920  0.65980  0.91920  Biso   1.000  C
  H57      1.0000 0.95230  0.63480  0.94710  Biso   1.000  H
  C98      1.0000 0.01160  0.68270  0.95450  Biso   1.000  C
  H58      1.0000 0.02310  0.67630  0.00660  Biso   1.000  H
  C99      1.0000 0.01580  0.73900  0.84370  Biso   1.000  C
  H59      1.0000 0.03030  0.77060  0.81950  Biso   1.000  H
  C100     1.0000 0.97160  0.71540  0.80930  Biso   1.000  C
  H60      1.0000 0.95690  0.73090  0.76080  Biso   1.000  H
  Gd5      1.0000 0.31459  0.72009  0.98342  Biso   1.000  Gd
  O25      1.0000 0.31832  0.76920  0.10286  Biso   1.000  O
  O26      1.0000 0.25184  0.82484  0.10851  Biso   1.000  O
  O27      1.0000 0.20016  0.12751  0.44388  Biso   1.000  O
  O28      1.0000 0.26543  0.18759  0.45674  Biso   1.000  O
  O29      1.0000 0.61653  0.79481  0.49913  Biso   1.000  O
  O30      1.0000 0.60171  0.70315  0.43882  Biso   1.000  O
  C101     1.0000 0.29555  0.80950  0.13186  Biso   1.000  C
  C102     1.0000 0.32357  0.84337  0.20464  Biso   1.000  C
  C103     1.0000 0.30300  0.89297  0.23612  Biso   1.000  C
  H61      1.0000 0.27140  0.90550  0.21380  Biso   1.000  H
  C104     1.0000 0.32873  0.92521  0.30142  Biso   1.000  C
  C105     1.0000 0.30746  0.97959  0.33566  Biso   1.000  C
  C106     1.0000 0.25784  0.97852  0.33573  Biso   1.000  C
  H62      1.0000 0.23880  0.94330  0.31370  Biso   1.000  H
  C107     1.0000 0.23745  0.02836  0.36765  Biso   1.000  C
  H63      1.0000 0.20480  0.02640  0.36730  Biso   1.000  H
  C108     1.0000 0.26494  0.08193  0.40067  Biso   1.000  C
  C109     1.0000 0.24210  0.13579  0.43572  Biso   1.000  C
  C110     1.0000 0.31387  0.08293  0.40015  Biso   1.000  C
  H64      1.0000 0.33300  0.11810  0.42210  Biso   1.000  H
  C111     1.0000 0.33396  0.03315  0.36799  Biso   1.000  C
  H65      1.0000 0.36650  0.03550  0.36790  Biso   1.000  H
  C112     1.0000 0.37555  0.90391  0.33458  Biso   1.000  C
  H66      1.0000 0.39270  0.92390  0.37910  Biso   1.000  H
  C113     1.0000 0.39746  0.85367  0.30326  Biso   1.000  C
  C114     1.0000 0.37085  0.82408  0.23643  Biso   1.000  C
  H67      1.0000 0.38490  0.79140  0.21320  Biso   1.000  H
  C115     1.0000 0.48150  0.87230  0.38540  Biso   1.000  C
  H68      1.0000 0.47370  0.91590  0.39150  Biso   1.000  H
  C116     1.0000 0.52653  0.84810  0.41970  Biso   1.000  C
  H69      1.0000 0.54940  0.87660  0.44790  Biso   1.000  H
  C117     1.0000 0.50540  0.74150  0.37250  Biso   1.000  C
  H70      1.0000 0.51310  0.69750  0.36880  Biso   1.000  H
  C118     1.0000 0.45860  0.76440  0.33510  Biso   1.000  C
  H71      1.0000 0.43580  0.73570  0.30710  Biso   1.000  H
  C119     1.0000 0.53925  0.78358  0.41396  Biso   1.000  C
  C120     1.0000 0.44726  0.82905  0.34063  Biso   1.000  C
  C121     1.0000 0.58910  0.75790  0.45295  Biso   1.000  C
  C122     1.0000 0.46920  0.84020  0.41920  Biso   1.000  C
  H72      1.0000 0.45230  0.86520  0.44710  Biso   1.000  H
  C123     1.0000 0.51160  0.81730  0.45450  Biso   1.000  C
  H73      1.0000 0.52310  0.82370  0.50660  Biso   1.000  H
  C124     1.0000 0.51580  0.76100  0.34370  Biso   1.000  C
  H74      1.0000 0.53030  0.72940  0.31950  Biso   1.000  H
  C125     1.0000 0.47160  0.78460  0.30930  Biso   1.000  C
  H75      1.0000 0.45690  0.76910  0.26080  Biso   1.000  H
  Gd6      1.0000 0.81459  0.22009  0.98342  Biso   1.000  Gd
  O31      1.0000 0.81832  0.26920  0.10286  Biso   1.000  O
  O32      1.0000 0.75184  0.32484  0.10851  Biso   1.000  O
  O33      1.0000 0.70016  0.62751  0.44388  Biso   1.000  O
  O34      1.0000 0.76543  0.68759  0.45674  Biso   1.000  O
  O35      1.0000 0.11653  0.29481  0.49913  Biso   1.000  O
  O36      1.0000 0.10171  0.20315  0.43882  Biso   1.000  O
  C126     1.0000 0.79555  0.30950  0.13186  Biso   1.000  C
  C127     1.0000 0.82357  0.34337  0.20464  Biso   1.000  C
  C128     1.0000 0.80300  0.39297  0.23612  Biso   1.000  C
  H76      1.0000 0.77140  0.40550  0.21380  Biso   1.000  H
  C129     1.0000 0.82873  0.42521  0.30142  Biso   1.000  C
  C130     1.0000 0.80746  0.47959  0.33566  Biso   1.000  C
  C131     1.0000 0.75784  0.47852  0.33573  Biso   1.000  C
  H77      1.0000 0.73880  0.44330  0.31370  Biso   1.000  H
  C132     1.0000 0.73745  0.52836  0.36765  Biso   1.000  C
  H78      1.0000 0.70480  0.52640  0.36730  Biso   1.000  H
  C133     1.0000 0.76494  0.58193  0.40067  Biso   1.000  C
  C134     1.0000 0.74210  0.63579  0.43572  Biso   1.000  C
  C135     1.0000 0.81387  0.58293  0.40015  Biso   1.000  C
  H79      1.0000 0.83300  0.61810  0.42210  Biso   1.000  H
  C136     1.0000 0.83396  0.53315  0.36799  Biso   1.000  C
  H80      1.0000 0.86650  0.53550  0.36790  Biso   1.000  H
  C137     1.0000 0.87555  0.40391  0.33458  Biso   1.000  C
  H81      1.0000 0.89270  0.42390  0.37910  Biso   1.000  H
  C138     1.0000 0.89746  0.35367  0.30326  Biso   1.000  C
  C139     1.0000 0.87085  0.32408  0.23643  Biso   1.000  C
  H82      1.0000 0.88490  0.29140  0.21320  Biso   1.000  H
  C140     1.0000 0.98150  0.37230  0.38540  Biso   1.000  C
  H83      1.0000 0.97370  0.41590  0.39150  Biso   1.000  H
  C141     1.0000 0.02653  0.34810  0.41970  Biso   1.000  C
  H84      1.0000 0.04940  0.37660  0.44790  Biso   1.000  H
  C142     1.0000 0.00540  0.24150  0.37250  Biso   1.000  C
  H85      1.0000 0.01310  0.19750  0.36880  Biso   1.000  H
  C143     1.0000 0.95860  0.26440  0.33510  Biso   1.000  C
  H86      1.0000 0.93580  0.23570  0.30710  Biso   1.000  H
  C144     1.0000 0.03925  0.28358  0.41396  Biso   1.000  C
  C145     1.0000 0.94726  0.32905  0.34063  Biso   1.000  C
  C146     1.0000 0.08910  0.25790  0.45295  Biso   1.000  C
  C147     1.0000 0.96920  0.34020  0.41920  Biso   1.000  C
  H87      1.0000 0.95230  0.36520  0.44710  Biso   1.000  H
  C148     1.0000 0.01160  0.31730  0.45450  Biso   1.000  C
  H88      1.0000 0.02310  0.32370  0.50660  Biso   1.000  H
  C149     1.0000 0.01580  0.26100  0.34370  Biso   1.000  C
  H89      1.0000 0.03030  0.22940  0.31950  Biso   1.000  H
  C150     1.0000 0.97160  0.28460  0.30930  Biso   1.000  C
  H90      1.0000 0.95690  0.26910  0.26080  Biso   1.000  H
  Gd7      1.0000 0.68541  0.72009  0.51658  Biso   1.000  Gd
  O37      1.0000 0.68168  0.76920  0.39714  Biso   1.000  O
  O38      1.0000 0.74816  0.82484  0.39149  Biso   1.000  O
  O39      1.0000 0.79984  0.12751  0.05612  Biso   1.000  O
  O40      1.0000 0.73457  0.18759  0.04326  Biso   1.000  O
  O41      1.0000 0.38347  0.79481  0.00087  Biso   1.000  O
  O42      1.0000 0.39829  0.70315  0.06118  Biso   1.000  O
  C151     1.0000 0.70445  0.80950  0.36814  Biso   1.000  C
  C152     1.0000 0.67643  0.84337  0.29536  Biso   1.000  C
  C153     1.0000 0.69700  0.89297  0.26388  Biso   1.000  C
  H91      1.0000 0.72860  0.90550  0.28620  Biso   1.000  H
  C154     1.0000 0.67127  0.92521  0.19858  Biso   1.000  C
  C155     1.0000 0.69254  0.97959  0.16434  Biso   1.000  C
  C156     1.0000 0.74216  0.97852  0.16427  Biso   1.000  C
  H92      1.0000 0.76120  0.94330  0.18630  Biso   1.000  H
  C157     1.0000 0.76255  0.02836  0.13235  Biso   1.000  C
  H93      1.0000 0.79520  0.02640  0.13270  Biso   1.000  H
  C158     1.0000 0.73506  0.08193  0.09933  Biso   1.000  C
  C159     1.0000 0.75790  0.13579  0.06428  Biso   1.000  C
  C160     1.0000 0.68613  0.08293  0.09985  Biso   1.000  C
  H94      1.0000 0.66700  0.11810  0.07790  Biso   1.000  H
  C161     1.0000 0.66604  0.03315  0.13201  Biso   1.000  C
  H95      1.0000 0.63350  0.03550  0.13210  Biso   1.000  H
  C162     1.0000 0.62445  0.90391  0.16542  Biso   1.000  C
  H96      1.0000 0.60730  0.92390  0.12090  Biso   1.000  H
  C163     1.0000 0.60254  0.85367  0.19674  Biso   1.000  C
  C164     1.0000 0.62915  0.82408  0.26357  Biso   1.000  C
  H97      1.0000 0.61510  0.79140  0.28680  Biso   1.000  H
  C165     1.0000 0.51850  0.87230  0.11460  Biso   1.000  C
  H98      1.0000 0.52630  0.91590  0.10850  Biso   1.000  H
  C166     1.0000 0.47347  0.84810  0.08030  Biso   1.000  C
  H99      1.0000 0.45060  0.87660  0.05210  Biso   1.000  H
  C167     1.0000 0.49460  0.74150  0.12750  Biso   1.000  C
  H100     1.0000 0.48690  0.69750  0.13120  Biso   1.000  H
  C168     1.0000 0.54140  0.76440  0.16490  Biso   1.000  C
  H101     1.0000 0.56420  0.73570  0.19290  Biso   1.000  H
  C169     1.0000 0.46075  0.78358  0.08604  Biso   1.000  C
  C170     1.0000 0.55274  0.82905  0.15937  Biso   1.000  C
  C171     1.0000 0.41090  0.75790  0.04705  Biso   1.000  C
  C172     1.0000 0.53080  0.84020  0.08080  Biso   1.000  C
  H102     1.0000 0.54770  0.86520  0.05290  Biso   1.000  H
  C173     1.0000 0.48840  0.81730  0.04550  Biso   1.000  C
  H103     1.0000 0.47690  0.82370  0.99340  Biso   1.000  H
  C174     1.0000 0.48420  0.76100  0.15630  Biso   1.000  C
  H104     1.0000 0.46970  0.72940  0.18050  Biso   1.000  H
  C175     1.0000 0.52840  0.78460  0.19070  Biso   1.000  C
  H105     1.0000 0.54310  0.76910  0.23920  Biso   1.000  H
  Gd8      1.0000 0.18541  0.22009  0.51658  Biso   1.000  Gd
  O43      1.0000 0.18168  0.26920  0.39714  Biso   1.000  O
  O44      1.0000 0.24816  0.32484  0.39149  Biso   1.000  O
  O45      1.0000 0.29984  0.62751  0.05612  Biso   1.000  O
  O46      1.0000 0.23457  0.68759  0.04326  Biso   1.000  O
  O47      1.0000 0.88347  0.29481  0.00087  Biso   1.000  O
  O48      1.0000 0.89829  0.20315  0.06118  Biso   1.000  O
  C176     1.0000 0.20445  0.30950  0.36814  Biso   1.000  C
  C177     1.0000 0.17643  0.34337  0.29536  Biso   1.000  C
  C178     1.0000 0.19700  0.39297  0.26388  Biso   1.000  C
  H106     1.0000 0.22860  0.40550  0.28620  Biso   1.000  H
  C179     1.0000 0.17127  0.42521  0.19858  Biso   1.000  C
  C180     1.0000 0.19254  0.47959  0.16434  Biso   1.000  C
  C181     1.0000 0.24216  0.47852  0.16427  Biso   1.000  C
  H107     1.0000 0.26120  0.44330  0.18630  Biso   1.000  H
  C182     1.0000 0.26255  0.52836  0.13235  Biso   1.000  C
  H108     1.0000 0.29520  0.52640  0.13270  Biso   1.000  H
  C183     1.0000 0.23506  0.58193  0.09933  Biso   1.000  C
  C184     1.0000 0.25790  0.63579  0.06428  Biso   1.000  C
  C185     1.0000 0.18613  0.58293  0.09985  Biso   1.000  C
  H109     1.0000 0.16700  0.61810  0.07790  Biso   1.000  H
  C186     1.0000 0.16604  0.53315  0.13201  Biso   1.000  C
  H110     1.0000 0.13350  0.53550  0.13210  Biso   1.000  H
  C187     1.0000 0.12445  0.40391  0.16542  Biso   1.000  C
  H111     1.0000 0.10730  0.42390  0.12090  Biso   1.000  H
  C188     1.0000 0.10254  0.35367  0.19674  Biso   1.000  C
  C189     1.0000 0.12915  0.32408  0.26357  Biso   1.000  C
  H112     1.0000 0.11510  0.29140  0.28680  Biso   1.000  H
  C190     1.0000 0.01850  0.37230  0.11460  Biso   1.000  C
  H113     1.0000 0.02630  0.41590  0.10850  Biso   1.000  H
  C191     1.0000 0.97347  0.34810  0.08030  Biso   1.000  C
  H114     1.0000 0.95060  0.37660  0.05210  Biso   1.000  H
  C192     1.0000 0.99460  0.24150  0.12750  Biso   1.000  C
  H115     1.0000 0.98690  0.19750  0.13120  Biso   1.000  H
  C193     1.0000 0.04140  0.26440  0.16490  Biso   1.000  C
  H116     1.0000 0.06420  0.23570  0.19290  Biso   1.000  H
  C194     1.0000 0.96075  0.28358  0.08604  Biso   1.000  C
  C195     1.0000 0.05274  0.32905  0.15937  Biso   1.000  C
  C196     1.0000 0.91090  0.25790  0.04705  Biso   1.000  C
  C197     1.0000 0.03080  0.34020  0.08080  Biso   1.000  C
  H117     1.0000 0.04770  0.36520  0.05290  Biso   1.000  H
  C198     1.0000 0.98840  0.31730  0.04550  Biso   1.000  C
  H118     1.0000 0.97690  0.32370  0.99340  Biso   1.000  H
  C199     1.0000 0.98420  0.26100  0.15630  Biso   1.000  C
  H119     1.0000 0.96970  0.22940  0.18050  Biso   1.000  H
  C200     1.0000 0.02840  0.28460  0.19070  Biso   1.000  C
  H120     1.0000 0.04310  0.26910  0.23920  Biso   1.000  H
