data_image0
_cell_length_a       26.238
_cell_length_b       14.1876
_cell_length_c       16.8586
_cell_angle_alpha    90
_cell_angle_beta     98.014
_cell_angle_gamma    90

_symmetry_space_group_name_H-M    "P 1"
_symmetry_int_tables_number       1

loop_
  _symmetry_equiv_pos_as_xyz
  'x, y, z'

loop_
  _atom_site_label
  _atom_site_occupancy
  _atom_site_fract_x
  _atom_site_fract_y
  _atom_site_fract_z
  _atom_site_thermal_displace_type
  _atom_site_B_iso_or_equiv
  _atom_site_type_symbol
  C1       1.0000 0.66110  0.88390  0.30760  Biso   1.000  C
  C2       1.0000 0.60680  0.91310  0.31860  Biso   1.000  C
  C3       1.0000 0.58690  0.88100  0.38200  Biso   1.000  C
  C4       1.0000 0.51080  0.97340  0.33440  Biso   1.000  C
  C5       1.0000 0.52150  0.95900  0.26620  Biso   1.000  C
  C6       1.0000 0.56750  0.92800  0.25900  Biso   1.000  C
  C7       1.0000 0.46030  0.01690  0.34310  Biso   1.000  C
  C8       1.0000 0.43440  0.97000  0.39590  Biso   1.000  C
  C9       1.0000 0.39320  0.02910  0.41550  Biso   1.000  C
  C10      1.0000 0.36950  0.09800  0.36670  Biso   1.000  C
  C11      1.0000 0.39390  0.12740  0.30350  Biso   1.000  C
  C12      1.0000 0.32110  0.14730  0.38460  Biso   1.000  C
  C13      1.0000 0.17090  0.18650  0.34210  Biso   1.000  C
  C14      1.0000 0.12390  0.12990  0.34010  Biso   1.000  C
  C15      1.0000 0.11450  0.07890  0.40820  Biso   1.000  C
  C16      1.0000 0.03470  0.02850  0.33620  Biso   1.000  C
  C17      1.0000 0.05220  0.04500  0.26640  Biso   1.000  C
  C18      1.0000 0.09320  0.10300  0.26960  Biso   1.000  C
  C19      1.0000 0.98480  0.98240  0.33730  Biso   1.000  C
  C20      1.0000 0.93010  0.88670  0.40260  Biso   1.000  C
  C21      1.0000 0.89000  0.90440  0.34450  Biso   1.000  C
  C22      1.0000 0.89450  0.98400  0.28400  Biso   1.000  C
  C23      1.0000 0.94270  0.02000  0.28340  Biso   1.000  C
  C24      1.0000 0.83610  0.87460  0.35190  Biso   1.000  C
  C25      1.0000 0.17420  0.38760  0.45780  Biso   1.000  C
  C26      1.0000 0.12310  0.42200  0.47420  Biso   1.000  C
  C27      1.0000 0.09990  0.38550  0.53630  Biso   1.000  C
  C28      1.0000 0.02620  0.48240  0.49640  Biso   1.000  C
  C29      1.0000 0.04910  0.52100  0.43630  Biso   1.000  C
  C30      1.0000 0.09610  0.48880  0.42670  Biso   1.000  C
  C31      1.0000 0.33170  0.34150  0.50250  Biso   1.000  C
  C32      1.0000 0.38540  0.37500  0.50690  Biso   1.000  C
  C33      1.0000 0.40100  0.41600  0.43580  Biso   1.000  C
  C34      1.0000 0.47800  0.46200  0.50320  Biso   1.000  C
  C35      1.0000 0.46870  0.41800  0.57010  Biso   1.000  C
  C36      1.0000 0.42020  0.37800  0.57600  Biso   1.000  C
  O1       1.0000 0.69300  0.87890  0.36910  Biso   1.000  O
  O2       1.0000 0.67260  0.87530  0.23960  Biso   1.000  O
  O3       1.0000 0.24890  0.28220  0.67250  Biso   1.000  O
  O4       1.0000 0.29640  0.19390  0.32840  Biso   1.000  O
  O5       1.0000 0.30080  0.34280  0.44070  Biso   1.000  O
  O6       1.0000 0.17880  0.22780  0.27880  Biso   1.000  O
  O7       1.0000 0.18650  0.40030  0.38920  Biso   1.000  O
  O8       1.0000 0.80120  0.89840  0.29750  Biso   1.000  O
  O9       1.0000 0.30860  0.12200  0.45180  Biso   1.000  O
  O10      1.0000 0.83090  0.82640  0.41270  Biso   1.000  O
  O11      1.0000 0.20210  0.34610  0.51620  Biso   1.000  O
  O12      1.0000 0.20150  0.19810  0.40680  Biso   1.000  O
  O13      1.0000 0.32260  0.30150  0.56550  Biso   1.000  O
  N1       1.0000 0.53640  0.90700  0.39000  Biso   1.000  N
  N2       1.0000 0.43410  0.05500  0.28600  Biso   1.000  N
  N3       1.0000 0.06970  0.02780  0.40520  Biso   1.000  N
  N4       1.0000 0.97810  0.92580  0.39950  Biso   1.000  N
  N5       1.0000 0.05130  0.41580  0.54940  Biso   1.000  N
  N6       1.0000 0.44710  0.44000  0.43290  Biso   1.000  N
  Eu1      1.0000 0.25030  0.33684  0.31352  Biso   1.000  Eu
  Eu2      1.0000 0.24931  0.20146  0.53679  Biso   1.000  Eu
  C37      1.0000 0.46650  0.50800  0.23220  Biso   1.000  C
  C38      1.0000 0.41980  0.47700  0.23930  Biso   1.000  C
  C39      1.0000 0.04000  0.09000  0.27280  Biso   1.000  C
  C40      1.0000 0.08360  0.14800  0.27390  Biso   1.000  C
  C41      1.0000 0.09580  0.05800  0.72540  Biso   1.000  C
  C42      1.0000 0.04710  0.02400  0.72880  Biso   1.000  C
  C43      1.0000 0.46650  0.50900  0.50380  Biso   1.000  C
  C44      1.0000 0.45730  0.47100  0.57300  Biso   1.000  C
  C45      1.0000 0.41200  0.42500  0.57000  Biso   1.000  C
  N7       1.0000 0.45770  0.44800  0.09600  Biso   1.000  N
  N8       1.0000 0.44230  0.10100  0.29330  Biso   1.000  N
  N9       1.0000 0.43560  0.49300  0.43680  Biso   1.000  N
  C46      1.0000 0.38800  0.45800  0.43930  Biso   1.000  C
  C47      1.0000 0.44070  0.00700  0.41230  Biso   1.000  C
  C48      1.0000 0.40580  0.41800  0.10000  Biso   1.000  C
  O14      1.0000 0.31170  0.15800  0.45620  Biso   1.000  O
  C49      1.0000 0.37790  0.42100  0.50300  Biso   1.000  C
  C50      1.0000 0.33890  0.38390  0.19240  Biso   1.000  C
  C51      1.0000 0.39320  0.41310  0.18140  Biso   1.000  C
  C52      1.0000 0.41310  0.38100  0.11800  Biso   1.000  C
  C53      1.0000 0.48920  0.47340  0.16560  Biso   1.000  C
  C54      1.0000 0.47850  0.45900  0.23380  Biso   1.000  C
  C55      1.0000 0.43250  0.42800  0.24100  Biso   1.000  C
  C56      1.0000 0.53970  0.51690  0.15690  Biso   1.000  C
  C57      1.0000 0.56560  0.47000  0.10410  Biso   1.000  C
  C58      1.0000 0.60680  0.52910  0.08450  Biso   1.000  C
  C59      1.0000 0.63050  0.59800  0.13330  Biso   1.000  C
  C60      1.0000 0.60610  0.62740  0.19650  Biso   1.000  C
  C61      1.0000 0.67890  0.64730  0.11540  Biso   1.000  C
  C62      1.0000 0.82910  0.68650  0.15790  Biso   1.000  C
  C63      1.0000 0.87610  0.62990  0.15990  Biso   1.000  C
  C64      1.0000 0.88550  0.57890  0.09180  Biso   1.000  C
  C65      1.0000 0.96530  0.52850  0.16380  Biso   1.000  C
  C66      1.0000 0.94780  0.54500  0.23360  Biso   1.000  C
  C67      1.0000 0.90680  0.60300  0.23040  Biso   1.000  C
  C68      1.0000 0.01520  0.48240  0.16270  Biso   1.000  C
  C69      1.0000 0.06990  0.38670  0.09740  Biso   1.000  C
  C70      1.0000 0.11000  0.40440  0.15550  Biso   1.000  C
  C71      1.0000 0.10550  0.48400  0.21600  Biso   1.000  C
  C72      1.0000 0.05730  0.52000  0.21660  Biso   1.000  C
  C73      1.0000 0.16390  0.37460  0.14810  Biso   1.000  C
  C74      1.0000 0.82580  0.88760  0.04220  Biso   1.000  C
  C75      1.0000 0.87690  0.92200  0.02580  Biso   1.000  C
  C76      1.0000 0.90010  0.88550  0.96370  Biso   1.000  C
  C77      1.0000 0.97380  0.98240  0.00360  Biso   1.000  C
  C78      1.0000 0.95090  0.02100  0.06370  Biso   1.000  C
  C79      1.0000 0.90390  0.98880  0.07330  Biso   1.000  C
  C80      1.0000 0.66830  0.84150  0.99750  Biso   1.000  C
  C81      1.0000 0.61460  0.87500  0.99310  Biso   1.000  C
  C82      1.0000 0.59900  0.91600  0.06420  Biso   1.000  C
  C83      1.0000 0.52200  0.96200  0.99680  Biso   1.000  C
  C84      1.0000 0.53130  0.91800  0.92990  Biso   1.000  C
  C85      1.0000 0.57980  0.87800  0.92400  Biso   1.000  C
  O15      1.0000 0.30700  0.37890  0.13090  Biso   1.000  O
  O16      1.0000 0.32740  0.37530  0.26040  Biso   1.000  O
  O17      1.0000 0.75110  0.78220  0.82750  Biso   1.000  O
  O18      1.0000 0.70360  0.69390  0.17160  Biso   1.000  O
  O19      1.0000 0.69920  0.84280  0.05930  Biso   1.000  O
  O20      1.0000 0.82120  0.72780  0.22120  Biso   1.000  O
  O21      1.0000 0.81350  0.90030  0.11080  Biso   1.000  O
  O22      1.0000 0.19880  0.39840  0.20250  Biso   1.000  O
  O23      1.0000 0.69140  0.62200  0.04820  Biso   1.000  O
  O24      1.0000 0.16910  0.32640  0.08730  Biso   1.000  O
  O25      1.0000 0.79790  0.84610  0.98380  Biso   1.000  O
  O26      1.0000 0.79850  0.69810  0.09320  Biso   1.000  O
  O27      1.0000 0.67740  0.80150  0.93450  Biso   1.000  O
  N10      1.0000 0.46360  0.40700  0.11000  Biso   1.000  N
  N11      1.0000 0.56590  0.55500  0.21400  Biso   1.000  N
  N12      1.0000 0.93030  0.52780  0.09480  Biso   1.000  N
  N13      1.0000 0.02190  0.42580  0.10050  Biso   1.000  N
  N14      1.0000 0.94870  0.91580  0.95060  Biso   1.000  N
  N15      1.0000 0.55290  0.94000  0.06710  Biso   1.000  N
  Eu3      1.0000 0.74970  0.83684  0.18648  Biso   1.000  Eu
  Eu4      1.0000 0.75069  0.70146  0.96321  Biso   1.000  Eu
  C86      1.0000 0.53350  0.00800  0.26780  Biso   1.000  C
  C87      1.0000 0.58020  0.97700  0.26070  Biso   1.000  C
  C88      1.0000 0.96000  0.59000  0.22720  Biso   1.000  C
  C89      1.0000 0.91640  0.64800  0.22610  Biso   1.000  C
  C90      1.0000 0.90420  0.55800  0.77460  Biso   1.000  C
  C91      1.0000 0.95290  0.52400  0.77120  Biso   1.000  C
  C92      1.0000 0.53350  0.00900  0.99620  Biso   1.000  C
  C93      1.0000 0.54270  0.97100  0.92700  Biso   1.000  C
  C94      1.0000 0.58800  0.92500  0.93000  Biso   1.000  C
  N16      1.0000 0.54230  0.94800  0.40400  Biso   1.000  N
  N17      1.0000 0.55770  0.60100  0.20670  Biso   1.000  N
  N18      1.0000 0.56440  0.99300  0.06320  Biso   1.000  N
  C95      1.0000 0.61200  0.95800  0.06070  Biso   1.000  C
  C96      1.0000 0.55930  0.50700  0.08770  Biso   1.000  C
  C97      1.0000 0.59420  0.91800  0.40000  Biso   1.000  C
  O28      1.0000 0.68830  0.65800  0.04380  Biso   1.000  O
  C98      1.0000 0.62210  0.92100  0.99700  Biso   1.000  C
  C99      1.0000 0.33890  0.11610  0.69240  Biso   1.000  C
  C100     1.0000 0.39320  0.08690  0.68140  Biso   1.000  C
  C101     1.0000 0.41310  0.11900  0.61800  Biso   1.000  C
  C102     1.0000 0.48920  0.02660  0.66560  Biso   1.000  C
  C103     1.0000 0.47850  0.04100  0.73380  Biso   1.000  C
  C104     1.0000 0.43250  0.07200  0.74100  Biso   1.000  C
  C105     1.0000 0.53970  0.98310  0.65690  Biso   1.000  C
  C106     1.0000 0.56560  0.03000  0.60410  Biso   1.000  C
  C107     1.0000 0.60680  0.97090  0.58450  Biso   1.000  C
  C108     1.0000 0.63050  0.90200  0.63330  Biso   1.000  C
  C109     1.0000 0.60610  0.87260  0.69650  Biso   1.000  C
  C110     1.0000 0.67890  0.85270  0.61540  Biso   1.000  C
  C111     1.0000 0.82910  0.81350  0.65790  Biso   1.000  C
  C112     1.0000 0.87610  0.87010  0.65990  Biso   1.000  C
  C113     1.0000 0.88550  0.92110  0.59180  Biso   1.000  C
  C114     1.0000 0.96530  0.97150  0.66380  Biso   1.000  C
  C115     1.0000 0.94780  0.95500  0.73360  Biso   1.000  C
  C116     1.0000 0.90680  0.89700  0.73040  Biso   1.000  C
  C117     1.0000 0.01520  0.01760  0.66270  Biso   1.000  C
  C118     1.0000 0.06990  0.11330  0.59740  Biso   1.000  C
  C119     1.0000 0.11000  0.09560  0.65550  Biso   1.000  C
  C120     1.0000 0.10550  0.01600  0.71600  Biso   1.000  C
  C121     1.0000 0.05730  0.98000  0.71660  Biso   1.000  C
  C122     1.0000 0.16390  0.12540  0.64810  Biso   1.000  C
  C123     1.0000 0.82580  0.61240  0.54220  Biso   1.000  C
  C124     1.0000 0.87690  0.57800  0.52580  Biso   1.000  C
  C125     1.0000 0.90010  0.61450  0.46370  Biso   1.000  C
  C126     1.0000 0.97380  0.51760  0.50360  Biso   1.000  C
  C127     1.0000 0.95090  0.47900  0.56370  Biso   1.000  C
  C128     1.0000 0.90390  0.51120  0.57330  Biso   1.000  C
  C129     1.0000 0.66830  0.65850  0.49750  Biso   1.000  C
  C130     1.0000 0.61460  0.62500  0.49310  Biso   1.000  C
  C131     1.0000 0.59900  0.58400  0.56420  Biso   1.000  C
  C132     1.0000 0.52200  0.53800  0.49680  Biso   1.000  C
  C133     1.0000 0.53130  0.58200  0.42990  Biso   1.000  C
  C134     1.0000 0.57980  0.62200  0.42400  Biso   1.000  C
  O29      1.0000 0.30700  0.12110  0.63090  Biso   1.000  O
  O30      1.0000 0.32740  0.12470  0.76040  Biso   1.000  O
  O31      1.0000 0.75110  0.71780  0.32750  Biso   1.000  O
  O32      1.0000 0.70360  0.80610  0.67160  Biso   1.000  O
  O33      1.0000 0.69920  0.65720  0.55930  Biso   1.000  O
  O34      1.0000 0.82120  0.77220  0.72120  Biso   1.000  O
  O35      1.0000 0.81350  0.59970  0.61080  Biso   1.000  O
  O36      1.0000 0.19880  0.10160  0.70250  Biso   1.000  O
  O37      1.0000 0.69140  0.87800  0.54820  Biso   1.000  O
  O38      1.0000 0.16910  0.17360  0.58730  Biso   1.000  O
  O39      1.0000 0.79790  0.65390  0.48380  Biso   1.000  O
  O40      1.0000 0.79850  0.80190  0.59320  Biso   1.000  O
  O41      1.0000 0.67740  0.69850  0.43450  Biso   1.000  O
  N19      1.0000 0.46360  0.09300  0.61000  Biso   1.000  N
  N20      1.0000 0.56590  0.94500  0.71400  Biso   1.000  N
  N21      1.0000 0.93030  0.97220  0.59480  Biso   1.000  N
  N22      1.0000 0.02190  0.07420  0.60050  Biso   1.000  N
  N23      1.0000 0.94870  0.58420  0.45060  Biso   1.000  N
  N24      1.0000 0.55290  0.56000  0.56710  Biso   1.000  N
  Eu5      1.0000 0.74970  0.66316  0.68648  Biso   1.000  Eu
  Eu6      1.0000 0.75069  0.79854  0.46321  Biso   1.000  Eu
  C135     1.0000 0.53350  0.49200  0.76780  Biso   1.000  C
  C136     1.0000 0.58020  0.52300  0.76070  Biso   1.000  C
  C137     1.0000 0.96000  0.91000  0.72720  Biso   1.000  C
  C138     1.0000 0.91640  0.85200  0.72610  Biso   1.000  C
  C139     1.0000 0.90420  0.94200  0.27460  Biso   1.000  C
  C140     1.0000 0.95290  0.97600  0.27120  Biso   1.000  C
  C141     1.0000 0.53350  0.49100  0.49620  Biso   1.000  C
  C142     1.0000 0.54270  0.52900  0.42700  Biso   1.000  C
  C143     1.0000 0.58800  0.57500  0.43000  Biso   1.000  C
  N25      1.0000 0.54230  0.55200  0.90400  Biso   1.000  N
  N26      1.0000 0.55770  0.89900  0.70670  Biso   1.000  N
  N27      1.0000 0.56440  0.50700  0.56320  Biso   1.000  N
  C144     1.0000 0.61200  0.54200  0.56070  Biso   1.000  C
  C145     1.0000 0.55930  0.99300  0.58770  Biso   1.000  C
  C146     1.0000 0.59420  0.58200  0.90000  Biso   1.000  C
  O42      1.0000 0.68830  0.84200  0.54380  Biso   1.000  O
  C147     1.0000 0.62210  0.57900  0.49700  Biso   1.000  C
  C148     1.0000 0.66110  0.61610  0.80760  Biso   1.000  C
  C149     1.0000 0.60680  0.58690  0.81860  Biso   1.000  C
  C150     1.0000 0.58690  0.61900  0.88200  Biso   1.000  C
  C151     1.0000 0.51080  0.52660  0.83440  Biso   1.000  C
  C152     1.0000 0.52150  0.54100  0.76620  Biso   1.000  C
  C153     1.0000 0.56750  0.57200  0.75900  Biso   1.000  C
  C154     1.0000 0.46030  0.48310  0.84310  Biso   1.000  C
  C155     1.0000 0.43440  0.53000  0.89590  Biso   1.000  C
  C156     1.0000 0.39320  0.47090  0.91550  Biso   1.000  C
  C157     1.0000 0.36950  0.40200  0.86670  Biso   1.000  C
  C158     1.0000 0.39390  0.37260  0.80350  Biso   1.000  C
  C159     1.0000 0.32110  0.35270  0.88460  Biso   1.000  C
  C160     1.0000 0.17090  0.31350  0.84210  Biso   1.000  C
  C161     1.0000 0.12390  0.37010  0.84010  Biso   1.000  C
  C162     1.0000 0.11450  0.42110  0.90820  Biso   1.000  C
  C163     1.0000 0.03470  0.47150  0.83620  Biso   1.000  C
  C164     1.0000 0.05220  0.45500  0.76640  Biso   1.000  C
  C165     1.0000 0.09320  0.39700  0.76960  Biso   1.000  C
  C166     1.0000 0.98480  0.51760  0.83730  Biso   1.000  C
  C167     1.0000 0.93010  0.61330  0.90260  Biso   1.000  C
  C168     1.0000 0.89000  0.59560  0.84450  Biso   1.000  C
  C169     1.0000 0.89450  0.51600  0.78400  Biso   1.000  C
  C170     1.0000 0.94270  0.48000  0.78340  Biso   1.000  C
  C171     1.0000 0.83610  0.62540  0.85190  Biso   1.000  C
  C172     1.0000 0.17420  0.11240  0.95780  Biso   1.000  C
  C173     1.0000 0.12310  0.07800  0.97420  Biso   1.000  C
  C174     1.0000 0.09990  0.11450  0.03630  Biso   1.000  C
  C175     1.0000 0.02620  0.01760  0.99640  Biso   1.000  C
  C176     1.0000 0.04910  0.97900  0.93630  Biso   1.000  C
  C177     1.0000 0.09610  0.01120  0.92670  Biso   1.000  C
  C178     1.0000 0.33170  0.15850  0.00250  Biso   1.000  C
  C179     1.0000 0.38540  0.12500  0.00690  Biso   1.000  C
  C180     1.0000 0.40100  0.08400  0.93580  Biso   1.000  C
  C181     1.0000 0.47800  0.03800  0.00320  Biso   1.000  C
  C182     1.0000 0.46870  0.08200  0.07010  Biso   1.000  C
  C183     1.0000 0.42020  0.12200  0.07600  Biso   1.000  C
  O43      1.0000 0.69300  0.62110  0.86910  Biso   1.000  O
  O44      1.0000 0.67260  0.62470  0.73960  Biso   1.000  O
  O45      1.0000 0.24890  0.21780  0.17250  Biso   1.000  O
  O46      1.0000 0.29640  0.30610  0.82840  Biso   1.000  O
  O47      1.0000 0.30080  0.15720  0.94070  Biso   1.000  O
  O48      1.0000 0.17880  0.27220  0.77880  Biso   1.000  O
  O49      1.0000 0.18650  0.09970  0.88920  Biso   1.000  O
  O50      1.0000 0.80120  0.60160  0.79750  Biso   1.000  O
  O51      1.0000 0.30860  0.37800  0.95180  Biso   1.000  O
  O52      1.0000 0.83090  0.67360  0.91270  Biso   1.000  O
  O53      1.0000 0.20210  0.15390  0.01620  Biso   1.000  O
  O54      1.0000 0.20150  0.30190  0.90680  Biso   1.000  O
  O55      1.0000 0.32260  0.19850  0.06550  Biso   1.000  O
  N28      1.0000 0.53640  0.59300  0.89000  Biso   1.000  N
  N29      1.0000 0.43410  0.44500  0.78600  Biso   1.000  N
  N30      1.0000 0.06970  0.47220  0.90520  Biso   1.000  N
  N31      1.0000 0.97810  0.57420  0.89950  Biso   1.000  N
  N32      1.0000 0.05130  0.08420  0.04940  Biso   1.000  N
  N33      1.0000 0.44710  0.06000  0.93290  Biso   1.000  N
  Eu7      1.0000 0.25030  0.16316  0.81352  Biso   1.000  Eu
  Eu8      1.0000 0.24931  0.29854  0.03679  Biso   1.000  Eu
  C184     1.0000 0.46650  0.99200  0.73220  Biso   1.000  C
  C185     1.0000 0.41980  0.02300  0.73930  Biso   1.000  C
  C186     1.0000 0.04000  0.41000  0.77280  Biso   1.000  C
  C187     1.0000 0.08360  0.35200  0.77390  Biso   1.000  C
  C188     1.0000 0.09580  0.44200  0.22540  Biso   1.000  C
  C189     1.0000 0.04710  0.47600  0.22880  Biso   1.000  C
  C190     1.0000 0.46650  0.99100  0.00380  Biso   1.000  C
  C191     1.0000 0.45730  0.02900  0.07300  Biso   1.000  C
  C192     1.0000 0.41200  0.07500  0.07000  Biso   1.000  C
  N34      1.0000 0.45770  0.05200  0.59600  Biso   1.000  N
  N35      1.0000 0.44230  0.39900  0.79330  Biso   1.000  N
  N36      1.0000 0.43560  0.00700  0.93680  Biso   1.000  N
  C193     1.0000 0.38800  0.04200  0.93930  Biso   1.000  C
  C194     1.0000 0.44070  0.49300  0.91230  Biso   1.000  C
  C195     1.0000 0.40580  0.08200  0.60000  Biso   1.000  C
  O56      1.0000 0.31170  0.34200  0.95620  Biso   1.000  O
  C196     1.0000 0.37790  0.07900  0.00300  Biso   1.000  C
