data_image0
_cell_length_a       31.1622
_cell_length_b       31.1622
_cell_length_c       11.1615
_cell_angle_alpha    90
_cell_angle_beta     90
_cell_angle_gamma    90

_symmetry_space_group_name_H-M    "P 1"
_symmetry_int_tables_number       1

loop_
  _symmetry_equiv_pos_as_xyz
  'x, y, z'

loop_
  _atom_site_label
  _atom_site_occupancy
  _atom_site_fract_x
  _atom_site_fract_y
  _atom_site_fract_z
  _atom_site_thermal_displace_type
  _atom_site_B_iso_or_equiv
  _atom_site_type_symbol
  O1       1.0000 0.45540  0.21500  0.44200  Biso   1.000  O
  O2       1.0000 0.27360  0.04430  0.41820  Biso   1.000  O
  O3       1.0000 0.45500  0.19120  0.26000  Biso   1.000  O
  O4       1.0000 0.29780  0.04420  0.61020  Biso   1.000  O
  C1       1.0000 0.44300  0.19210  0.36550  Biso   1.000  C
  C2       1.0000 0.40760  0.15960  0.39740  Biso   1.000  C
  C3       1.0000 0.29800  0.05650  0.50410  Biso   1.000  C
  C4       1.0000 0.33190  0.08890  0.47170  Biso   1.000  C
  B1       1.0000 0.35880  0.16520  0.37100  Biso   1.000  B
  B2       1.0000 0.38200  0.15740  0.51300  Biso   1.000  B
  B3       1.0000 0.32910  0.13870  0.49000  Biso   1.000  B
  B4       1.0000 0.41570  0.11550  0.46000  Biso   1.000  B
  B5       1.0000 0.33610  0.11240  0.34100  Biso   1.000  B
  B6       1.0000 0.39150  0.12200  0.31200  Biso   1.000  B
  B7       1.0000 0.37540  0.07830  0.40800  Biso   1.000  B
  B8       1.0000 0.36900  0.10400  0.55100  Biso   1.000  B
  H1       1.0000 0.34710  0.19151  0.33148  Biso   1.000  H
  H2       1.0000 0.38739  0.17876  0.57846  Biso   1.000  H
  H3       1.0000 0.30348  0.15249  0.52715  Biso   1.000  H
  H4       1.0000 0.44500  0.10571  0.48392  Biso   1.000  H
  H5       1.0000 0.31579  0.10732  0.27320  Biso   1.000  H
  H6       1.0000 0.40348  0.11700  0.23019  Biso   1.000  H
  H7       1.0000 0.38329  0.04804  0.38722  Biso   1.000  H
  H8       1.0000 0.37253  0.09276  0.63405  Biso   1.000  H
  O5       1.0000 0.95540  0.71500  0.94200  Biso   1.000  O
  O6       1.0000 0.77360  0.54430  0.91820  Biso   1.000  O
  O7       1.0000 0.95500  0.69120  0.76000  Biso   1.000  O
  O8       1.0000 0.79780  0.54420  0.11020  Biso   1.000  O
  C5       1.0000 0.94300  0.69210  0.86550  Biso   1.000  C
  C6       1.0000 0.90760  0.65960  0.89740  Biso   1.000  C
  C7       1.0000 0.79800  0.55650  0.00410  Biso   1.000  C
  C8       1.0000 0.83190  0.58890  0.97170  Biso   1.000  C
  B9       1.0000 0.85880  0.66520  0.87100  Biso   1.000  B
  B10      1.0000 0.88200  0.65740  0.01300  Biso   1.000  B
  B11      1.0000 0.82910  0.63870  0.99000  Biso   1.000  B
  B12      1.0000 0.91570  0.61550  0.96000  Biso   1.000  B
  B13      1.0000 0.83610  0.61240  0.84100  Biso   1.000  B
  B14      1.0000 0.89150  0.62200  0.81200  Biso   1.000  B
  B15      1.0000 0.87540  0.57830  0.90800  Biso   1.000  B
  B16      1.0000 0.86900  0.60400  0.05100  Biso   1.000  B
  H9       1.0000 0.84710  0.69151  0.83148  Biso   1.000  H
  H10      1.0000 0.88739  0.67876  0.07846  Biso   1.000  H
  H11      1.0000 0.80348  0.65249  0.02715  Biso   1.000  H
  H12      1.0000 0.94500  0.60571  0.98392  Biso   1.000  H
  H13      1.0000 0.81579  0.60732  0.77320  Biso   1.000  H
  H14      1.0000 0.90348  0.61700  0.73019  Biso   1.000  H
  H15      1.0000 0.88329  0.54804  0.88722  Biso   1.000  H
  H16      1.0000 0.87253  0.59276  0.13405  Biso   1.000  H
  O9       1.0000 0.04460  0.28500  0.94200  Biso   1.000  O
  O10      1.0000 0.22640  0.45570  0.91820  Biso   1.000  O
  O11      1.0000 0.04500  0.30880  0.76000  Biso   1.000  O
  O12      1.0000 0.20220  0.45580  0.11020  Biso   1.000  O
  C9       1.0000 0.05700  0.30790  0.86550  Biso   1.000  C
  C10      1.0000 0.09240  0.34040  0.89740  Biso   1.000  C
  C11      1.0000 0.20200  0.44350  0.00410  Biso   1.000  C
  C12      1.0000 0.16810  0.41110  0.97170  Biso   1.000  C
  B17      1.0000 0.14120  0.33480  0.87100  Biso   1.000  B
  B18      1.0000 0.11800  0.34260  0.01300  Biso   1.000  B
  B19      1.0000 0.17090  0.36130  0.99000  Biso   1.000  B
  B20      1.0000 0.08430  0.38450  0.96000  Biso   1.000  B
  B21      1.0000 0.16390  0.38760  0.84100  Biso   1.000  B
  B22      1.0000 0.10850  0.37800  0.81200  Biso   1.000  B
  B23      1.0000 0.12460  0.42170  0.90800  Biso   1.000  B
  B24      1.0000 0.13100  0.39600  0.05100  Biso   1.000  B
  H17      1.0000 0.15290  0.30849  0.83148  Biso   1.000  H
  H18      1.0000 0.11261  0.32124  0.07846  Biso   1.000  H
  H19      1.0000 0.19652  0.34751  0.02715  Biso   1.000  H
  H20      1.0000 0.05500  0.39429  0.98392  Biso   1.000  H
  H21      1.0000 0.18421  0.39268  0.77320  Biso   1.000  H
  H22      1.0000 0.09652  0.38300  0.73019  Biso   1.000  H
  H23      1.0000 0.11671  0.45196  0.88722  Biso   1.000  H
  H24      1.0000 0.12747  0.40724  0.13405  Biso   1.000  H
  O13      1.0000 0.54460  0.78500  0.44200  Biso   1.000  O
  O14      1.0000 0.72640  0.95570  0.41820  Biso   1.000  O
  O15      1.0000 0.54500  0.80880  0.26000  Biso   1.000  O
  O16      1.0000 0.70220  0.95580  0.61020  Biso   1.000  O
  C13      1.0000 0.55700  0.80790  0.36550  Biso   1.000  C
  C14      1.0000 0.59240  0.84040  0.39740  Biso   1.000  C
  C15      1.0000 0.70200  0.94350  0.50410  Biso   1.000  C
  C16      1.0000 0.66810  0.91110  0.47170  Biso   1.000  C
  B25      1.0000 0.64120  0.83480  0.37100  Biso   1.000  B
  B26      1.0000 0.61800  0.84260  0.51300  Biso   1.000  B
  B27      1.0000 0.67090  0.86130  0.49000  Biso   1.000  B
  B28      1.0000 0.58430  0.88450  0.46000  Biso   1.000  B
  B29      1.0000 0.66390  0.88760  0.34100  Biso   1.000  B
  B30      1.0000 0.60850  0.87800  0.31200  Biso   1.000  B
  B31      1.0000 0.62460  0.92170  0.40800  Biso   1.000  B
  B32      1.0000 0.63100  0.89600  0.55100  Biso   1.000  B
  H25      1.0000 0.65290  0.80849  0.33148  Biso   1.000  H
  H26      1.0000 0.61261  0.82124  0.57846  Biso   1.000  H
  H27      1.0000 0.69652  0.84751  0.52715  Biso   1.000  H
  H28      1.0000 0.55500  0.89429  0.48392  Biso   1.000  H
  H29      1.0000 0.68421  0.89268  0.27320  Biso   1.000  H
  H30      1.0000 0.59652  0.88300  0.23019  Biso   1.000  H
  H31      1.0000 0.61671  0.95196  0.38722  Biso   1.000  H
  H32      1.0000 0.62747  0.90724  0.63405  Biso   1.000  H
  O17      1.0000 0.78500  0.95540  0.69200  Biso   1.000  O
  O18      1.0000 0.95570  0.77360  0.66820  Biso   1.000  O
  O19      1.0000 0.80880  0.95500  0.51000  Biso   1.000  O
  O20      1.0000 0.95580  0.79780  0.86020  Biso   1.000  O
  C17      1.0000 0.80790  0.94300  0.61550  Biso   1.000  C
  C18      1.0000 0.84040  0.90760  0.64740  Biso   1.000  C
  C19      1.0000 0.94350  0.79800  0.75410  Biso   1.000  C
  C20      1.0000 0.91110  0.83190  0.72170  Biso   1.000  C
  B33      1.0000 0.83480  0.85880  0.62100  Biso   1.000  B
  B34      1.0000 0.84260  0.88200  0.76300  Biso   1.000  B
  B35      1.0000 0.86130  0.82910  0.74000  Biso   1.000  B
  B36      1.0000 0.88450  0.91570  0.71000  Biso   1.000  B
  B37      1.0000 0.88760  0.83610  0.59100  Biso   1.000  B
  B38      1.0000 0.87800  0.89150  0.56200  Biso   1.000  B
  B39      1.0000 0.92170  0.87540  0.65800  Biso   1.000  B
  B40      1.0000 0.89600  0.86900  0.80100  Biso   1.000  B
  H33      1.0000 0.80849  0.84710  0.58148  Biso   1.000  H
  H34      1.0000 0.82124  0.88739  0.82846  Biso   1.000  H
  H35      1.0000 0.84751  0.80348  0.77715  Biso   1.000  H
  H36      1.0000 0.89429  0.94500  0.73392  Biso   1.000  H
  H37      1.0000 0.89268  0.81579  0.52320  Biso   1.000  H
  H38      1.0000 0.88300  0.90348  0.48019  Biso   1.000  H
  H39      1.0000 0.95196  0.88329  0.63722  Biso   1.000  H
  H40      1.0000 0.90724  0.87253  0.88405  Biso   1.000  H
  O21      1.0000 0.28500  0.45540  0.19200  Biso   1.000  O
  O22      1.0000 0.45570  0.27360  0.16820  Biso   1.000  O
  O23      1.0000 0.30880  0.45500  0.01000  Biso   1.000  O
  O24      1.0000 0.45580  0.29780  0.36020  Biso   1.000  O
  C21      1.0000 0.30790  0.44300  0.11550  Biso   1.000  C
  C22      1.0000 0.34040  0.40760  0.14740  Biso   1.000  C
  C23      1.0000 0.44350  0.29800  0.25410  Biso   1.000  C
  C24      1.0000 0.41110  0.33190  0.22170  Biso   1.000  C
  B41      1.0000 0.33480  0.35880  0.12100  Biso   1.000  B
  B42      1.0000 0.34260  0.38200  0.26300  Biso   1.000  B
  B43      1.0000 0.36130  0.32910  0.24000  Biso   1.000  B
  B44      1.0000 0.38450  0.41570  0.21000  Biso   1.000  B
  B45      1.0000 0.38760  0.33610  0.09100  Biso   1.000  B
  B46      1.0000 0.37800  0.39150  0.06200  Biso   1.000  B
  B47      1.0000 0.42170  0.37540  0.15800  Biso   1.000  B
  B48      1.0000 0.39600  0.36900  0.30100  Biso   1.000  B
  H41      1.0000 0.30849  0.34710  0.08148  Biso   1.000  H
  H42      1.0000 0.32124  0.38739  0.32846  Biso   1.000  H
  H43      1.0000 0.34751  0.30348  0.27715  Biso   1.000  H
  H44      1.0000 0.39429  0.44500  0.23392  Biso   1.000  H
  H45      1.0000 0.39268  0.31579  0.02320  Biso   1.000  H
  H46      1.0000 0.38300  0.40348  0.98019  Biso   1.000  H
  H47      1.0000 0.45196  0.38329  0.13722  Biso   1.000  H
  H48      1.0000 0.40724  0.37253  0.38405  Biso   1.000  H
  O25      1.0000 0.71500  0.54460  0.19200  Biso   1.000  O
  O26      1.0000 0.54430  0.72640  0.16820  Biso   1.000  O
  O27      1.0000 0.69120  0.54500  0.01000  Biso   1.000  O
  O28      1.0000 0.54420  0.70220  0.36020  Biso   1.000  O
  C25      1.0000 0.69210  0.55700  0.11550  Biso   1.000  C
  C26      1.0000 0.65960  0.59240  0.14740  Biso   1.000  C
  C27      1.0000 0.55650  0.70200  0.25410  Biso   1.000  C
  C28      1.0000 0.58890  0.66810  0.22170  Biso   1.000  C
  B49      1.0000 0.66520  0.64120  0.12100  Biso   1.000  B
  B50      1.0000 0.65740  0.61800  0.26300  Biso   1.000  B
  B51      1.0000 0.63870  0.67090  0.24000  Biso   1.000  B
  B52      1.0000 0.61550  0.58430  0.21000  Biso   1.000  B
  B53      1.0000 0.61240  0.66390  0.09100  Biso   1.000  B
  B54      1.0000 0.62200  0.60850  0.06200  Biso   1.000  B
  B55      1.0000 0.57830  0.62460  0.15800  Biso   1.000  B
  B56      1.0000 0.60400  0.63100  0.30100  Biso   1.000  B
  H49      1.0000 0.69151  0.65290  0.08148  Biso   1.000  H
  H50      1.0000 0.67876  0.61261  0.32846  Biso   1.000  H
  H51      1.0000 0.65249  0.69652  0.27715  Biso   1.000  H
  H52      1.0000 0.60571  0.55500  0.23392  Biso   1.000  H
  H53      1.0000 0.60732  0.68421  0.02320  Biso   1.000  H
  H54      1.0000 0.61700  0.59652  0.98019  Biso   1.000  H
  H55      1.0000 0.54804  0.61671  0.13722  Biso   1.000  H
  H56      1.0000 0.59276  0.62747  0.38405  Biso   1.000  H
  O29      1.0000 0.21500  0.04460  0.69200  Biso   1.000  O
  O30      1.0000 0.04430  0.22640  0.66820  Biso   1.000  O
  O31      1.0000 0.19120  0.04500  0.51000  Biso   1.000  O
  O32      1.0000 0.04420  0.20220  0.86020  Biso   1.000  O
  C29      1.0000 0.19210  0.05700  0.61550  Biso   1.000  C
  C30      1.0000 0.15960  0.09240  0.64740  Biso   1.000  C
  C31      1.0000 0.05650  0.20200  0.75410  Biso   1.000  C
  C32      1.0000 0.08890  0.16810  0.72170  Biso   1.000  C
  B57      1.0000 0.16520  0.14120  0.62100  Biso   1.000  B
  B58      1.0000 0.15740  0.11800  0.76300  Biso   1.000  B
  B59      1.0000 0.13870  0.17090  0.74000  Biso   1.000  B
  B60      1.0000 0.11550  0.08430  0.71000  Biso   1.000  B
  B61      1.0000 0.11240  0.16390  0.59100  Biso   1.000  B
  B62      1.0000 0.12200  0.10850  0.56200  Biso   1.000  B
  B63      1.0000 0.07830  0.12460  0.65800  Biso   1.000  B
  B64      1.0000 0.10400  0.13100  0.80100  Biso   1.000  B
  H57      1.0000 0.19151  0.15290  0.58148  Biso   1.000  H
  H58      1.0000 0.17876  0.11261  0.82846  Biso   1.000  H
  H59      1.0000 0.15249  0.19652  0.77715  Biso   1.000  H
  H60      1.0000 0.10571  0.05500  0.73392  Biso   1.000  H
  H61      1.0000 0.10732  0.18421  0.52320  Biso   1.000  H
  H62      1.0000 0.11700  0.09652  0.48019  Biso   1.000  H
  H63      1.0000 0.04804  0.11671  0.63722  Biso   1.000  H
  H64      1.0000 0.09276  0.12747  0.88405  Biso   1.000  H
  O33      1.0000 0.45540  0.78500  0.44200  Biso   1.000  O
  O34      1.0000 0.27360  0.95570  0.41820  Biso   1.000  O
  O35      1.0000 0.45500  0.80880  0.26000  Biso   1.000  O
  O36      1.0000 0.29780  0.95580  0.61020  Biso   1.000  O
  C33      1.0000 0.44300  0.80790  0.36550  Biso   1.000  C
  C34      1.0000 0.40760  0.84040  0.39740  Biso   1.000  C
  C35      1.0000 0.29800  0.94350  0.50410  Biso   1.000  C
  C36      1.0000 0.33190  0.91110  0.47170  Biso   1.000  C
  B65      1.0000 0.35880  0.83480  0.37100  Biso   1.000  B
  B66      1.0000 0.38200  0.84260  0.51300  Biso   1.000  B
  B67      1.0000 0.32910  0.86130  0.49000  Biso   1.000  B
  B68      1.0000 0.41570  0.88450  0.46000  Biso   1.000  B
  B69      1.0000 0.33610  0.88760  0.34100  Biso   1.000  B
  B70      1.0000 0.39150  0.87800  0.31200  Biso   1.000  B
  B71      1.0000 0.37540  0.92170  0.40800  Biso   1.000  B
  B72      1.0000 0.36900  0.89600  0.55100  Biso   1.000  B
  H65      1.0000 0.34710  0.80849  0.33148  Biso   1.000  H
  H66      1.0000 0.38739  0.82124  0.57846  Biso   1.000  H
  H67      1.0000 0.30348  0.84751  0.52715  Biso   1.000  H
  H68      1.0000 0.44500  0.89429  0.48392  Biso   1.000  H
  H69      1.0000 0.31579  0.89268  0.27320  Biso   1.000  H
  H70      1.0000 0.40348  0.88300  0.23019  Biso   1.000  H
  H71      1.0000 0.38329  0.95196  0.38722  Biso   1.000  H
  H72      1.0000 0.37253  0.90724  0.63405  Biso   1.000  H
  O37      1.0000 0.95540  0.28500  0.94200  Biso   1.000  O
  O38      1.0000 0.77360  0.45570  0.91820  Biso   1.000  O
  O39      1.0000 0.95500  0.30880  0.76000  Biso   1.000  O
  O40      1.0000 0.79780  0.45580  0.11020  Biso   1.000  O
  C37      1.0000 0.94300  0.30790  0.86550  Biso   1.000  C
  C38      1.0000 0.90760  0.34040  0.89740  Biso   1.000  C
  C39      1.0000 0.79800  0.44350  0.00410  Biso   1.000  C
  C40      1.0000 0.83190  0.41110  0.97170  Biso   1.000  C
  B73      1.0000 0.85880  0.33480  0.87100  Biso   1.000  B
  B74      1.0000 0.88200  0.34260  0.01300  Biso   1.000  B
  B75      1.0000 0.82910  0.36130  0.99000  Biso   1.000  B
  B76      1.0000 0.91570  0.38450  0.96000  Biso   1.000  B
  B77      1.0000 0.83610  0.38760  0.84100  Biso   1.000  B
  B78      1.0000 0.89150  0.37800  0.81200  Biso   1.000  B
  B79      1.0000 0.87540  0.42170  0.90800  Biso   1.000  B
  B80      1.0000 0.86900  0.39600  0.05100  Biso   1.000  B
  H73      1.0000 0.84710  0.30849  0.83148  Biso   1.000  H
  H74      1.0000 0.88739  0.32124  0.07846  Biso   1.000  H
  H75      1.0000 0.80348  0.34751  0.02715  Biso   1.000  H
  H76      1.0000 0.94500  0.39429  0.98392  Biso   1.000  H
  H77      1.0000 0.81579  0.39268  0.77320  Biso   1.000  H
  H78      1.0000 0.90348  0.38300  0.73019  Biso   1.000  H
  H79      1.0000 0.88329  0.45196  0.88722  Biso   1.000  H
  H80      1.0000 0.87253  0.40724  0.13405  Biso   1.000  H
  O41      1.0000 0.04460  0.71500  0.94200  Biso   1.000  O
  O42      1.0000 0.22640  0.54430  0.91820  Biso   1.000  O
  O43      1.0000 0.04500  0.69120  0.76000  Biso   1.000  O
  O44      1.0000 0.20220  0.54420  0.11020  Biso   1.000  O
  C41      1.0000 0.05700  0.69210  0.86550  Biso   1.000  C
  C42      1.0000 0.09240  0.65960  0.89740  Biso   1.000  C
  C43      1.0000 0.20200  0.55650  0.00410  Biso   1.000  C
  C44      1.0000 0.16810  0.58890  0.97170  Biso   1.000  C
  B81      1.0000 0.14120  0.66520  0.87100  Biso   1.000  B
  B82      1.0000 0.11800  0.65740  0.01300  Biso   1.000  B
  B83      1.0000 0.17090  0.63870  0.99000  Biso   1.000  B
  B84      1.0000 0.08430  0.61550  0.96000  Biso   1.000  B
  B85      1.0000 0.16390  0.61240  0.84100  Biso   1.000  B
  B86      1.0000 0.10850  0.62200  0.81200  Biso   1.000  B
  B87      1.0000 0.12460  0.57830  0.90800  Biso   1.000  B
  B88      1.0000 0.13100  0.60400  0.05100  Biso   1.000  B
  H81      1.0000 0.15290  0.69151  0.83148  Biso   1.000  H
  H82      1.0000 0.11261  0.67876  0.07846  Biso   1.000  H
  H83      1.0000 0.19652  0.65249  0.02715  Biso   1.000  H
  H84      1.0000 0.05500  0.60571  0.98392  Biso   1.000  H
  H85      1.0000 0.18421  0.60732  0.77320  Biso   1.000  H
  H86      1.0000 0.09652  0.61700  0.73019  Biso   1.000  H
  H87      1.0000 0.11671  0.54804  0.88722  Biso   1.000  H
  H88      1.0000 0.12747  0.59276  0.13405  Biso   1.000  H
  O45      1.0000 0.54460  0.21500  0.44200  Biso   1.000  O
  O46      1.0000 0.72640  0.04430  0.41820  Biso   1.000  O
  O47      1.0000 0.54500  0.19120  0.26000  Biso   1.000  O
  O48      1.0000 0.70220  0.04420  0.61020  Biso   1.000  O
  C45      1.0000 0.55700  0.19210  0.36550  Biso   1.000  C
  C46      1.0000 0.59240  0.15960  0.39740  Biso   1.000  C
  C47      1.0000 0.70200  0.05650  0.50410  Biso   1.000  C
  C48      1.0000 0.66810  0.08890  0.47170  Biso   1.000  C
  B89      1.0000 0.64120  0.16520  0.37100  Biso   1.000  B
  B90      1.0000 0.61800  0.15740  0.51300  Biso   1.000  B
  B91      1.0000 0.67090  0.13870  0.49000  Biso   1.000  B
  B92      1.0000 0.58430  0.11550  0.46000  Biso   1.000  B
  B93      1.0000 0.66390  0.11240  0.34100  Biso   1.000  B
  B94      1.0000 0.60850  0.12200  0.31200  Biso   1.000  B
  B95      1.0000 0.62460  0.07830  0.40800  Biso   1.000  B
  B96      1.0000 0.63100  0.10400  0.55100  Biso   1.000  B
  H89      1.0000 0.65290  0.19151  0.33148  Biso   1.000  H
  H90      1.0000 0.61261  0.17876  0.57846  Biso   1.000  H
  H91      1.0000 0.69652  0.15249  0.52715  Biso   1.000  H
  H92      1.0000 0.55500  0.10571  0.48392  Biso   1.000  H
  H93      1.0000 0.68421  0.10732  0.27320  Biso   1.000  H
  H94      1.0000 0.59652  0.11700  0.23019  Biso   1.000  H
  H95      1.0000 0.61671  0.04804  0.38722  Biso   1.000  H
  H96      1.0000 0.62747  0.09276  0.63405  Biso   1.000  H
  O49      1.0000 0.78500  0.04460  0.69200  Biso   1.000  O
  O50      1.0000 0.95570  0.22640  0.66820  Biso   1.000  O
  O51      1.0000 0.80880  0.04500  0.51000  Biso   1.000  O
  O52      1.0000 0.95580  0.20220  0.86020  Biso   1.000  O
  C49      1.0000 0.80790  0.05700  0.61550  Biso   1.000  C
  C50      1.0000 0.84040  0.09240  0.64740  Biso   1.000  C
  C51      1.0000 0.94350  0.20200  0.75410  Biso   1.000  C
  C52      1.0000 0.91110  0.16810  0.72170  Biso   1.000  C
  B97      1.0000 0.83480  0.14120  0.62100  Biso   1.000  B
  B98      1.0000 0.84260  0.11800  0.76300  Biso   1.000  B
  B99      1.0000 0.86130  0.17090  0.74000  Biso   1.000  B
  B100     1.0000 0.88450  0.08430  0.71000  Biso   1.000  B
  B101     1.0000 0.88760  0.16390  0.59100  Biso   1.000  B
  B102     1.0000 0.87800  0.10850  0.56200  Biso   1.000  B
  B103     1.0000 0.92170  0.12460  0.65800  Biso   1.000  B
  B104     1.0000 0.89600  0.13100  0.80100  Biso   1.000  B
  H97      1.0000 0.80849  0.15290  0.58148  Biso   1.000  H
  H98      1.0000 0.82124  0.11261  0.82846  Biso   1.000  H
  H99      1.0000 0.84751  0.19652  0.77715  Biso   1.000  H
  H100     1.0000 0.89429  0.05500  0.73392  Biso   1.000  H
  H101     1.0000 0.89268  0.18421  0.52320  Biso   1.000  H
  H102     1.0000 0.88300  0.09652  0.48019  Biso   1.000  H
  H103     1.0000 0.95196  0.11671  0.63722  Biso   1.000  H
  H104     1.0000 0.90724  0.12747  0.88405  Biso   1.000  H
  O53      1.0000 0.28500  0.54460  0.19200  Biso   1.000  O
  O54      1.0000 0.45570  0.72640  0.16820  Biso   1.000  O
  O55      1.0000 0.30880  0.54500  0.01000  Biso   1.000  O
  O56      1.0000 0.45580  0.70220  0.36020  Biso   1.000  O
  C53      1.0000 0.30790  0.55700  0.11550  Biso   1.000  C
  C54      1.0000 0.34040  0.59240  0.14740  Biso   1.000  C
  C55      1.0000 0.44350  0.70200  0.25410  Biso   1.000  C
  C56      1.0000 0.41110  0.66810  0.22170  Biso   1.000  C
  B105     1.0000 0.33480  0.64120  0.12100  Biso   1.000  B
  B106     1.0000 0.34260  0.61800  0.26300  Biso   1.000  B
  B107     1.0000 0.36130  0.67090  0.24000  Biso   1.000  B
  B108     1.0000 0.38450  0.58430  0.21000  Biso   1.000  B
  B109     1.0000 0.38760  0.66390  0.09100  Biso   1.000  B
  B110     1.0000 0.37800  0.60850  0.06200  Biso   1.000  B
  B111     1.0000 0.42170  0.62460  0.15800  Biso   1.000  B
  B112     1.0000 0.39600  0.63100  0.30100  Biso   1.000  B
  H105     1.0000 0.30849  0.65290  0.08148  Biso   1.000  H
  H106     1.0000 0.32124  0.61261  0.32846  Biso   1.000  H
  H107     1.0000 0.34751  0.69652  0.27715  Biso   1.000  H
  H108     1.0000 0.39429  0.55500  0.23392  Biso   1.000  H
  H109     1.0000 0.39268  0.68421  0.02320  Biso   1.000  H
  H110     1.0000 0.38300  0.59652  0.98019  Biso   1.000  H
  H111     1.0000 0.45196  0.61671  0.13722  Biso   1.000  H
  H112     1.0000 0.40724  0.62747  0.38405  Biso   1.000  H
  O57      1.0000 0.71500  0.45540  0.19200  Biso   1.000  O
  O58      1.0000 0.54430  0.27360  0.16820  Biso   1.000  O
  O59      1.0000 0.69120  0.45500  0.01000  Biso   1.000  O
  O60      1.0000 0.54420  0.29780  0.36020  Biso   1.000  O
  C57      1.0000 0.69210  0.44300  0.11550  Biso   1.000  C
  C58      1.0000 0.65960  0.40760  0.14740  Biso   1.000  C
  C59      1.0000 0.55650  0.29800  0.25410  Biso   1.000  C
  C60      1.0000 0.58890  0.33190  0.22170  Biso   1.000  C
  B113     1.0000 0.66520  0.35880  0.12100  Biso   1.000  B
  B114     1.0000 0.65740  0.38200  0.26300  Biso   1.000  B
  B115     1.0000 0.63870  0.32910  0.24000  Biso   1.000  B
  B116     1.0000 0.61550  0.41570  0.21000  Biso   1.000  B
  B117     1.0000 0.61240  0.33610  0.09100  Biso   1.000  B
  B118     1.0000 0.62200  0.39150  0.06200  Biso   1.000  B
  B119     1.0000 0.57830  0.37540  0.15800  Biso   1.000  B
  B120     1.0000 0.60400  0.36900  0.30100  Biso   1.000  B
  H113     1.0000 0.69151  0.34710  0.08148  Biso   1.000  H
  H114     1.0000 0.67876  0.38739  0.32846  Biso   1.000  H
  H115     1.0000 0.65249  0.30348  0.27715  Biso   1.000  H
  H116     1.0000 0.60571  0.44500  0.23392  Biso   1.000  H
  H117     1.0000 0.60732  0.31579  0.02320  Biso   1.000  H
  H118     1.0000 0.61700  0.40348  0.98019  Biso   1.000  H
  H119     1.0000 0.54804  0.38329  0.13722  Biso   1.000  H
  H120     1.0000 0.59276  0.37253  0.38405  Biso   1.000  H
  O61      1.0000 0.21500  0.95540  0.69200  Biso   1.000  O
  O62      1.0000 0.04430  0.77360  0.66820  Biso   1.000  O
  O63      1.0000 0.19120  0.95500  0.51000  Biso   1.000  O
  O64      1.0000 0.04420  0.79780  0.86020  Biso   1.000  O
  C61      1.0000 0.19210  0.94300  0.61550  Biso   1.000  C
  C62      1.0000 0.15960  0.90760  0.64740  Biso   1.000  C
  C63      1.0000 0.05650  0.79800  0.75410  Biso   1.000  C
  C64      1.0000 0.08890  0.83190  0.72170  Biso   1.000  C
  B121     1.0000 0.16520  0.85880  0.62100  Biso   1.000  B
  B122     1.0000 0.15740  0.88200  0.76300  Biso   1.000  B
  B123     1.0000 0.13870  0.82910  0.74000  Biso   1.000  B
  B124     1.0000 0.11550  0.91570  0.71000  Biso   1.000  B
  B125     1.0000 0.11240  0.83610  0.59100  Biso   1.000  B
  B126     1.0000 0.12200  0.89150  0.56200  Biso   1.000  B
  B127     1.0000 0.07830  0.87540  0.65800  Biso   1.000  B
  B128     1.0000 0.10400  0.86900  0.80100  Biso   1.000  B
  H121     1.0000 0.19151  0.84710  0.58148  Biso   1.000  H
  H122     1.0000 0.17876  0.88739  0.82846  Biso   1.000  H
  H123     1.0000 0.15249  0.80348  0.77715  Biso   1.000  H
  H124     1.0000 0.10571  0.94500  0.73392  Biso   1.000  H
  H125     1.0000 0.10732  0.81579  0.52320  Biso   1.000  H
  H126     1.0000 0.11700  0.90348  0.48019  Biso   1.000  H
  H127     1.0000 0.04804  0.88329  0.63722  Biso   1.000  H
  H128     1.0000 0.09276  0.87253  0.88405  Biso   1.000  H
  Cu1      1.0000 0.50000  0.22939  0.19550  Biso   1.000  Cu
  Cu2      1.0000 0.50000  0.25836  0.42190  Biso   1.000  Cu
  Cu3      1.0000 0.00000  0.27061  0.69550  Biso   1.000  Cu
  Cu4      1.0000 0.00000  0.24164  0.92190  Biso   1.000  Cu
  Cu5      1.0000 0.77061  0.00000  0.44550  Biso   1.000  Cu
  Cu6      1.0000 0.74164  0.00000  0.67190  Biso   1.000  Cu
  Cu7      1.0000 0.27061  0.50000  0.94550  Biso   1.000  Cu
  Cu8      1.0000 0.24164  0.50000  0.17190  Biso   1.000  Cu
  Cu9      1.0000 0.72939  0.50000  0.94550  Biso   1.000  Cu
  Cu10     1.0000 0.75836  0.50000  0.17190  Biso   1.000  Cu
  Cu11     1.0000 0.22939  0.00000  0.44550  Biso   1.000  Cu
  Cu12     1.0000 0.25836  0.00000  0.67190  Biso   1.000  Cu
  Cu13     1.0000 0.50000  0.77061  0.19550  Biso   1.000  Cu
  Cu14     1.0000 0.50000  0.74164  0.42190  Biso   1.000  Cu
  Cu15     1.0000 0.00000  0.72939  0.69550  Biso   1.000  Cu
  Cu16     1.0000 0.00000  0.75836  0.92190  Biso   1.000  Cu
