data_image0
_cell_length_a       20.8189
_cell_length_b       23.3745
_cell_length_c       12.7036
_cell_angle_alpha    90
_cell_angle_beta     90
_cell_angle_gamma    90

_symmetry_space_group_name_H-M    "P 1"
_symmetry_int_tables_number       1

loop_
  _symmetry_equiv_pos_as_xyz
  'x, y, z'

loop_
  _atom_site_label
  _atom_site_occupancy
  _atom_site_fract_x
  _atom_site_fract_y
  _atom_site_fract_z
  _atom_site_thermal_displace_type
  _atom_site_B_iso_or_equiv
  _atom_site_type_symbol
  Zn1      1.0000 0.26814  0.09942  0.05448  Biso   1.000  Zn
  Zn2      1.0000 0.17379  0.13582  0.23588  Biso   1.000  Zn
  Zn3      1.0000 0.25137  0.02363  0.27078  Biso   1.000  Zn
  Zn4      1.0000 0.32565  0.13507  0.28856  Biso   1.000  Zn
  O1       1.0000 0.25550  0.09898  0.21320  Biso   1.000  O
  O2       1.0000 0.64520  0.90830  0.91900  Biso   1.000  O
  O3       1.0000 0.32580  0.71320  0.79130  Biso   1.000  O
  O4       1.0000 0.10860  0.11930  0.12930  Biso   1.000  O
  O5       1.0000 0.68370  0.99410  0.87700  Biso   1.000  O
  O6       1.0000 0.29460  0.01051  0.03110  Biso   1.000  O
  O7       1.0000 0.23590  0.69050  0.87810  Biso   1.000  O
  O8       1.0000 0.83250  0.99510  0.83420  Biso   1.000  O
  O9       1.0000 0.39560  0.08450  0.21180  Biso   1.000  O
  O10      1.0000 0.26000  0.96190  0.17300  Biso   1.000  O
  O11      1.0000 0.87610  0.90780  0.84900  Biso   1.000  O
  O12      1.0000 0.17400  0.06780  0.02670  Biso   1.000  O
  C1       1.0000 0.64230  0.96160  0.91700  Biso   1.000  C
  O13      1.0000 0.36620  0.11713  0.05520  Biso   1.000  O
  C2       1.0000 0.12130  0.08280  0.05910  Biso   1.000  C
  C3       1.0000 0.87610  0.96090  0.85920  Biso   1.000  C
  C4       1.0000 0.27910  0.72340  0.85410  Biso   1.000  C
  C5       1.0000 0.27790  0.96720  0.07690  Biso   1.000  C
  C6       1.0000 0.40200  0.09040  0.11630  Biso   1.000  C
  C7       1.0000 0.06310  0.05430  0.01070  Biso   1.000  C
  C8       1.0000 0.93540  0.98840  0.90560  Biso   1.000  C
  B1       1.0000 0.96420  0.97580  0.01900  Biso   1.000  B
  B2       1.0000 0.05830  0.03090  0.89250  Biso   1.000  B
  B3       1.0000 0.99660  0.04250  0.06900  Biso   1.000  B
  B4       1.0000 0.00510  0.08590  0.95180  Biso   1.000  B
  B5       1.0000 0.00830  0.96790  0.89420  Biso   1.000  B
  B6       1.0000 0.05000  0.98720  0.01380  Biso   1.000  B
  B7       1.0000 0.97620  0.03810  0.84980  Biso   1.000  B
  B8       1.0000 0.93280  0.04550  0.97620  Biso   1.000  B
  H1       1.0000 0.93400  0.95600  0.07500  Biso   1.000  H
  H2       1.0000 0.09730  0.03500  0.84100  Biso   1.000  H
  H3       1.0000 0.98600  0.06100  0.14200  Biso   1.000  H
  H4       1.0000 0.00200  0.13070  0.94500  Biso   1.000  H
  H5       1.0000 0.01200  0.92990  0.85100  Biso   1.000  H
  H6       1.0000 0.08400  0.96290  0.05600  Biso   1.000  H
  H7       1.0000 0.95600  0.05100  0.77800  Biso   1.000  H
  H8       1.0000 0.88670  0.06200  0.99200  Biso   1.000  H
  C9       1.0000 0.45910  0.05960  0.06890  Biso   1.000  C
  C10      1.0000 0.58550  0.99040  0.96670  Biso   1.000  C
  B9       1.0000 0.51290  0.96980  0.95850  Biso   1.000  B
  B10      1.0000 0.52610  0.04870  0.12740  Biso   1.000  B
  B11      1.0000 0.46310  0.03340  0.95320  Biso   1.000  B
  B12      1.0000 0.51560  0.08900  0.00260  Biso   1.000  B
  B13      1.0000 0.55720  0.98110  0.08230  Biso   1.000  B
  B14      1.0000 0.47140  0.99240  0.07640  Biso   1.000  B
  B15      1.0000 0.58880  0.04970  0.02980  Biso   1.000  B
  B16      1.0000 0.54340  0.03800  0.90650  Biso   1.000  B
  H9       1.0000 0.50100  0.94100  0.89800  Biso   1.000  H
  H10      1.0000 0.53300  0.06300  0.20500  Biso   1.000  H
  H11      1.0000 0.42790  0.04300  0.89600  Biso   1.000  H
  H12      1.0000 0.51600  0.13280  0.98400  Biso   1.000  H
  H13      1.0000 0.58200  0.94920  0.12400  Biso   1.000  H
  H14      1.0000 0.43500  0.96900  0.11400  Biso   1.000  H
  H15      1.0000 0.63530  0.06700  0.03100  Biso   1.000  H
  H16      1.0000 0.55700  0.04600  0.82800  Biso   1.000  H
  C11      1.0000 0.27920  0.91100  0.01850  Biso   1.000  C
  C12      1.0000 0.28240  0.78170  0.90450  Biso   1.000  C
  B17      1.0000 0.34360  0.82030  0.92750  Biso   1.000  B
  B18      1.0000 0.23120  0.88940  0.92830  Biso   1.000  B
  B19      1.0000 0.32750  0.86030  0.04690  Biso   1.000  B
  B20      1.0000 0.24100  0.85590  0.05990  Biso   1.000  B
  B21      1.0000 0.27520  0.84120  0.84400  Biso   1.000  B
  B22      1.0000 0.32000  0.89450  0.91660  Biso   1.000  B
  B23      1.0000 0.21910  0.81360  0.94560  Biso   1.000  B
  B24      1.0000 0.28830  0.79350  0.02900  Biso   1.000  B
  H17      1.0000 0.38900  0.80040  0.93100  Biso   1.000  H
  H18      1.0000 0.19500  0.91650  0.89800  Biso   1.000  H
  H19      1.0000 0.35690  0.86300  0.11400  Biso   1.000  H
  H20      1.0000 0.21300  0.85600  0.12900  Biso   1.000  H
  H21      1.0000 0.27300  0.83600  0.76200  Biso   1.000  H
  H22      1.0000 0.34900  0.92720  0.88600  Biso   1.000  H
  H23      1.0000 0.17770  0.78800  0.93900  Biso   1.000  H
  H24      1.0000 0.29500  0.75720  0.07600  Biso   1.000  H
  C13      1.0000 0.27870  0.90940  0.02600  Biso   1.000  C
  C14      1.0000 0.27720  0.78200  0.90500  Biso   1.000  C
  B25      1.0000 0.33470  0.80610  0.97420  Biso   1.000  B
  B26      1.0000 0.25480  0.89790  0.90800  Biso   1.000  B
  B27      1.0000 0.29990  0.85000  0.07710  Biso   1.000  B
  B28      1.0000 0.22000  0.86510  0.02830  Biso   1.000  B
  B29      1.0000 0.30260  0.84040  0.85480  Biso   1.000  B
  B30      1.0000 0.33660  0.88300  0.95970  Biso   1.000  B
  B31      1.0000 0.21970  0.82750  0.90330  Biso   1.000  B
  B32      1.0000 0.25280  0.79380  0.02330  Biso   1.000  B
  H25      1.0000 0.36800  0.77680  0.00600  Biso   1.000  H
  H26      1.0000 0.23900  0.93170  0.86000  Biso   1.000  H
  H27      1.0000 0.30900  0.84600  0.15800  Biso   1.000  H
  H28      1.0000 0.17770  0.87300  0.07100  Biso   1.000  H
  H29      1.0000 0.32040  0.83400  0.77800  Biso   1.000  H
  H30      1.0000 0.37900  0.90780  0.95800  Biso   1.000  H
  H31      1.0000 0.17800  0.81200  0.86500  Biso   1.000  H
  H32      1.0000 0.23700  0.75770  0.06500  Biso   1.000  H
  Zn5      1.0000 0.73186  0.90058  0.55448  Biso   1.000  Zn
  Zn6      1.0000 0.82621  0.86418  0.73588  Biso   1.000  Zn
  Zn7      1.0000 0.74863  0.97637  0.77078  Biso   1.000  Zn
  Zn8      1.0000 0.67435  0.86493  0.78856  Biso   1.000  Zn
  O14      1.0000 0.74450  0.90102  0.71320  Biso   1.000  O
  O15      1.0000 0.35480  0.09170  0.41900  Biso   1.000  O
  O16      1.0000 0.67420  0.28680  0.29130  Biso   1.000  O
  O17      1.0000 0.89140  0.88070  0.62930  Biso   1.000  O
  O18      1.0000 0.31630  0.00590  0.37700  Biso   1.000  O
  O19      1.0000 0.70540  0.98949  0.53110  Biso   1.000  O
  O20      1.0000 0.76410  0.30950  0.37810  Biso   1.000  O
  O21      1.0000 0.16750  0.00490  0.33420  Biso   1.000  O
  O22      1.0000 0.60440  0.91550  0.71180  Biso   1.000  O
  O23      1.0000 0.74000  0.03810  0.67300  Biso   1.000  O
  O24      1.0000 0.12390  0.09220  0.34900  Biso   1.000  O
  O25      1.0000 0.82600  0.93220  0.52670  Biso   1.000  O
  C15      1.0000 0.35770  0.03840  0.41700  Biso   1.000  C
  O26      1.0000 0.63380  0.88287  0.55520  Biso   1.000  O
  C16      1.0000 0.87870  0.91720  0.55910  Biso   1.000  C
  C17      1.0000 0.12390  0.03910  0.35920  Biso   1.000  C
  C18      1.0000 0.72090  0.27660  0.35410  Biso   1.000  C
  C19      1.0000 0.72210  0.03280  0.57690  Biso   1.000  C
  C20      1.0000 0.59800  0.90960  0.61630  Biso   1.000  C
  C21      1.0000 0.93690  0.94570  0.51070  Biso   1.000  C
  C22      1.0000 0.06460  0.01160  0.40560  Biso   1.000  C
  B33      1.0000 0.03580  0.02420  0.51900  Biso   1.000  B
  B34      1.0000 0.94170  0.96910  0.39250  Biso   1.000  B
  B35      1.0000 0.00340  0.95750  0.56900  Biso   1.000  B
  B36      1.0000 0.99490  0.91410  0.45180  Biso   1.000  B
  B37      1.0000 0.99170  0.03210  0.39420  Biso   1.000  B
  B38      1.0000 0.95000  0.01280  0.51380  Biso   1.000  B
  B39      1.0000 0.02380  0.96190  0.34980  Biso   1.000  B
  B40      1.0000 0.06720  0.95450  0.47620  Biso   1.000  B
  H33      1.0000 0.06600  0.04400  0.57500  Biso   1.000  H
  H34      1.0000 0.90270  0.96500  0.34100  Biso   1.000  H
  H35      1.0000 0.01400  0.93900  0.64200  Biso   1.000  H
  H36      1.0000 0.99800  0.86930  0.44500  Biso   1.000  H
  H37      1.0000 0.98800  0.07010  0.35100  Biso   1.000  H
  H38      1.0000 0.91600  0.03710  0.55600  Biso   1.000  H
  H39      1.0000 0.04400  0.94900  0.27800  Biso   1.000  H
  H40      1.0000 0.11330  0.93800  0.49200  Biso   1.000  H
  C23      1.0000 0.54090  0.94040  0.56890  Biso   1.000  C
  C24      1.0000 0.41450  0.00960  0.46670  Biso   1.000  C
  B41      1.0000 0.48710  0.03020  0.45850  Biso   1.000  B
  B42      1.0000 0.47390  0.95130  0.62740  Biso   1.000  B
  B43      1.0000 0.53690  0.96660  0.45320  Biso   1.000  B
  B44      1.0000 0.48440  0.91100  0.50260  Biso   1.000  B
  B45      1.0000 0.44280  0.01890  0.58230  Biso   1.000  B
  B46      1.0000 0.52860  0.00760  0.57640  Biso   1.000  B
  B47      1.0000 0.41120  0.95030  0.52980  Biso   1.000  B
  B48      1.0000 0.45660  0.96200  0.40650  Biso   1.000  B
  H41      1.0000 0.49900  0.05900  0.39800  Biso   1.000  H
  H42      1.0000 0.46700  0.93700  0.70500  Biso   1.000  H
  H43      1.0000 0.57210  0.95700  0.39600  Biso   1.000  H
  H44      1.0000 0.48400  0.86720  0.48400  Biso   1.000  H
  H45      1.0000 0.41800  0.05080  0.62400  Biso   1.000  H
  H46      1.0000 0.56500  0.03100  0.61400  Biso   1.000  H
  H47      1.0000 0.36470  0.93300  0.53100  Biso   1.000  H
  H48      1.0000 0.44300  0.95400  0.32800  Biso   1.000  H
  C25      1.0000 0.72080  0.08900  0.51850  Biso   1.000  C
  C26      1.0000 0.71760  0.21830  0.40450  Biso   1.000  C
  B49      1.0000 0.65640  0.17970  0.42750  Biso   1.000  B
  B50      1.0000 0.76880  0.11060  0.42830  Biso   1.000  B
  B51      1.0000 0.67250  0.13970  0.54690  Biso   1.000  B
  B52      1.0000 0.75900  0.14410  0.55990  Biso   1.000  B
  B53      1.0000 0.72480  0.15880  0.34400  Biso   1.000  B
  B54      1.0000 0.68000  0.10550  0.41660  Biso   1.000  B
  B55      1.0000 0.78090  0.18640  0.44560  Biso   1.000  B
  B56      1.0000 0.71170  0.20650  0.52900  Biso   1.000  B
  H49      1.0000 0.61100  0.19960  0.43100  Biso   1.000  H
  H50      1.0000 0.80500  0.08350  0.39800  Biso   1.000  H
  H51      1.0000 0.64310  0.13700  0.61400  Biso   1.000  H
  H52      1.0000 0.78700  0.14400  0.62900  Biso   1.000  H
  H53      1.0000 0.72700  0.16400  0.26200  Biso   1.000  H
  H54      1.0000 0.65100  0.07280  0.38600  Biso   1.000  H
  H55      1.0000 0.82230  0.21200  0.43900  Biso   1.000  H
  H56      1.0000 0.70500  0.24280  0.57600  Biso   1.000  H
  C27      1.0000 0.72130  0.09060  0.52600  Biso   1.000  C
  C28      1.0000 0.72280  0.21800  0.40500  Biso   1.000  C
  B57      1.0000 0.66530  0.19390  0.47420  Biso   1.000  B
  B58      1.0000 0.74520  0.10210  0.40800  Biso   1.000  B
  B59      1.0000 0.70010  0.15000  0.57710  Biso   1.000  B
  B60      1.0000 0.78000  0.13490  0.52830  Biso   1.000  B
  B61      1.0000 0.69740  0.15960  0.35480  Biso   1.000  B
  B62      1.0000 0.66340  0.11700  0.45970  Biso   1.000  B
  B63      1.0000 0.78030  0.17250  0.40330  Biso   1.000  B
  B64      1.0000 0.74720  0.20620  0.52330  Biso   1.000  B
  H57      1.0000 0.63200  0.22320  0.50600  Biso   1.000  H
  H58      1.0000 0.76100  0.06830  0.36000  Biso   1.000  H
  H59      1.0000 0.69100  0.15400  0.65800  Biso   1.000  H
  H60      1.0000 0.82230  0.12700  0.57100  Biso   1.000  H
  H61      1.0000 0.67960  0.16600  0.27800  Biso   1.000  H
  H62      1.0000 0.62100  0.09220  0.45800  Biso   1.000  H
  H63      1.0000 0.82200  0.18800  0.36500  Biso   1.000  H
  H64      1.0000 0.76300  0.24230  0.56500  Biso   1.000  H
  Zn9      1.0000 0.76814  0.40058  0.05448  Biso   1.000  Zn
  Zn10     1.0000 0.67379  0.36418  0.23588  Biso   1.000  Zn
  Zn11     1.0000 0.75137  0.47637  0.27078  Biso   1.000  Zn
  Zn12     1.0000 0.82565  0.36493  0.28856  Biso   1.000  Zn
  O27      1.0000 0.75550  0.40102  0.21320  Biso   1.000  O
  O28      1.0000 0.14520  0.59170  0.91900  Biso   1.000  O
  O29      1.0000 0.82580  0.78680  0.79130  Biso   1.000  O
  O30      1.0000 0.60860  0.38070  0.12930  Biso   1.000  O
  O31      1.0000 0.18370  0.50590  0.87700  Biso   1.000  O
  O32      1.0000 0.79460  0.48949  0.03110  Biso   1.000  O
  O33      1.0000 0.73590  0.80950  0.87810  Biso   1.000  O
  O34      1.0000 0.33250  0.50490  0.83420  Biso   1.000  O
  O35      1.0000 0.89560  0.41550  0.21180  Biso   1.000  O
  O36      1.0000 0.76000  0.53810  0.17300  Biso   1.000  O
  O37      1.0000 0.37610  0.59220  0.84900  Biso   1.000  O
  O38      1.0000 0.67400  0.43220  0.02670  Biso   1.000  O
  C29      1.0000 0.14230  0.53840  0.91700  Biso   1.000  C
  O39      1.0000 0.86620  0.38287  0.05520  Biso   1.000  O
  C30      1.0000 0.62130  0.41720  0.05910  Biso   1.000  C
  C31      1.0000 0.37610  0.53910  0.85920  Biso   1.000  C
  C32      1.0000 0.77910  0.77660  0.85410  Biso   1.000  C
  C33      1.0000 0.77790  0.53280  0.07690  Biso   1.000  C
  C34      1.0000 0.90200  0.40960  0.11630  Biso   1.000  C
  C35      1.0000 0.56310  0.44570  0.01070  Biso   1.000  C
  C36      1.0000 0.43540  0.51160  0.90560  Biso   1.000  C
  B65      1.0000 0.46420  0.52420  0.01900  Biso   1.000  B
  B66      1.0000 0.55830  0.46910  0.89250  Biso   1.000  B
  B67      1.0000 0.49660  0.45750  0.06900  Biso   1.000  B
  B68      1.0000 0.50510  0.41410  0.95180  Biso   1.000  B
  B69      1.0000 0.50830  0.53210  0.89420  Biso   1.000  B
  B70      1.0000 0.55000  0.51280  0.01380  Biso   1.000  B
  B71      1.0000 0.47620  0.46190  0.84980  Biso   1.000  B
  B72      1.0000 0.43280  0.45450  0.97620  Biso   1.000  B
  H65      1.0000 0.43400  0.54400  0.07500  Biso   1.000  H
  H66      1.0000 0.59730  0.46500  0.84100  Biso   1.000  H
  H67      1.0000 0.48600  0.43900  0.14200  Biso   1.000  H
  H68      1.0000 0.50200  0.36930  0.94500  Biso   1.000  H
  H69      1.0000 0.51200  0.57010  0.85100  Biso   1.000  H
  H70      1.0000 0.58400  0.53710  0.05600  Biso   1.000  H
  H71      1.0000 0.45600  0.44900  0.77800  Biso   1.000  H
  H72      1.0000 0.38670  0.43800  0.99200  Biso   1.000  H
  C37      1.0000 0.95910  0.44040  0.06890  Biso   1.000  C
  C38      1.0000 0.08550  0.50960  0.96670  Biso   1.000  C
  B73      1.0000 0.01290  0.53020  0.95850  Biso   1.000  B
  B74      1.0000 0.02610  0.45130  0.12740  Biso   1.000  B
  B75      1.0000 0.96310  0.46660  0.95320  Biso   1.000  B
  B76      1.0000 0.01560  0.41100  0.00260  Biso   1.000  B
  B77      1.0000 0.05720  0.51890  0.08230  Biso   1.000  B
  B78      1.0000 0.97140  0.50760  0.07640  Biso   1.000  B
  B79      1.0000 0.08880  0.45030  0.02980  Biso   1.000  B
  B80      1.0000 0.04340  0.46200  0.90650  Biso   1.000  B
  H73      1.0000 0.00100  0.55900  0.89800  Biso   1.000  H
  H74      1.0000 0.03300  0.43700  0.20500  Biso   1.000  H
  H75      1.0000 0.92790  0.45700  0.89600  Biso   1.000  H
  H76      1.0000 0.01600  0.36720  0.98400  Biso   1.000  H
  H77      1.0000 0.08200  0.55080  0.12400  Biso   1.000  H
  H78      1.0000 0.93500  0.53100  0.11400  Biso   1.000  H
  H79      1.0000 0.13530  0.43300  0.03100  Biso   1.000  H
  H80      1.0000 0.05700  0.45400  0.82800  Biso   1.000  H
  C39      1.0000 0.77920  0.58900  0.01850  Biso   1.000  C
  C40      1.0000 0.78240  0.71830  0.90450  Biso   1.000  C
  B81      1.0000 0.84360  0.67970  0.92750  Biso   1.000  B
  B82      1.0000 0.73120  0.61060  0.92830  Biso   1.000  B
  B83      1.0000 0.82750  0.63970  0.04690  Biso   1.000  B
  B84      1.0000 0.74100  0.64410  0.05990  Biso   1.000  B
  B85      1.0000 0.77520  0.65880  0.84400  Biso   1.000  B
  B86      1.0000 0.82000  0.60550  0.91660  Biso   1.000  B
  B87      1.0000 0.71910  0.68640  0.94560  Biso   1.000  B
  B88      1.0000 0.78830  0.70650  0.02900  Biso   1.000  B
  H81      1.0000 0.88900  0.69960  0.93100  Biso   1.000  H
  H82      1.0000 0.69500  0.58350  0.89800  Biso   1.000  H
  H83      1.0000 0.85690  0.63700  0.11400  Biso   1.000  H
  H84      1.0000 0.71300  0.64400  0.12900  Biso   1.000  H
  H85      1.0000 0.77300  0.66400  0.76200  Biso   1.000  H
  H86      1.0000 0.84900  0.57280  0.88600  Biso   1.000  H
  H87      1.0000 0.67770  0.71200  0.93900  Biso   1.000  H
  H88      1.0000 0.79500  0.74280  0.07600  Biso   1.000  H
  C41      1.0000 0.77870  0.59060  0.02600  Biso   1.000  C
  C42      1.0000 0.77720  0.71800  0.90500  Biso   1.000  C
  B89      1.0000 0.83470  0.69390  0.97420  Biso   1.000  B
  B90      1.0000 0.75480  0.60210  0.90800  Biso   1.000  B
  B91      1.0000 0.79990  0.65000  0.07710  Biso   1.000  B
  B92      1.0000 0.72000  0.63490  0.02830  Biso   1.000  B
  B93      1.0000 0.80260  0.65960  0.85480  Biso   1.000  B
  B94      1.0000 0.83660  0.61700  0.95970  Biso   1.000  B
  B95      1.0000 0.71970  0.67250  0.90330  Biso   1.000  B
  B96      1.0000 0.75280  0.70620  0.02330  Biso   1.000  B
  H89      1.0000 0.86800  0.72320  0.00600  Biso   1.000  H
  H90      1.0000 0.73900  0.56830  0.86000  Biso   1.000  H
  H91      1.0000 0.80900  0.65400  0.15800  Biso   1.000  H
  H92      1.0000 0.67770  0.62700  0.07100  Biso   1.000  H
  H93      1.0000 0.82040  0.66600  0.77800  Biso   1.000  H
  H94      1.0000 0.87900  0.59220  0.95800  Biso   1.000  H
  H95      1.0000 0.67800  0.68800  0.86500  Biso   1.000  H
  H96      1.0000 0.73700  0.74230  0.06500  Biso   1.000  H
  Zn13     1.0000 0.23186  0.59942  0.55448  Biso   1.000  Zn
  Zn14     1.0000 0.32621  0.63582  0.73588  Biso   1.000  Zn
  Zn15     1.0000 0.24863  0.52363  0.77078  Biso   1.000  Zn
  Zn16     1.0000 0.17435  0.63507  0.78856  Biso   1.000  Zn
  O40      1.0000 0.24450  0.59898  0.71320  Biso   1.000  O
  O41      1.0000 0.85480  0.40830  0.41900  Biso   1.000  O
  O42      1.0000 0.17420  0.21320  0.29130  Biso   1.000  O
  O43      1.0000 0.39140  0.61930  0.62930  Biso   1.000  O
  O44      1.0000 0.81630  0.49410  0.37700  Biso   1.000  O
  O45      1.0000 0.20540  0.51051  0.53110  Biso   1.000  O
  O46      1.0000 0.26410  0.19050  0.37810  Biso   1.000  O
  O47      1.0000 0.66750  0.49510  0.33420  Biso   1.000  O
  O48      1.0000 0.10440  0.58450  0.71180  Biso   1.000  O
  O49      1.0000 0.24000  0.46190  0.67300  Biso   1.000  O
  O50      1.0000 0.62390  0.40780  0.34900  Biso   1.000  O
  O51      1.0000 0.32600  0.56780  0.52670  Biso   1.000  O
  C43      1.0000 0.85770  0.46160  0.41700  Biso   1.000  C
  O52      1.0000 0.13380  0.61713  0.55520  Biso   1.000  O
  C44      1.0000 0.37870  0.58280  0.55910  Biso   1.000  C
  C45      1.0000 0.62390  0.46090  0.35920  Biso   1.000  C
  C46      1.0000 0.22090  0.22340  0.35410  Biso   1.000  C
  C47      1.0000 0.22210  0.46720  0.57690  Biso   1.000  C
  C48      1.0000 0.09800  0.59040  0.61630  Biso   1.000  C
  C49      1.0000 0.43690  0.55430  0.51070  Biso   1.000  C
  C50      1.0000 0.56460  0.48840  0.40560  Biso   1.000  C
  B97      1.0000 0.53580  0.47580  0.51900  Biso   1.000  B
  B98      1.0000 0.44170  0.53090  0.39250  Biso   1.000  B
  B99      1.0000 0.50340  0.54250  0.56900  Biso   1.000  B
  B100     1.0000 0.49490  0.58590  0.45180  Biso   1.000  B
  B101     1.0000 0.49170  0.46790  0.39420  Biso   1.000  B
  B102     1.0000 0.45000  0.48720  0.51380  Biso   1.000  B
  B103     1.0000 0.52380  0.53810  0.34980  Biso   1.000  B
  B104     1.0000 0.56720  0.54550  0.47620  Biso   1.000  B
  H97      1.0000 0.56600  0.45600  0.57500  Biso   1.000  H
  H98      1.0000 0.40270  0.53500  0.34100  Biso   1.000  H
  H99      1.0000 0.51400  0.56100  0.64200  Biso   1.000  H
  H100     1.0000 0.49800  0.63070  0.44500  Biso   1.000  H
  H101     1.0000 0.48800  0.42990  0.35100  Biso   1.000  H
  H102     1.0000 0.41600  0.46290  0.55600  Biso   1.000  H
  H103     1.0000 0.54400  0.55100  0.27800  Biso   1.000  H
  H104     1.0000 0.61330  0.56200  0.49200  Biso   1.000  H
  C51      1.0000 0.04090  0.55960  0.56890  Biso   1.000  C
  C52      1.0000 0.91450  0.49040  0.46670  Biso   1.000  C
  B105     1.0000 0.98710  0.46980  0.45850  Biso   1.000  B
  B106     1.0000 0.97390  0.54870  0.62740  Biso   1.000  B
  B107     1.0000 0.03690  0.53340  0.45320  Biso   1.000  B
  B108     1.0000 0.98440  0.58900  0.50260  Biso   1.000  B
  B109     1.0000 0.94280  0.48110  0.58230  Biso   1.000  B
  B110     1.0000 0.02860  0.49240  0.57640  Biso   1.000  B
  B111     1.0000 0.91120  0.54970  0.52980  Biso   1.000  B
  B112     1.0000 0.95660  0.53800  0.40650  Biso   1.000  B
  H105     1.0000 0.99900  0.44100  0.39800  Biso   1.000  H
  H106     1.0000 0.96700  0.56300  0.70500  Biso   1.000  H
  H107     1.0000 0.07210  0.54300  0.39600  Biso   1.000  H
  H108     1.0000 0.98400  0.63280  0.48400  Biso   1.000  H
  H109     1.0000 0.91800  0.44920  0.62400  Biso   1.000  H
  H110     1.0000 0.06500  0.46900  0.61400  Biso   1.000  H
  H111     1.0000 0.86470  0.56700  0.53100  Biso   1.000  H
  H112     1.0000 0.94300  0.54600  0.32800  Biso   1.000  H
  C53      1.0000 0.22080  0.41100  0.51850  Biso   1.000  C
  C54      1.0000 0.21760  0.28170  0.40450  Biso   1.000  C
  B113     1.0000 0.15640  0.32030  0.42750  Biso   1.000  B
  B114     1.0000 0.26880  0.38940  0.42830  Biso   1.000  B
  B115     1.0000 0.17250  0.36030  0.54690  Biso   1.000  B
  B116     1.0000 0.25900  0.35590  0.55990  Biso   1.000  B
  B117     1.0000 0.22480  0.34120  0.34400  Biso   1.000  B
  B118     1.0000 0.18000  0.39450  0.41660  Biso   1.000  B
  B119     1.0000 0.28090  0.31360  0.44560  Biso   1.000  B
  B120     1.0000 0.21170  0.29350  0.52900  Biso   1.000  B
  H113     1.0000 0.11100  0.30040  0.43100  Biso   1.000  H
  H114     1.0000 0.30500  0.41650  0.39800  Biso   1.000  H
  H115     1.0000 0.14310  0.36300  0.61400  Biso   1.000  H
  H116     1.0000 0.28700  0.35600  0.62900  Biso   1.000  H
  H117     1.0000 0.22700  0.33600  0.26200  Biso   1.000  H
  H118     1.0000 0.15100  0.42720  0.38600  Biso   1.000  H
  H119     1.0000 0.32230  0.28800  0.43900  Biso   1.000  H
  H120     1.0000 0.20500  0.25720  0.57600  Biso   1.000  H
  C55      1.0000 0.22130  0.40940  0.52600  Biso   1.000  C
  C56      1.0000 0.22280  0.28200  0.40500  Biso   1.000  C
  B121     1.0000 0.16530  0.30610  0.47420  Biso   1.000  B
  B122     1.0000 0.24520  0.39790  0.40800  Biso   1.000  B
  B123     1.0000 0.20010  0.35000  0.57710  Biso   1.000  B
  B124     1.0000 0.28000  0.36510  0.52830  Biso   1.000  B
  B125     1.0000 0.19740  0.34040  0.35480  Biso   1.000  B
  B126     1.0000 0.16340  0.38300  0.45970  Biso   1.000  B
  B127     1.0000 0.28030  0.32750  0.40330  Biso   1.000  B
  B128     1.0000 0.24720  0.29380  0.52330  Biso   1.000  B
  H121     1.0000 0.13200  0.27680  0.50600  Biso   1.000  H
  H122     1.0000 0.26100  0.43170  0.36000  Biso   1.000  H
  H123     1.0000 0.19100  0.34600  0.65800  Biso   1.000  H
  H124     1.0000 0.32230  0.37300  0.57100  Biso   1.000  H
  H125     1.0000 0.17960  0.33400  0.27800  Biso   1.000  H
  H126     1.0000 0.12100  0.40780  0.45800  Biso   1.000  H
  H127     1.0000 0.32200  0.31200  0.36500  Biso   1.000  H
  H128     1.0000 0.26300  0.25770  0.56500  Biso   1.000  H
