data_image0
_cell_length_a       12.997
_cell_length_b       13.106
_cell_length_c       17.213
_cell_angle_alpha    93.895
_cell_angle_beta     107.639
_cell_angle_gamma    95.018

_symmetry_space_group_name_H-M    "P 1"
_symmetry_int_tables_number       1

loop_
  _symmetry_equiv_pos_as_xyz
  'x, y, z'

loop_
  _atom_site_label
  _atom_site_occupancy
  _atom_site_fract_x
  _atom_site_fract_y
  _atom_site_fract_z
  _atom_site_thermal_displace_type
  _atom_site_B_iso_or_equiv
  _atom_site_type_symbol
  C1       1.0000 0.17240  0.59640  0.57920  Biso   1.000  C
  H1       1.0000 0.11940  0.54020  0.56030  Biso   1.000  H
  C2       1.0000 0.25070  0.59570  0.65470  Biso   1.000  C
  H2       1.0000 0.24810  0.54140  0.68630  Biso   1.000  H
  C3       1.0000 0.33230  0.67660  0.68250  Biso   1.000  C
  C4       1.0000 0.32920  0.75830  0.63430  Biso   1.000  C
  H3       1.0000 0.38200  0.81480  0.65170  Biso   1.000  H
  C5       1.0000 0.24700  0.75490  0.56040  Biso   1.000  C
  H4       1.0000 0.24520  0.81020  0.52920  Biso   1.000  H
  C6       1.0000 0.42460  0.67400  0.75990  Biso   1.000  C
  C7       1.0000 0.52650  0.65430  0.75360  Biso   1.000  C
  C8       1.0000 0.54530  0.62950  0.67680  Biso   1.000  C
  H5       1.0000 0.48800  0.62660  0.62840  Biso   1.000  H
  C9       1.0000 0.64370  0.61020  0.67310  Biso   1.000  C
  H6       1.0000 0.65330  0.59360  0.62250  Biso   1.000  H
  C10      1.0000 0.73270  0.61480  0.74520  Biso   1.000  C
  H7       1.0000 0.80090  0.60340  0.74170  Biso   1.000  H
  C11      1.0000 0.71950  0.63570  0.81990  Biso   1.000  C
  H8       1.0000 0.77890  0.63810  0.86680  Biso   1.000  H
  C12      1.0000 0.61690  0.65400  0.82740  Biso   1.000  C
  C13      1.0000 0.59860  0.67050  0.90430  Biso   1.000  C
  C14      1.0000 0.49650  0.68680  0.91020  Biso   1.000  C
  C15      1.0000 0.47680  0.70360  0.98730  Biso   1.000  C
  H9       1.0000 0.53350  0.70260  0.03560  Biso   1.000  H
  C16      1.0000 0.37620  0.72120  0.99140  Biso   1.000  C
  H10      1.0000 0.36540  0.73240  0.04210  Biso   1.000  H
  C17      1.0000 0.28870  0.72250  0.91900  Biso   1.000  C
  H11      1.0000 0.22020  0.73290  0.92220  Biso   1.000  H
  C18      1.0000 0.30440  0.70840  0.84430  Biso   1.000  C
  H12      1.0000 0.24630  0.71110  0.79730  Biso   1.000  H
  C19      1.0000 0.40700  0.68980  0.83630  Biso   1.000  C
  C20      1.0000 0.69180  0.66630  0.98060  Biso   1.000  C
  C21      1.0000 0.76460  0.75140  0.01420  Biso   1.000  C
  H13      1.0000 0.75690  0.81270  0.98990  Biso   1.000  H
  C22      1.0000 0.85090  0.74560  0.08520  Biso   1.000  C
  H14      1.0000 0.89960  0.80430  0.10730  Biso   1.000  H
  C23      1.0000 0.79410  0.57850  0.08990  Biso   1.000  C
  H15      1.0000 0.80280  0.51820  0.11560  Biso   1.000  H
  C24      1.0000 0.70690  0.57960  0.01960  Biso   1.000  C
  H16      1.0000 0.65840  0.52050  0.99910  Biso   1.000  H
  C25      1.0000 0.00630  0.46680  0.31160  Biso   1.000  C
  C26      1.0000 0.00670  0.35190  0.30290  Biso   1.000  C
  C27      1.0000 0.97970  0.29820  0.22420  Biso   1.000  C
  H17      1.0000 0.96090  0.33400  0.17800  Biso   1.000  H
  C28      1.0000 0.98110  0.19340  0.21530  Biso   1.000  C
  H18      1.0000 0.96300  0.15890  0.16310  Biso   1.000  H
  C29      1.0000 0.00950  0.13740  0.28450  Biso   1.000  C
  C30      1.0000 0.03710  0.19140  0.36400  Biso   1.000  C
  C31      1.0000 0.03520  0.29900  0.37150  Biso   1.000  C
  H19      1.0000 0.05340  0.33460  0.42330  Biso   1.000  H
  C32      1.0000 0.06570  0.13450  0.43390  Biso   1.000  C
  H20      1.0000 0.08280  0.16870  0.48610  Biso   1.000  H
  C33      1.0000 0.06820  0.03110  0.42500  Biso   1.000  C
  H21      1.0000 0.08870  0.99550  0.47130  Biso   1.000  H
  C34      1.0000 0.03970  0.97650  0.34570  Biso   1.000  C
  C35      1.0000 0.01100  0.02940  0.27700  Biso   1.000  C
  H22      1.0000 0.99250  0.99360  0.22530  Biso   1.000  H
  C36      1.0000 0.83880  0.66190  0.35840  Biso   1.000  C
  C37      1.0000 0.03600  0.86170  0.33720  Biso   1.000  C
  C38      1.0000 0.20290  0.66580  0.29480  Biso   1.000  C
  C39      1.0000 0.31790  0.66300  0.29270  Biso   1.000  C
  C40      1.0000 0.40030  0.66380  0.36430  Biso   1.000  C
  H23      1.0000 0.38470  0.66590  0.41360  Biso   1.000  H
  C41      1.0000 0.50880  0.66150  0.36470  Biso   1.000  C
  C42      1.0000 0.53110  0.65850  0.28850  Biso   1.000  C
  C43      1.0000 0.44260  0.64410  0.21420  Biso   1.000  C
  H24      1.0000 0.45570  0.63220  0.16440  Biso   1.000  H
  C44      1.0000 0.33850  0.64770  0.21620  Biso   1.000  C
  H25      1.0000 0.28110  0.64020  0.16750  Biso   1.000  H
  C45      1.0000 0.64070  0.65960  0.28950  Biso   1.000  C
  H26      1.0000 0.65630  0.65900  0.24020  Biso   1.000  H
  C46      1.0000 0.72400  0.66150  0.36070  Biso   1.000  C
  C47      1.0000 0.70060  0.66050  0.43580  Biso   1.000  C
  H27      1.0000 0.75660  0.65970  0.48440  Biso   1.000  H
  C48      1.0000 0.59570  0.66080  0.43710  Biso   1.000  C
  H28      1.0000 0.58160  0.66050  0.48690  Biso   1.000  H
  N1       1.0000 0.16980  0.67440  0.53253  Biso   1.000  N
  N2       1.0000 0.86640  0.66160  0.12213  Biso   1.000  N
  O1       1.0000 0.04028  0.51202  0.38323  Biso   1.000  O
  O2       1.0000 0.97280  0.50940  0.24681  Biso   1.000  O
  O3       1.0000 0.12920  0.66210  0.22784  Biso   1.000  O
  O4       1.0000 0.18916  0.67190  0.36329  Biso   1.000  O
  O5       1.0000 0.00720  0.81660  0.26552  Biso   1.000  O
  O6       1.0000 0.06080  0.81840  0.40261  Biso   1.000  O
  O7       1.0000 0.85234  0.66580  0.28917  Biso   1.000  O
  O8       1.0000 0.91283  0.65948  0.42541  Biso   1.000  O
  Zn1      1.0000 0.97565  0.66275  0.23558  Biso   1.000  Zn
  Zn2      1.0000 0.06664  0.66628  0.41677  Biso   1.000  Zn
  C49      1.0000 0.44950  0.68700  0.21960  Biso   1.000  C
  H29      1.0000 0.46790  0.70570  0.17390  Biso   1.000  H
  C50      1.0000 0.34450  0.68700  0.22020  Biso   1.000  C
  H30      1.0000 0.29090  0.70260  0.17430  Biso   1.000  H
  C51      1.0000 0.82760  0.40360  0.42080  Biso   1.000  C
  H31      1.0000 0.88060  0.45980  0.43970  Biso   1.000  H
  C52      1.0000 0.74930  0.40430  0.34530  Biso   1.000  C
  H32      1.0000 0.75190  0.45860  0.31370  Biso   1.000  H
  C53      1.0000 0.66770  0.32340  0.31750  Biso   1.000  C
  C54      1.0000 0.67080  0.24170  0.36570  Biso   1.000  C
  H33      1.0000 0.61800  0.18520  0.34830  Biso   1.000  H
  C55      1.0000 0.75300  0.24510  0.43960  Biso   1.000  C
  H34      1.0000 0.75480  0.18980  0.47080  Biso   1.000  H
  C56      1.0000 0.57540  0.32600  0.24010  Biso   1.000  C
  C57      1.0000 0.47350  0.34570  0.24640  Biso   1.000  C
  C58      1.0000 0.45470  0.37050  0.32320  Biso   1.000  C
  H35      1.0000 0.51200  0.37340  0.37160  Biso   1.000  H
  C59      1.0000 0.35630  0.38980  0.32690  Biso   1.000  C
  H36      1.0000 0.34670  0.40640  0.37750  Biso   1.000  H
  C60      1.0000 0.26730  0.38520  0.25480  Biso   1.000  C
  H37      1.0000 0.19910  0.39660  0.25830  Biso   1.000  H
  C61      1.0000 0.28050  0.36430  0.18010  Biso   1.000  C
  H38      1.0000 0.22110  0.36190  0.13320  Biso   1.000  H
  C62      1.0000 0.38310  0.34600  0.17260  Biso   1.000  C
  C63      1.0000 0.40140  0.32950  0.09570  Biso   1.000  C
  C64      1.0000 0.50350  0.31320  0.08980  Biso   1.000  C
  C65      1.0000 0.52320  0.29640  0.01270  Biso   1.000  C
  H39      1.0000 0.46650  0.29740  0.96440  Biso   1.000  H
  C66      1.0000 0.62380  0.27880  0.00860  Biso   1.000  C
  H40      1.0000 0.63460  0.26760  0.95790  Biso   1.000  H
  C67      1.0000 0.71130  0.27750  0.08100  Biso   1.000  C
  H41      1.0000 0.77980  0.26710  0.07780  Biso   1.000  H
  C68      1.0000 0.69560  0.29160  0.15570  Biso   1.000  C
  H42      1.0000 0.75370  0.28890  0.20270  Biso   1.000  H
  C69      1.0000 0.59300  0.31020  0.16370  Biso   1.000  C
  C70      1.0000 0.30820  0.33370  0.01940  Biso   1.000  C
  C71      1.0000 0.23540  0.24860  0.98580  Biso   1.000  C
  H43      1.0000 0.24310  0.18730  0.01010  Biso   1.000  H
  C72      1.0000 0.14910  0.25440  0.91480  Biso   1.000  C
  H44      1.0000 0.10040  0.19570  0.89270  Biso   1.000  H
  C73      1.0000 0.20590  0.42150  0.91010  Biso   1.000  C
  H45      1.0000 0.19720  0.48180  0.88440  Biso   1.000  H
  C74      1.0000 0.29310  0.42040  0.98040  Biso   1.000  C
  H46      1.0000 0.34160  0.47950  0.00090  Biso   1.000  H
  C75      1.0000 0.99370  0.53320  0.68840  Biso   1.000  C
  C76      1.0000 0.99330  0.64810  0.69710  Biso   1.000  C
  C77      1.0000 0.02030  0.70180  0.77580  Biso   1.000  C
  H47      1.0000 0.03910  0.66600  0.82200  Biso   1.000  H
  C78      1.0000 0.01890  0.80660  0.78470  Biso   1.000  C
  H48      1.0000 0.03700  0.84110  0.83690  Biso   1.000  H
  C79      1.0000 0.99050  0.86260  0.71550  Biso   1.000  C
  C80      1.0000 0.96290  0.80860  0.63600  Biso   1.000  C
  C81      1.0000 0.96480  0.70100  0.62850  Biso   1.000  C
  H49      1.0000 0.94660  0.66540  0.57670  Biso   1.000  H
  C82      1.0000 0.93430  0.86550  0.56610  Biso   1.000  C
  H50      1.0000 0.91720  0.83130  0.51390  Biso   1.000  H
  C83      1.0000 0.93180  0.96890  0.57500  Biso   1.000  C
  H51      1.0000 0.91130  0.00450  0.52870  Biso   1.000  H
  C84      1.0000 0.96030  0.02350  0.65430  Biso   1.000  C
  C85      1.0000 0.98900  0.97060  0.72300  Biso   1.000  C
  H52      1.0000 0.00750  0.00640  0.77470  Biso   1.000  H
  C86      1.0000 0.16120  0.33810  0.64160  Biso   1.000  C
  C87      1.0000 0.96400  0.13830  0.66280  Biso   1.000  C
  C88      1.0000 0.79710  0.33420  0.70520  Biso   1.000  C
  C89      1.0000 0.68210  0.33700  0.70730  Biso   1.000  C
  C90      1.0000 0.59970  0.33620  0.63570  Biso   1.000  C
  H53      1.0000 0.61530  0.33410  0.58640  Biso   1.000  H
  C91      1.0000 0.49120  0.33850  0.63530  Biso   1.000  C
  C92      1.0000 0.46890  0.34150  0.71150  Biso   1.000  C
  C93      1.0000 0.55740  0.35590  0.78580  Biso   1.000  C
  H54      1.0000 0.54430  0.36780  0.83560  Biso   1.000  H
  C94      1.0000 0.66150  0.35230  0.78380  Biso   1.000  C
  H55      1.0000 0.71890  0.35980  0.83250  Biso   1.000  H
  C95      1.0000 0.35930  0.34040  0.71050  Biso   1.000  C
  H56      1.0000 0.34370  0.34100  0.75980  Biso   1.000  H
  C96      1.0000 0.27600  0.33850  0.63930  Biso   1.000  C
  C97      1.0000 0.29940  0.33950  0.56420  Biso   1.000  C
  H57      1.0000 0.24340  0.34030  0.51560  Biso   1.000  H
  C98      1.0000 0.40430  0.33920  0.56290  Biso   1.000  C
  H58      1.0000 0.41840  0.33950  0.51310  Biso   1.000  H
  N3       1.0000 0.83020  0.32560  0.46747  Biso   1.000  N
  N4       1.0000 0.13360  0.33840  0.87787  Biso   1.000  N
  O9       1.0000 0.95972  0.48798  0.61677  Biso   1.000  O
  O10      1.0000 0.02720  0.49060  0.75319  Biso   1.000  O
  O11      1.0000 0.87080  0.33790  0.77216  Biso   1.000  O
  O12      1.0000 0.81084  0.32810  0.63671  Biso   1.000  O
  O13      1.0000 0.99280  0.18340  0.73448  Biso   1.000  O
  O14      1.0000 0.93920  0.18160  0.59739  Biso   1.000  O
  O15      1.0000 0.14766  0.33420  0.71083  Biso   1.000  O
  O16      1.0000 0.08717  0.34052  0.57459  Biso   1.000  O
  Zn3      1.0000 0.02435  0.33725  0.76442  Biso   1.000  Zn
  Zn4      1.0000 0.93336  0.33372  0.58323  Biso   1.000  Zn
  C99      1.0000 0.55050  0.31300  0.78040  Biso   1.000  C
  H59      1.0000 0.53210  0.29430  0.82610  Biso   1.000  H
  C100     1.0000 0.65550  0.31300  0.77980  Biso   1.000  C
  H60      1.0000 0.70910  0.29740  0.82570  Biso   1.000  H
