data_image0
_cell_length_a       19.835
_cell_length_b       23.936
_cell_length_c       13.841
_cell_angle_alpha    90
_cell_angle_beta     122.48
_cell_angle_gamma    90

_symmetry_space_group_name_H-M    "P 1"
_symmetry_int_tables_number       1

loop_
  _symmetry_equiv_pos_as_xyz
  'x, y, z'

loop_
  _atom_site_label
  _atom_site_occupancy
  _atom_site_fract_x
  _atom_site_fract_y
  _atom_site_fract_z
  _atom_site_thermal_displace_type
  _atom_site_B_iso_or_equiv
  _atom_site_type_symbol
  Cd1      1.0000 0.66669  0.89254  0.94603  Biso   1.000  Cd
  O1       1.0000 0.57120  0.94730  0.79830  Biso   1.000  O
  C1       1.0000 0.73680  0.77280  0.57160  Biso   1.000  C
  N1       1.0000 0.69570  0.79210  0.46410  Biso   1.000  N
  N2       1.0000 0.79090  0.73160  0.60920  Biso   1.000  N
  N3       1.0000 0.68960  0.84710  0.80940  Biso   1.000  N
  C2       1.0000 0.65930  0.86810  0.70670  Biso   1.000  C
  H1       1.0000 0.62620  0.90010  0.68670  Biso   1.000  H
  C3       1.0000 0.67260  0.84630  0.62510  Biso   1.000  C
  H2       1.0000 0.64920  0.86300  0.55170  Biso   1.000  H
  C4       1.0000 0.72110  0.79920  0.65410  Biso   1.000  C
  C5       1.0000 0.75330  0.77690  0.76190  Biso   1.000  C
  H3       1.0000 0.78640  0.74470  0.78440  Biso   1.000  H
  C6       1.0000 0.73670  0.80200  0.83770  Biso   1.000  C
  H4       1.0000 0.75970  0.78660  0.91220  Biso   1.000  H
  N4       1.0000 0.59950  0.81980  0.96250  Biso   1.000  N
  C7       1.0000 0.56460  0.82370  0.02240  Biso   1.000  C
  H5       1.0000 0.56910  0.85750  0.06120  Biso   1.000  H
  C8       1.0000 0.52230  0.77990  0.02950  Biso   1.000  C
  H6       1.0000 0.49610  0.78440  0.06980  Biso   1.000  H
  C9       1.0000 0.51820  0.72970  0.97790  Biso   1.000  C
  C10      1.0000 0.55470  0.72530  0.91720  Biso   1.000  C
  H7       1.0000 0.55330  0.69120  0.88110  Biso   1.000  H
  C11      1.0000 0.59390  0.77180  0.91000  Biso   1.000  C
  H8       1.0000 0.61750  0.76920  0.86600  Biso   1.000  H
  N5       1.0000 0.45480  0.58810  0.97010  Biso   1.000  N
  N6       1.0000 0.49870  0.63090  0.97660  Biso   1.000  N
  C12      1.0000 0.47340  0.68170  0.98170  Biso   1.000  C
  N7       1.0000 0.41250  0.69260  0.99470  Biso   1.000  N
  N8       1.0000 0.36800  0.65000  0.98730  Biso   1.000  N
  C13      1.0000 0.38880  0.59940  0.97050  Biso   1.000  C
  N9       1.0000 0.24290  0.46410  0.94540  Biso   1.000  N
  C14      1.0000 0.21810  0.51650  0.93670  Biso   1.000  C
  H9       1.0000 0.16710  0.52300  0.92530  Biso   1.000  H
  C15      1.0000 0.26300  0.56180  0.94340  Biso   1.000  C
  H10      1.0000 0.24410  0.59880  0.93850  Biso   1.000  H
  C16      1.0000 0.33680  0.55210  0.95760  Biso   1.000  C
  C17      1.0000 0.36220  0.49770  0.96400  Biso   1.000  C
  H11      1.0000 0.41190  0.48990  0.97190  Biso   1.000  H
  C18      1.0000 0.31280  0.45480  0.95840  Biso   1.000  C
  H12      1.0000 0.33030  0.41730  0.96430  Biso   1.000  H
  O2       1.0000 0.55220  0.95280  0.84500  Biso   1.000  O
  O3       1.0000 0.52400  0.88980  0.72570  Biso   1.000  O
  Cd2      1.0000 0.16669  0.39254  0.94603  Biso   1.000  Cd
  O4       1.0000 0.07120  0.44730  0.79830  Biso   1.000  O
  C19      1.0000 0.23680  0.27280  0.57160  Biso   1.000  C
  N10      1.0000 0.19570  0.29210  0.46410  Biso   1.000  N
  N11      1.0000 0.29090  0.23160  0.60920  Biso   1.000  N
  N12      1.0000 0.18960  0.34710  0.80940  Biso   1.000  N
  C20      1.0000 0.15930  0.36810  0.70670  Biso   1.000  C
  H13      1.0000 0.12620  0.40010  0.68670  Biso   1.000  H
  C21      1.0000 0.17260  0.34630  0.62510  Biso   1.000  C
  H14      1.0000 0.14920  0.36300  0.55170  Biso   1.000  H
  C22      1.0000 0.22110  0.29920  0.65410  Biso   1.000  C
  C23      1.0000 0.25330  0.27690  0.76190  Biso   1.000  C
  H15      1.0000 0.28640  0.24470  0.78440  Biso   1.000  H
  C24      1.0000 0.23670  0.30200  0.83770  Biso   1.000  C
  H16      1.0000 0.25970  0.28660  0.91220  Biso   1.000  H
  N13      1.0000 0.09950  0.31980  0.96250  Biso   1.000  N
  C25      1.0000 0.06460  0.32370  0.02240  Biso   1.000  C
  H17      1.0000 0.06910  0.35750  0.06120  Biso   1.000  H
  C26      1.0000 0.02230  0.27990  0.02950  Biso   1.000  C
  H18      1.0000 0.99610  0.28440  0.06980  Biso   1.000  H
  C27      1.0000 0.01820  0.22970  0.97790  Biso   1.000  C
  C28      1.0000 0.05470  0.22530  0.91720  Biso   1.000  C
  H19      1.0000 0.05330  0.19120  0.88110  Biso   1.000  H
  C29      1.0000 0.09390  0.27180  0.91000  Biso   1.000  C
  H20      1.0000 0.11750  0.26920  0.86600  Biso   1.000  H
  N14      1.0000 0.95480  0.08810  0.97010  Biso   1.000  N
  N15      1.0000 0.99870  0.13090  0.97660  Biso   1.000  N
  C30      1.0000 0.97340  0.18170  0.98170  Biso   1.000  C
  N16      1.0000 0.91250  0.19260  0.99470  Biso   1.000  N
  N17      1.0000 0.86800  0.15000  0.98730  Biso   1.000  N
  C31      1.0000 0.88880  0.09940  0.97050  Biso   1.000  C
  N18      1.0000 0.74290  0.96410  0.94540  Biso   1.000  N
  C32      1.0000 0.71810  0.01650  0.93670  Biso   1.000  C
  H21      1.0000 0.66710  0.02300  0.92530  Biso   1.000  H
  C33      1.0000 0.76300  0.06180  0.94340  Biso   1.000  C
  H22      1.0000 0.74410  0.09880  0.93850  Biso   1.000  H
  C34      1.0000 0.83680  0.05210  0.95760  Biso   1.000  C
  C35      1.0000 0.86220  0.99770  0.96400  Biso   1.000  C
  H23      1.0000 0.91190  0.98990  0.97190  Biso   1.000  H
  C36      1.0000 0.81280  0.95480  0.95840  Biso   1.000  C
  H24      1.0000 0.83030  0.91730  0.96430  Biso   1.000  H
  O5       1.0000 0.05220  0.45280  0.84500  Biso   1.000  O
  O6       1.0000 0.02400  0.38980  0.72570  Biso   1.000  O
  Cd3      1.0000 0.33331  0.89254  0.55397  Biso   1.000  Cd
  O7       1.0000 0.42880  0.94730  0.70170  Biso   1.000  O
  C37      1.0000 0.26320  0.77280  0.92840  Biso   1.000  C
  N19      1.0000 0.30430  0.79210  0.03590  Biso   1.000  N
  N20      1.0000 0.20910  0.73160  0.89080  Biso   1.000  N
  N21      1.0000 0.31040  0.84710  0.69060  Biso   1.000  N
  C38      1.0000 0.34070  0.86810  0.79330  Biso   1.000  C
  H25      1.0000 0.37380  0.90010  0.81330  Biso   1.000  H
  C39      1.0000 0.32740  0.84630  0.87490  Biso   1.000  C
  H26      1.0000 0.35080  0.86300  0.94830  Biso   1.000  H
  C40      1.0000 0.27890  0.79920  0.84590  Biso   1.000  C
  C41      1.0000 0.24670  0.77690  0.73810  Biso   1.000  C
  H27      1.0000 0.21360  0.74470  0.71560  Biso   1.000  H
  C42      1.0000 0.26330  0.80200  0.66230  Biso   1.000  C
  H28      1.0000 0.24030  0.78660  0.58780  Biso   1.000  H
  N22      1.0000 0.40050  0.81980  0.53750  Biso   1.000  N
  C43      1.0000 0.43540  0.82370  0.47760  Biso   1.000  C
  H29      1.0000 0.43090  0.85750  0.43880  Biso   1.000  H
  C44      1.0000 0.47770  0.77990  0.47050  Biso   1.000  C
  H30      1.0000 0.50390  0.78440  0.43020  Biso   1.000  H
  C45      1.0000 0.48180  0.72970  0.52210  Biso   1.000  C
  C46      1.0000 0.44530  0.72530  0.58280  Biso   1.000  C
  H31      1.0000 0.44670  0.69120  0.61890  Biso   1.000  H
  C47      1.0000 0.40610  0.77180  0.59000  Biso   1.000  C
  H32      1.0000 0.38250  0.76920  0.63400  Biso   1.000  H
  N23      1.0000 0.54520  0.58810  0.52990  Biso   1.000  N
  N24      1.0000 0.50130  0.63090  0.52340  Biso   1.000  N
  C48      1.0000 0.52660  0.68170  0.51830  Biso   1.000  C
  N25      1.0000 0.58750  0.69260  0.50530  Biso   1.000  N
  N26      1.0000 0.63200  0.65000  0.51270  Biso   1.000  N
  C49      1.0000 0.61120  0.59940  0.52950  Biso   1.000  C
  N27      1.0000 0.75710  0.46410  0.55460  Biso   1.000  N
  C50      1.0000 0.78190  0.51650  0.56330  Biso   1.000  C
  H33      1.0000 0.83290  0.52300  0.57470  Biso   1.000  H
  C51      1.0000 0.73700  0.56180  0.55660  Biso   1.000  C
  H34      1.0000 0.75590  0.59880  0.56150  Biso   1.000  H
  C52      1.0000 0.66320  0.55210  0.54240  Biso   1.000  C
  C53      1.0000 0.63780  0.49770  0.53600  Biso   1.000  C
  H35      1.0000 0.58810  0.48990  0.52810  Biso   1.000  H
  C54      1.0000 0.68720  0.45480  0.54160  Biso   1.000  C
  H36      1.0000 0.66970  0.41730  0.53570  Biso   1.000  H
  O8       1.0000 0.44780  0.95280  0.65500  Biso   1.000  O
  O9       1.0000 0.47600  0.88980  0.77430  Biso   1.000  O
  Cd4      1.0000 0.83331  0.39254  0.55397  Biso   1.000  Cd
  O10      1.0000 0.92880  0.44730  0.70170  Biso   1.000  O
  C55      1.0000 0.76320  0.27280  0.92840  Biso   1.000  C
  N28      1.0000 0.80430  0.29210  0.03590  Biso   1.000  N
  N29      1.0000 0.70910  0.23160  0.89080  Biso   1.000  N
  N30      1.0000 0.81040  0.34710  0.69060  Biso   1.000  N
  C56      1.0000 0.84070  0.36810  0.79330  Biso   1.000  C
  H37      1.0000 0.87380  0.40010  0.81330  Biso   1.000  H
  C57      1.0000 0.82740  0.34630  0.87490  Biso   1.000  C
  H38      1.0000 0.85080  0.36300  0.94830  Biso   1.000  H
  C58      1.0000 0.77890  0.29920  0.84590  Biso   1.000  C
  C59      1.0000 0.74670  0.27690  0.73810  Biso   1.000  C
  H39      1.0000 0.71360  0.24470  0.71560  Biso   1.000  H
  C60      1.0000 0.76330  0.30200  0.66230  Biso   1.000  C
  H40      1.0000 0.74030  0.28660  0.58780  Biso   1.000  H
  N31      1.0000 0.90050  0.31980  0.53750  Biso   1.000  N
  C61      1.0000 0.93540  0.32370  0.47760  Biso   1.000  C
  H41      1.0000 0.93090  0.35750  0.43880  Biso   1.000  H
  C62      1.0000 0.97770  0.27990  0.47050  Biso   1.000  C
  H42      1.0000 0.00390  0.28440  0.43020  Biso   1.000  H
  C63      1.0000 0.98180  0.22970  0.52210  Biso   1.000  C
  C64      1.0000 0.94530  0.22530  0.58280  Biso   1.000  C
  H43      1.0000 0.94670  0.19120  0.61890  Biso   1.000  H
  C65      1.0000 0.90610  0.27180  0.59000  Biso   1.000  C
  H44      1.0000 0.88250  0.26920  0.63400  Biso   1.000  H
  N32      1.0000 0.04520  0.08810  0.52990  Biso   1.000  N
  N33      1.0000 0.00130  0.13090  0.52340  Biso   1.000  N
  C66      1.0000 0.02660  0.18170  0.51830  Biso   1.000  C
  N34      1.0000 0.08750  0.19260  0.50530  Biso   1.000  N
  N35      1.0000 0.13200  0.15000  0.51270  Biso   1.000  N
  C67      1.0000 0.11120  0.09940  0.52950  Biso   1.000  C
  N36      1.0000 0.25710  0.96410  0.55460  Biso   1.000  N
  C68      1.0000 0.28190  0.01650  0.56330  Biso   1.000  C
  H45      1.0000 0.33290  0.02300  0.57470  Biso   1.000  H
  C69      1.0000 0.23700  0.06180  0.55660  Biso   1.000  C
  H46      1.0000 0.25590  0.09880  0.56150  Biso   1.000  H
  C70      1.0000 0.16320  0.05210  0.54240  Biso   1.000  C
  C71      1.0000 0.13780  0.99770  0.53600  Biso   1.000  C
  H47      1.0000 0.08810  0.98990  0.52810  Biso   1.000  H
  C72      1.0000 0.18720  0.95480  0.54160  Biso   1.000  C
  H48      1.0000 0.16970  0.91730  0.53570  Biso   1.000  H
  O11      1.0000 0.94780  0.45280  0.65500  Biso   1.000  O
  O12      1.0000 0.97600  0.38980  0.77430  Biso   1.000  O
  Cd5      1.0000 0.33331  0.10746  0.05397  Biso   1.000  Cd
  O13      1.0000 0.42880  0.05270  0.20170  Biso   1.000  O
  C73      1.0000 0.26320  0.22720  0.42840  Biso   1.000  C
  N37      1.0000 0.30430  0.20790  0.53590  Biso   1.000  N
  N38      1.0000 0.20910  0.26840  0.39080  Biso   1.000  N
  N39      1.0000 0.31040  0.15290  0.19060  Biso   1.000  N
  C74      1.0000 0.34070  0.13190  0.29330  Biso   1.000  C
  H49      1.0000 0.37380  0.09990  0.31330  Biso   1.000  H
  C75      1.0000 0.32740  0.15370  0.37490  Biso   1.000  C
  H50      1.0000 0.35080  0.13700  0.44830  Biso   1.000  H
  C76      1.0000 0.27890  0.20080  0.34590  Biso   1.000  C
  C77      1.0000 0.24670  0.22310  0.23810  Biso   1.000  C
  H51      1.0000 0.21360  0.25530  0.21560  Biso   1.000  H
  C78      1.0000 0.26330  0.19800  0.16230  Biso   1.000  C
  H52      1.0000 0.24030  0.21340  0.08780  Biso   1.000  H
  N40      1.0000 0.40050  0.18020  0.03750  Biso   1.000  N
  C79      1.0000 0.43540  0.17630  0.97760  Biso   1.000  C
  H53      1.0000 0.43090  0.14250  0.93880  Biso   1.000  H
  C80      1.0000 0.47770  0.22010  0.97050  Biso   1.000  C
  H54      1.0000 0.50390  0.21560  0.93020  Biso   1.000  H
  C81      1.0000 0.48180  0.27030  0.02210  Biso   1.000  C
  C82      1.0000 0.44530  0.27470  0.08280  Biso   1.000  C
  H55      1.0000 0.44670  0.30880  0.11890  Biso   1.000  H
  C83      1.0000 0.40610  0.22820  0.09000  Biso   1.000  C
  H56      1.0000 0.38250  0.23080  0.13400  Biso   1.000  H
  N41      1.0000 0.54520  0.41190  0.02990  Biso   1.000  N
  N42      1.0000 0.50130  0.36910  0.02340  Biso   1.000  N
  C84      1.0000 0.52660  0.31830  0.01830  Biso   1.000  C
  N43      1.0000 0.58750  0.30740  0.00530  Biso   1.000  N
  N44      1.0000 0.63200  0.35000  0.01270  Biso   1.000  N
  C85      1.0000 0.61120  0.40060  0.02950  Biso   1.000  C
  N45      1.0000 0.75710  0.53590  0.05460  Biso   1.000  N
  C86      1.0000 0.78190  0.48350  0.06330  Biso   1.000  C
  H57      1.0000 0.83290  0.47700  0.07470  Biso   1.000  H
  C87      1.0000 0.73700  0.43820  0.05660  Biso   1.000  C
  H58      1.0000 0.75590  0.40120  0.06150  Biso   1.000  H
  C88      1.0000 0.66320  0.44790  0.04240  Biso   1.000  C
  C89      1.0000 0.63780  0.50230  0.03600  Biso   1.000  C
  H59      1.0000 0.58810  0.51010  0.02810  Biso   1.000  H
  C90      1.0000 0.68720  0.54520  0.04160  Biso   1.000  C
  H60      1.0000 0.66970  0.58270  0.03570  Biso   1.000  H
  O14      1.0000 0.44780  0.04720  0.15500  Biso   1.000  O
  O15      1.0000 0.47600  0.11020  0.27430  Biso   1.000  O
  Cd6      1.0000 0.83331  0.60746  0.05397  Biso   1.000  Cd
  O16      1.0000 0.92880  0.55270  0.20170  Biso   1.000  O
  C91      1.0000 0.76320  0.72720  0.42840  Biso   1.000  C
  N46      1.0000 0.80430  0.70790  0.53590  Biso   1.000  N
  N47      1.0000 0.70910  0.76840  0.39080  Biso   1.000  N
  N48      1.0000 0.81040  0.65290  0.19060  Biso   1.000  N
  C92      1.0000 0.84070  0.63190  0.29330  Biso   1.000  C
  H61      1.0000 0.87380  0.59990  0.31330  Biso   1.000  H
  C93      1.0000 0.82740  0.65370  0.37490  Biso   1.000  C
  H62      1.0000 0.85080  0.63700  0.44830  Biso   1.000  H
  C94      1.0000 0.77890  0.70080  0.34590  Biso   1.000  C
  C95      1.0000 0.74670  0.72310  0.23810  Biso   1.000  C
  H63      1.0000 0.71360  0.75530  0.21560  Biso   1.000  H
  C96      1.0000 0.76330  0.69800  0.16230  Biso   1.000  C
  H64      1.0000 0.74030  0.71340  0.08780  Biso   1.000  H
  N49      1.0000 0.90050  0.68020  0.03750  Biso   1.000  N
  C97      1.0000 0.93540  0.67630  0.97760  Biso   1.000  C
  H65      1.0000 0.93090  0.64250  0.93880  Biso   1.000  H
  C98      1.0000 0.97770  0.72010  0.97050  Biso   1.000  C
  H66      1.0000 0.00390  0.71560  0.93020  Biso   1.000  H
  C99      1.0000 0.98180  0.77030  0.02210  Biso   1.000  C
  C100     1.0000 0.94530  0.77470  0.08280  Biso   1.000  C
  H67      1.0000 0.94670  0.80880  0.11890  Biso   1.000  H
  C101     1.0000 0.90610  0.72820  0.09000  Biso   1.000  C
  H68      1.0000 0.88250  0.73080  0.13400  Biso   1.000  H
  N50      1.0000 0.04520  0.91190  0.02990  Biso   1.000  N
  N51      1.0000 0.00130  0.86910  0.02340  Biso   1.000  N
  C102     1.0000 0.02660  0.81830  0.01830  Biso   1.000  C
  N52      1.0000 0.08750  0.80740  0.00530  Biso   1.000  N
  N53      1.0000 0.13200  0.85000  0.01270  Biso   1.000  N
  C103     1.0000 0.11120  0.90060  0.02950  Biso   1.000  C
  N54      1.0000 0.25710  0.03590  0.05460  Biso   1.000  N
  C104     1.0000 0.28190  0.98350  0.06330  Biso   1.000  C
  H69      1.0000 0.33290  0.97700  0.07470  Biso   1.000  H
  C105     1.0000 0.23700  0.93820  0.05660  Biso   1.000  C
  H70      1.0000 0.25590  0.90120  0.06150  Biso   1.000  H
  C106     1.0000 0.16320  0.94790  0.04240  Biso   1.000  C
  C107     1.0000 0.13780  0.00230  0.03600  Biso   1.000  C
  H71      1.0000 0.08810  0.01010  0.02810  Biso   1.000  H
  C108     1.0000 0.18720  0.04520  0.04160  Biso   1.000  C
  H72      1.0000 0.16970  0.08270  0.03570  Biso   1.000  H
  O17      1.0000 0.94780  0.54720  0.15500  Biso   1.000  O
  O18      1.0000 0.97600  0.61020  0.27430  Biso   1.000  O
  Cd7      1.0000 0.66669  0.10746  0.44603  Biso   1.000  Cd
  O19      1.0000 0.57120  0.05270  0.29830  Biso   1.000  O
  C109     1.0000 0.73680  0.22720  0.07160  Biso   1.000  C
  N55      1.0000 0.69570  0.20790  0.96410  Biso   1.000  N
  N56      1.0000 0.79090  0.26840  0.10920  Biso   1.000  N
  N57      1.0000 0.68960  0.15290  0.30940  Biso   1.000  N
  C110     1.0000 0.65930  0.13190  0.20670  Biso   1.000  C
  H73      1.0000 0.62620  0.09990  0.18670  Biso   1.000  H
  C111     1.0000 0.67260  0.15370  0.12510  Biso   1.000  C
  H74      1.0000 0.64920  0.13700  0.05170  Biso   1.000  H
  C112     1.0000 0.72110  0.20080  0.15410  Biso   1.000  C
  C113     1.0000 0.75330  0.22310  0.26190  Biso   1.000  C
  H75      1.0000 0.78640  0.25530  0.28440  Biso   1.000  H
  C114     1.0000 0.73670  0.19800  0.33770  Biso   1.000  C
  H76      1.0000 0.75970  0.21340  0.41220  Biso   1.000  H
  N58      1.0000 0.59950  0.18020  0.46250  Biso   1.000  N
  C115     1.0000 0.56460  0.17630  0.52240  Biso   1.000  C
  H77      1.0000 0.56910  0.14250  0.56120  Biso   1.000  H
  C116     1.0000 0.52230  0.22010  0.52950  Biso   1.000  C
  H78      1.0000 0.49610  0.21560  0.56980  Biso   1.000  H
  C117     1.0000 0.51820  0.27030  0.47790  Biso   1.000  C
  C118     1.0000 0.55470  0.27470  0.41720  Biso   1.000  C
  H79      1.0000 0.55330  0.30880  0.38110  Biso   1.000  H
  C119     1.0000 0.59390  0.22820  0.41000  Biso   1.000  C
  H80      1.0000 0.61750  0.23080  0.36600  Biso   1.000  H
  N59      1.0000 0.45480  0.41190  0.47010  Biso   1.000  N
  N60      1.0000 0.49870  0.36910  0.47660  Biso   1.000  N
  C120     1.0000 0.47340  0.31830  0.48170  Biso   1.000  C
  N61      1.0000 0.41250  0.30740  0.49470  Biso   1.000  N
  N62      1.0000 0.36800  0.35000  0.48730  Biso   1.000  N
  C121     1.0000 0.38880  0.40060  0.47050  Biso   1.000  C
  N63      1.0000 0.24290  0.53590  0.44540  Biso   1.000  N
  C122     1.0000 0.21810  0.48350  0.43670  Biso   1.000  C
  H81      1.0000 0.16710  0.47700  0.42530  Biso   1.000  H
  C123     1.0000 0.26300  0.43820  0.44340  Biso   1.000  C
  H82      1.0000 0.24410  0.40120  0.43850  Biso   1.000  H
  C124     1.0000 0.33680  0.44790  0.45760  Biso   1.000  C
  C125     1.0000 0.36220  0.50230  0.46400  Biso   1.000  C
  H83      1.0000 0.41190  0.51010  0.47190  Biso   1.000  H
  C126     1.0000 0.31280  0.54520  0.45840  Biso   1.000  C
  H84      1.0000 0.33030  0.58270  0.46430  Biso   1.000  H
  O20      1.0000 0.55220  0.04720  0.34500  Biso   1.000  O
  O21      1.0000 0.52400  0.11020  0.22570  Biso   1.000  O
  Cd8      1.0000 0.16669  0.60746  0.44603  Biso   1.000  Cd
  O22      1.0000 0.07120  0.55270  0.29830  Biso   1.000  O
  C127     1.0000 0.23680  0.72720  0.07160  Biso   1.000  C
  N64      1.0000 0.19570  0.70790  0.96410  Biso   1.000  N
  N65      1.0000 0.29090  0.76840  0.10920  Biso   1.000  N
  N66      1.0000 0.18960  0.65290  0.30940  Biso   1.000  N
  C128     1.0000 0.15930  0.63190  0.20670  Biso   1.000  C
  H85      1.0000 0.12620  0.59990  0.18670  Biso   1.000  H
  C129     1.0000 0.17260  0.65370  0.12510  Biso   1.000  C
  H86      1.0000 0.14920  0.63700  0.05170  Biso   1.000  H
  C130     1.0000 0.22110  0.70080  0.15410  Biso   1.000  C
  C131     1.0000 0.25330  0.72310  0.26190  Biso   1.000  C
  H87      1.0000 0.28640  0.75530  0.28440  Biso   1.000  H
  C132     1.0000 0.23670  0.69800  0.33770  Biso   1.000  C
  H88      1.0000 0.25970  0.71340  0.41220  Biso   1.000  H
  N67      1.0000 0.09950  0.68020  0.46250  Biso   1.000  N
  C133     1.0000 0.06460  0.67630  0.52240  Biso   1.000  C
  H89      1.0000 0.06910  0.64250  0.56120  Biso   1.000  H
  C134     1.0000 0.02230  0.72010  0.52950  Biso   1.000  C
  H90      1.0000 0.99610  0.71560  0.56980  Biso   1.000  H
  C135     1.0000 0.01820  0.77030  0.47790  Biso   1.000  C
  C136     1.0000 0.05470  0.77470  0.41720  Biso   1.000  C
  H91      1.0000 0.05330  0.80880  0.38110  Biso   1.000  H
  C137     1.0000 0.09390  0.72820  0.41000  Biso   1.000  C
  H92      1.0000 0.11750  0.73080  0.36600  Biso   1.000  H
  N68      1.0000 0.95480  0.91190  0.47010  Biso   1.000  N
  N69      1.0000 0.99870  0.86910  0.47660  Biso   1.000  N
  C138     1.0000 0.97340  0.81830  0.48170  Biso   1.000  C
  N70      1.0000 0.91250  0.80740  0.49470  Biso   1.000  N
  N71      1.0000 0.86800  0.85000  0.48730  Biso   1.000  N
  C139     1.0000 0.88880  0.90060  0.47050  Biso   1.000  C
  N72      1.0000 0.74290  0.03590  0.44540  Biso   1.000  N
  C140     1.0000 0.71810  0.98350  0.43670  Biso   1.000  C
  H93      1.0000 0.66710  0.97700  0.42530  Biso   1.000  H
  C141     1.0000 0.76300  0.93820  0.44340  Biso   1.000  C
  H94      1.0000 0.74410  0.90120  0.43850  Biso   1.000  H
  C142     1.0000 0.83680  0.94790  0.45760  Biso   1.000  C
  C143     1.0000 0.86220  0.00230  0.46400  Biso   1.000  C
  H95      1.0000 0.91190  0.01010  0.47190  Biso   1.000  H
  C144     1.0000 0.81280  0.04520  0.45840  Biso   1.000  C
  H96      1.0000 0.83030  0.08270  0.46430  Biso   1.000  H
  O23      1.0000 0.05220  0.54720  0.34500  Biso   1.000  O
  O24      1.0000 0.02400  0.61020  0.22570  Biso   1.000  O
  N73      1.0000 0.50000  0.92790  0.75000  Biso   1.000  N
  O25      1.0000 0.50000  0.87790  0.75000  Biso   1.000  O
  N74      1.0000 0.00000  0.42790  0.75000  Biso   1.000  N
  O26      1.0000 0.00000  0.37790  0.75000  Biso   1.000  O
  N75      1.0000 0.50000  0.07210  0.25000  Biso   1.000  N
  O27      1.0000 0.50000  0.12210  0.25000  Biso   1.000  O
  N76      1.0000 0.00000  0.57210  0.25000  Biso   1.000  N
  O28      1.0000 0.00000  0.62210  0.25000  Biso   1.000  O
