data_image0
_cell_length_a       18.255
_cell_length_b       8.834
_cell_length_c       20.698
_cell_angle_alpha    90
_cell_angle_beta     112.47
_cell_angle_gamma    90

_symmetry_space_group_name_H-M    "P 1"
_symmetry_int_tables_number       1

loop_
  _symmetry_equiv_pos_as_xyz
  'x, y, z'

loop_
  _atom_site_label
  _atom_site_occupancy
  _atom_site_fract_x
  _atom_site_fract_y
  _atom_site_fract_z
  _atom_site_thermal_displace_type
  _atom_site_B_iso_or_equiv
  _atom_site_type_symbol
  La1      1.0000 0.97813  0.47166  0.23353  Biso   1.000  La
  La2      1.0000 0.00138  0.97264  0.25762  Biso   1.000  La
  O1       1.0000 0.09160  0.03130  0.18820  Biso   1.000  O
  O2       1.0000 0.04360  0.24270  0.21020  Biso   1.000  O
  O3       1.0000 0.01550  0.24980  0.82140  Biso   1.000  O
  O4       1.0000 0.02850  0.44890  0.88890  Biso   1.000  O
  O5       1.0000 0.89770  0.05930  0.14501  Biso   1.000  O
  O6       1.0000 0.87540  0.30700  0.14591  Biso   1.000  O
  O7       1.0000 0.62510  0.40330  0.84680  Biso   1.000  O
  O8       1.0000 0.64960  0.63920  0.82560  Biso   1.000  O
  O9       1.0000 0.95500  0.20830  0.29586  Biso   1.000  O
  O10      1.0000 0.89270  0.41230  0.30630  Biso   1.000  O
  O11      1.0000 0.98730  0.10470  0.61845  Biso   1.000  O
  O12      1.0000 0.00550  0.30220  0.68705  Biso   1.000  O
  C1       1.0000 0.08130  0.17060  0.17990  Biso   1.000  C
  C2       1.0000 0.11480  0.25580  0.13400  Biso   1.000  C
  H1       1.0000 0.10070  0.36190  0.13280  Biso   1.000  H
  H2       1.0000 0.17220  0.24840  0.15390  Biso   1.000  H
  C3       1.0000 0.08400  0.19410  0.06100  Biso   1.000  C
  H3       1.0000 0.09770  0.09540  0.05480  Biso   1.000  H
  C4       1.0000 0.03960  0.26890  0.00600  Biso   1.000  C
  H4       1.0000 0.02730  0.36830  0.01270  Biso   1.000  H
  C5       1.0000 0.00600  0.20880  0.93180  Biso   1.000  C
  H5       1.0000 0.02990  0.11120  0.93110  Biso   1.000  H
  H6       1.0000 0.94950  0.19290  0.91830  Biso   1.000  H
  C6       1.0000 0.01860  0.30940  0.87860  Biso   1.000  C
  C7       1.0000 0.87520  0.18460  0.11590  Biso   1.000  C
  C8       1.0000 0.84970  0.18270  0.03770  Biso   1.000  C
  H7       1.0000 0.89300  0.14090  0.02700  Biso   1.000  H
  H8       1.0000 0.80540  0.11330  0.01890  Biso   1.000  H
  C9       1.0000 0.82570  0.33010  0.99900  Biso   1.000  C
  H9       1.0000 0.84520  0.41920  0.02340  Biso   1.000  H
  C10      1.0000 0.77990  0.34030  0.93430  Biso   1.000  C
  H10      1.0000 0.75680  0.25140  0.91140  Biso   1.000  H
  C11      1.0000 0.76060  0.48240  0.89280  Biso   1.000  C
  H11      1.0000 0.78600  0.47940  0.85930  Biso   1.000  H
  H12      1.0000 0.78310  0.56680  0.92410  Biso   1.000  H
  C12      1.0000 0.67340  0.51170  0.85370  Biso   1.000  C
  C13      1.0000 0.91300  0.27860  0.32300  Biso   1.000  C
  C14      1.0000 0.89230  0.19980  0.37880  Biso   1.000  C
  H13      1.0000 0.89280  0.09090  0.37310  Biso   1.000  H
  H14      1.0000 0.83970  0.22970  0.37520  Biso   1.000  H
  C15      1.0000 0.95390  0.24600  0.44990  Biso   1.000  C
  C16      1.0000 0.93510  0.30700  0.50030  Biso   1.000  C
  C17      1.0000 0.99540  0.34630  0.56910  Biso   1.000  C
  H15      1.0000 0.98650  0.44950  0.58030  Biso   1.000  H
  H16      1.0000 0.04730  0.34240  0.56640  Biso   1.000  H
  C18      1.0000 0.99540  0.24380  0.62730  Biso   1.000  C
  C19      1.0000 0.91400  0.29140  0.44570  Biso   1.000  C
  C20      1.0000 0.97130  0.25800  0.49900  Biso   1.000  C
  La3      1.0000 0.52187  0.97166  0.26647  Biso   1.000  La
  La4      1.0000 0.49862  0.47264  0.24238  Biso   1.000  La
  O13      1.0000 0.40840  0.53130  0.31180  Biso   1.000  O
  O14      1.0000 0.45640  0.74270  0.28980  Biso   1.000  O
  O15      1.0000 0.48450  0.74980  0.67860  Biso   1.000  O
  O16      1.0000 0.47150  0.94890  0.61110  Biso   1.000  O
  O17      1.0000 0.60230  0.55930  0.35499  Biso   1.000  O
  O18      1.0000 0.62460  0.80700  0.35409  Biso   1.000  O
  O19      1.0000 0.87490  0.90330  0.65320  Biso   1.000  O
  O20      1.0000 0.85040  0.13920  0.67440  Biso   1.000  O
  O21      1.0000 0.54500  0.70830  0.20414  Biso   1.000  O
  O22      1.0000 0.60730  0.91230  0.19370  Biso   1.000  O
  O23      1.0000 0.51270  0.60470  0.88155  Biso   1.000  O
  O24      1.0000 0.49450  0.80220  0.81295  Biso   1.000  O
  C21      1.0000 0.41870  0.67060  0.32010  Biso   1.000  C
  C22      1.0000 0.38520  0.75580  0.36600  Biso   1.000  C
  H17      1.0000 0.39930  0.86190  0.36720  Biso   1.000  H
  H18      1.0000 0.32780  0.74840  0.34610  Biso   1.000  H
  C23      1.0000 0.41600  0.69410  0.43900  Biso   1.000  C
  H19      1.0000 0.40230  0.59540  0.44520  Biso   1.000  H
  C24      1.0000 0.46040  0.76890  0.49400  Biso   1.000  C
  H20      1.0000 0.47270  0.86830  0.48730  Biso   1.000  H
  C25      1.0000 0.49400  0.70880  0.56820  Biso   1.000  C
  H21      1.0000 0.47010  0.61120  0.56890  Biso   1.000  H
  H22      1.0000 0.55050  0.69290  0.58170  Biso   1.000  H
  C26      1.0000 0.48140  0.80940  0.62140  Biso   1.000  C
  C27      1.0000 0.62480  0.68460  0.38410  Biso   1.000  C
  C28      1.0000 0.65030  0.68270  0.46230  Biso   1.000  C
  H23      1.0000 0.60700  0.64090  0.47300  Biso   1.000  H
  H24      1.0000 0.69460  0.61330  0.48110  Biso   1.000  H
  C29      1.0000 0.67430  0.83010  0.50100  Biso   1.000  C
  H25      1.0000 0.65480  0.91920  0.47660  Biso   1.000  H
  C30      1.0000 0.72010  0.84030  0.56570  Biso   1.000  C
  H26      1.0000 0.74320  0.75140  0.58860  Biso   1.000  H
  C31      1.0000 0.73940  0.98240  0.60720  Biso   1.000  C
  H27      1.0000 0.71400  0.97940  0.64070  Biso   1.000  H
  H28      1.0000 0.71690  0.06680  0.57590  Biso   1.000  H
  C32      1.0000 0.82660  0.01170  0.64630  Biso   1.000  C
  C33      1.0000 0.58700  0.77860  0.17700  Biso   1.000  C
  C34      1.0000 0.60770  0.69980  0.12120  Biso   1.000  C
  H29      1.0000 0.60720  0.59090  0.12690  Biso   1.000  H
  H30      1.0000 0.66030  0.72970  0.12480  Biso   1.000  H
  C35      1.0000 0.54610  0.74600  0.05010  Biso   1.000  C
  C36      1.0000 0.56490  0.80700  0.99970  Biso   1.000  C
  C37      1.0000 0.50460  0.84630  0.93090  Biso   1.000  C
  H31      1.0000 0.51350  0.94950  0.91970  Biso   1.000  H
  H32      1.0000 0.45270  0.84240  0.93360  Biso   1.000  H
  C38      1.0000 0.50460  0.74380  0.87270  Biso   1.000  C
  C39      1.0000 0.58600  0.79140  0.05430  Biso   1.000  C
  C40      1.0000 0.52870  0.75800  0.00100  Biso   1.000  C
  La5      1.0000 0.02187  0.52834  0.76647  Biso   1.000  La
  La6      1.0000 0.99862  0.02736  0.74238  Biso   1.000  La
  O25      1.0000 0.90840  0.96870  0.81180  Biso   1.000  O
  O26      1.0000 0.95640  0.75730  0.78980  Biso   1.000  O
  O27      1.0000 0.98450  0.75020  0.17860  Biso   1.000  O
  O28      1.0000 0.97150  0.55110  0.11110  Biso   1.000  O
  O29      1.0000 0.10230  0.94070  0.85499  Biso   1.000  O
  O30      1.0000 0.12460  0.69300  0.85409  Biso   1.000  O
  O31      1.0000 0.37490  0.59670  0.15320  Biso   1.000  O
  O32      1.0000 0.35040  0.36080  0.17440  Biso   1.000  O
  O33      1.0000 0.04500  0.79170  0.70414  Biso   1.000  O
  O34      1.0000 0.10730  0.58770  0.69370  Biso   1.000  O
  O35      1.0000 0.01270  0.89530  0.38155  Biso   1.000  O
  O36      1.0000 0.99450  0.69780  0.31295  Biso   1.000  O
  C41      1.0000 0.91870  0.82940  0.82010  Biso   1.000  C
  C42      1.0000 0.88520  0.74420  0.86600  Biso   1.000  C
  H33      1.0000 0.89930  0.63810  0.86720  Biso   1.000  H
  H34      1.0000 0.82780  0.75160  0.84610  Biso   1.000  H
  C43      1.0000 0.91600  0.80590  0.93900  Biso   1.000  C
  H35      1.0000 0.90230  0.90460  0.94520  Biso   1.000  H
  C44      1.0000 0.96040  0.73110  0.99400  Biso   1.000  C
  H36      1.0000 0.97270  0.63170  0.98730  Biso   1.000  H
  C45      1.0000 0.99400  0.79120  0.06820  Biso   1.000  C
  H37      1.0000 0.97010  0.88880  0.06890  Biso   1.000  H
  H38      1.0000 0.05050  0.80710  0.08170  Biso   1.000  H
  C46      1.0000 0.98140  0.69060  0.12140  Biso   1.000  C
  C47      1.0000 0.12480  0.81540  0.88410  Biso   1.000  C
  C48      1.0000 0.15030  0.81730  0.96230  Biso   1.000  C
  H39      1.0000 0.10700  0.85910  0.97300  Biso   1.000  H
  H40      1.0000 0.19460  0.88670  0.98110  Biso   1.000  H
  C49      1.0000 0.17430  0.66990  0.00100  Biso   1.000  C
  H41      1.0000 0.15480  0.58080  0.97660  Biso   1.000  H
  C50      1.0000 0.22010  0.65970  0.06570  Biso   1.000  C
  H42      1.0000 0.24320  0.74860  0.08860  Biso   1.000  H
  C51      1.0000 0.23940  0.51760  0.10720  Biso   1.000  C
  H43      1.0000 0.21400  0.52060  0.14070  Biso   1.000  H
  H44      1.0000 0.21690  0.43320  0.07590  Biso   1.000  H
  C52      1.0000 0.32660  0.48830  0.14630  Biso   1.000  C
  C53      1.0000 0.08700  0.72140  0.67700  Biso   1.000  C
  C54      1.0000 0.10770  0.80020  0.62120  Biso   1.000  C
  H45      1.0000 0.10720  0.90910  0.62690  Biso   1.000  H
  H46      1.0000 0.16030  0.77030  0.62480  Biso   1.000  H
  C55      1.0000 0.04610  0.75400  0.55010  Biso   1.000  C
  C56      1.0000 0.06490  0.69300  0.49970  Biso   1.000  C
  C57      1.0000 0.00460  0.65370  0.43090  Biso   1.000  C
  H47      1.0000 0.01350  0.55050  0.41970  Biso   1.000  H
  H48      1.0000 0.95270  0.65760  0.43360  Biso   1.000  H
  C58      1.0000 0.00460  0.75620  0.37270  Biso   1.000  C
  C59      1.0000 0.08600  0.70860  0.55430  Biso   1.000  C
  C60      1.0000 0.02870  0.74200  0.50100  Biso   1.000  C
  La7      1.0000 0.47813  0.02834  0.73353  Biso   1.000  La
  La8      1.0000 0.50138  0.52736  0.75762  Biso   1.000  La
  O37      1.0000 0.59160  0.46870  0.68820  Biso   1.000  O
  O38      1.0000 0.54360  0.25730  0.71020  Biso   1.000  O
  O39      1.0000 0.51550  0.25020  0.32140  Biso   1.000  O
  O40      1.0000 0.52850  0.05110  0.38890  Biso   1.000  O
  O41      1.0000 0.39770  0.44070  0.64501  Biso   1.000  O
  O42      1.0000 0.37540  0.19300  0.64591  Biso   1.000  O
  O43      1.0000 0.12510  0.09670  0.34680  Biso   1.000  O
  O44      1.0000 0.14960  0.86080  0.32560  Biso   1.000  O
  O45      1.0000 0.45500  0.29170  0.79586  Biso   1.000  O
  O46      1.0000 0.39270  0.08770  0.80630  Biso   1.000  O
  O47      1.0000 0.48730  0.39530  0.11845  Biso   1.000  O
  O48      1.0000 0.50550  0.19780  0.18705  Biso   1.000  O
  C61      1.0000 0.58130  0.32940  0.67990  Biso   1.000  C
  C62      1.0000 0.61480  0.24420  0.63400  Biso   1.000  C
  H49      1.0000 0.60070  0.13810  0.63280  Biso   1.000  H
  H50      1.0000 0.67220  0.25160  0.65390  Biso   1.000  H
  C63      1.0000 0.58400  0.30590  0.56100  Biso   1.000  C
  H51      1.0000 0.59770  0.40460  0.55480  Biso   1.000  H
  C64      1.0000 0.53960  0.23110  0.50600  Biso   1.000  C
  H52      1.0000 0.52730  0.13170  0.51270  Biso   1.000  H
  C65      1.0000 0.50600  0.29120  0.43180  Biso   1.000  C
  H53      1.0000 0.52990  0.38880  0.43110  Biso   1.000  H
  H54      1.0000 0.44950  0.30710  0.41830  Biso   1.000  H
  C66      1.0000 0.51860  0.19060  0.37860  Biso   1.000  C
  C67      1.0000 0.37520  0.31540  0.61590  Biso   1.000  C
  C68      1.0000 0.34970  0.31730  0.53770  Biso   1.000  C
  H55      1.0000 0.39300  0.35910  0.52700  Biso   1.000  H
  H56      1.0000 0.30540  0.38670  0.51890  Biso   1.000  H
  C69      1.0000 0.32570  0.16990  0.49900  Biso   1.000  C
  H57      1.0000 0.34520  0.08080  0.52340  Biso   1.000  H
  C70      1.0000 0.27990  0.15970  0.43430  Biso   1.000  C
  H58      1.0000 0.25680  0.24860  0.41140  Biso   1.000  H
  C71      1.0000 0.26060  0.01760  0.39280  Biso   1.000  C
  H59      1.0000 0.28600  0.02060  0.35930  Biso   1.000  H
  H60      1.0000 0.28310  0.93320  0.42410  Biso   1.000  H
  C72      1.0000 0.17340  0.98830  0.35370  Biso   1.000  C
  C73      1.0000 0.41300  0.22140  0.82300  Biso   1.000  C
  C74      1.0000 0.39230  0.30020  0.87880  Biso   1.000  C
  H61      1.0000 0.39280  0.40910  0.87310  Biso   1.000  H
  H62      1.0000 0.33970  0.27030  0.87520  Biso   1.000  H
  C75      1.0000 0.45390  0.25400  0.94990  Biso   1.000  C
  C76      1.0000 0.43510  0.19300  0.00030  Biso   1.000  C
  C77      1.0000 0.49540  0.15370  0.06910  Biso   1.000  C
  H63      1.0000 0.48650  0.05050  0.08030  Biso   1.000  H
  H64      1.0000 0.54730  0.15760  0.06640  Biso   1.000  H
  C78      1.0000 0.49540  0.25620  0.12730  Biso   1.000  C
  C79      1.0000 0.41400  0.20860  0.94570  Biso   1.000  C
  C80      1.0000 0.47130  0.24200  0.99900  Biso   1.000  C
