data_image0
_cell_length_a       18.208
_cell_length_b       8.797
_cell_length_c       20.665
_cell_angle_alpha    90
_cell_angle_beta     112.43
_cell_angle_gamma    90

_symmetry_space_group_name_H-M    "P 1"
_symmetry_int_tables_number       1

loop_
  _symmetry_equiv_pos_as_xyz
  'x, y, z'

loop_
  _atom_site_label
  _atom_site_occupancy
  _atom_site_fract_x
  _atom_site_fract_y
  _atom_site_fract_z
  _atom_site_thermal_displace_type
  _atom_site_B_iso_or_equiv
  _atom_site_type_symbol
  Ce1      1.0000 0.97806  0.47194  0.23361  Biso   1.000  Ce
  O1       1.0000 0.04420  0.24610  0.21170  Biso   1.000  O
  O2       1.0000 0.95530  0.20720  0.29520  Biso   1.000  O
  O3       1.0000 0.89330  0.41310  0.30580  Biso   1.000  O
  O4       1.0000 0.98440  0.75190  0.17930  Biso   1.000  O
  O5       1.0000 0.97130  0.54970  0.11220  Biso   1.000  O
  O6       1.0000 0.87550  0.30890  0.14600  Biso   1.000  O
  O7       1.0000 0.99540  0.69770  0.31260  Biso   1.000  O
  Ce2      1.0000 0.00141  0.97290  0.25754  Biso   1.000  Ce
  C1       1.0000 0.08070  0.17070  0.18060  Biso   1.000  C
  C2       1.0000 0.91340  0.27770  0.32270  Biso   1.000  C
  C3       1.0000 0.87640  0.18900  0.11670  Biso   1.000  C
  O8       1.0000 0.09130  0.03080  0.18810  Biso   1.000  O
  O9       1.0000 0.12370  0.09700  0.34580  Biso   1.000  O
  O10      1.0000 0.14830  0.86110  0.32450  Biso   1.000  O
  O11      1.0000 0.89850  0.05900  0.14560  Biso   1.000  O
  O12      1.0000 0.01350  0.89640  0.38120  Biso   1.000  O
  C4       1.0000 0.11330  0.25680  0.13360  Biso   1.000  C
  C5       1.0000 0.89320  0.20020  0.37760  Biso   1.000  C
  C6       1.0000 0.84880  0.18210  0.03730  Biso   1.000  C
  H1       1.0000 0.09750  0.36260  0.13140  Biso   1.000  H
  H2       1.0000 0.17090  0.25270  0.15390  Biso   1.000  H
  C7       1.0000 0.08400  0.19220  0.06030  Biso   1.000  C
  H3       1.0000 0.89580  0.09090  0.37260  Biso   1.000  H
  H4       1.0000 0.83940  0.22640  0.37220  Biso   1.000  H
  C8       1.0000 0.95200  0.24900  0.45160  Biso   1.000  C
  H5       1.0000 0.89080  0.13690  0.02580  Biso   1.000  H
  C9       1.0000 0.82640  0.33060  0.99950  Biso   1.000  C
  H6       1.0000 0.80320  0.11480  0.01970  Biso   1.000  H
  H7       1.0000 0.09770  0.09320  0.05370  Biso   1.000  H
  C10      1.0000 0.04000  0.27190  0.00620  Biso   1.000  C
  C11      1.0000 0.93600  0.30500  0.50100  Biso   1.000  C
  C12      1.0000 0.77910  0.34260  0.93480  Biso   1.000  C
  H8       1.0000 0.84780  0.41910  0.02400  Biso   1.000  H
  H9       1.0000 0.02850  0.37210  0.01330  Biso   1.000  H
  C13      1.0000 0.00660  0.20940  0.93200  Biso   1.000  C
  C14      1.0000 0.99480  0.34840  0.56950  Biso   1.000  C
  H10      1.0000 0.75390  0.25430  0.91260  Biso   1.000  H
  C15      1.0000 0.76080  0.48530  0.89200  Biso   1.000  C
  H11      1.0000 0.03160  0.11220  0.93180  Biso   1.000  H
  H12      1.0000 0.95020  0.19110  0.91890  Biso   1.000  H
  C16      1.0000 0.01770  0.31070  0.87720  Biso   1.000  C
  H13      1.0000 0.98450  0.45180  0.57990  Biso   1.000  H
  H14      1.0000 0.04720  0.34620  0.56770  Biso   1.000  H
  C17      1.0000 0.99420  0.24480  0.62800  Biso   1.000  C
  C18      1.0000 0.67180  0.50930  0.85360  Biso   1.000  C
  H15      1.0000 0.78570  0.48030  0.85810  Biso   1.000  H
  H16      1.0000 0.78310  0.57150  0.92240  Biso   1.000  H
  C19      1.0000 0.91270  0.29300  0.44470  Biso   1.000  C
  C20      1.0000 0.97100  0.25900  0.49950  Biso   1.000  C
  Ce3      1.0000 0.52194  0.97194  0.26639  Biso   1.000  Ce
  O13      1.0000 0.45580  0.74610  0.28830  Biso   1.000  O
  O14      1.0000 0.54470  0.70720  0.20480  Biso   1.000  O
  O15      1.0000 0.60670  0.91310  0.19420  Biso   1.000  O
  O16      1.0000 0.51560  0.25190  0.32070  Biso   1.000  O
  O17      1.0000 0.52870  0.04970  0.38780  Biso   1.000  O
  O18      1.0000 0.62450  0.80890  0.35400  Biso   1.000  O
  O19      1.0000 0.50460  0.19770  0.18740  Biso   1.000  O
  Ce4      1.0000 0.49859  0.47290  0.24246  Biso   1.000  Ce
  C21      1.0000 0.41930  0.67070  0.31940  Biso   1.000  C
  C22      1.0000 0.58660  0.77770  0.17730  Biso   1.000  C
  C23      1.0000 0.62360  0.68900  0.38330  Biso   1.000  C
  O20      1.0000 0.40870  0.53080  0.31190  Biso   1.000  O
  O21      1.0000 0.37630  0.59700  0.15420  Biso   1.000  O
  O22      1.0000 0.35170  0.36110  0.17550  Biso   1.000  O
  O23      1.0000 0.60150  0.55900  0.35440  Biso   1.000  O
  O24      1.0000 0.48650  0.39640  0.11880  Biso   1.000  O
  C24      1.0000 0.38670  0.75680  0.36640  Biso   1.000  C
  C25      1.0000 0.60680  0.70020  0.12240  Biso   1.000  C
  C26      1.0000 0.65120  0.68210  0.46270  Biso   1.000  C
  H17      1.0000 0.40250  0.86260  0.36860  Biso   1.000  H
  H18      1.0000 0.32910  0.75270  0.34610  Biso   1.000  H
  C27      1.0000 0.41600  0.69220  0.43970  Biso   1.000  C
  H19      1.0000 0.60420  0.59090  0.12740  Biso   1.000  H
  H20      1.0000 0.66060  0.72640  0.12780  Biso   1.000  H
  C28      1.0000 0.54800  0.74900  0.04840  Biso   1.000  C
  H21      1.0000 0.60920  0.63690  0.47420  Biso   1.000  H
  C29      1.0000 0.67360  0.83060  0.50050  Biso   1.000  C
  H22      1.0000 0.69680  0.61480  0.48030  Biso   1.000  H
  H23      1.0000 0.40230  0.59320  0.44630  Biso   1.000  H
  C30      1.0000 0.46000  0.77190  0.49380  Biso   1.000  C
  C31      1.0000 0.56400  0.80500  0.99900  Biso   1.000  C
  C32      1.0000 0.72090  0.84260  0.56520  Biso   1.000  C
  H24      1.0000 0.65220  0.91910  0.47600  Biso   1.000  H
  H25      1.0000 0.47150  0.87210  0.48670  Biso   1.000  H
  C33      1.0000 0.49340  0.70940  0.56800  Biso   1.000  C
  C34      1.0000 0.50520  0.84840  0.93050  Biso   1.000  C
  H26      1.0000 0.74610  0.75430  0.58740  Biso   1.000  H
  C35      1.0000 0.73920  0.98530  0.60800  Biso   1.000  C
  H27      1.0000 0.46840  0.61220  0.56820  Biso   1.000  H
  H28      1.0000 0.54980  0.69110  0.58110  Biso   1.000  H
  C36      1.0000 0.48230  0.81070  0.62280  Biso   1.000  C
  H29      1.0000 0.51550  0.95180  0.92010  Biso   1.000  H
  H30      1.0000 0.45280  0.84620  0.93230  Biso   1.000  H
  C37      1.0000 0.50580  0.74480  0.87200  Biso   1.000  C
  C38      1.0000 0.82820  0.00930  0.64640  Biso   1.000  C
  H31      1.0000 0.71430  0.98030  0.64190  Biso   1.000  H
  H32      1.0000 0.71690  0.07150  0.57760  Biso   1.000  H
  C39      1.0000 0.58730  0.79300  0.05530  Biso   1.000  C
  C40      1.0000 0.52900  0.75900  0.00050  Biso   1.000  C
  Ce5      1.0000 0.02194  0.52806  0.76639  Biso   1.000  Ce
  O25      1.0000 0.95580  0.75390  0.78830  Biso   1.000  O
  O26      1.0000 0.04470  0.79280  0.70480  Biso   1.000  O
  O27      1.0000 0.10670  0.58690  0.69420  Biso   1.000  O
  O28      1.0000 0.01560  0.24810  0.82070  Biso   1.000  O
  O29      1.0000 0.02870  0.45030  0.88780  Biso   1.000  O
  O30      1.0000 0.12450  0.69110  0.85400  Biso   1.000  O
  O31      1.0000 0.00460  0.30230  0.68740  Biso   1.000  O
  Ce6      1.0000 0.99859  0.02710  0.74246  Biso   1.000  Ce
  C41      1.0000 0.91930  0.82930  0.81940  Biso   1.000  C
  C42      1.0000 0.08660  0.72230  0.67730  Biso   1.000  C
  C43      1.0000 0.12360  0.81100  0.88330  Biso   1.000  C
  O32      1.0000 0.90870  0.96920  0.81190  Biso   1.000  O
  O33      1.0000 0.87630  0.90300  0.65420  Biso   1.000  O
  O34      1.0000 0.85170  0.13890  0.67550  Biso   1.000  O
  O35      1.0000 0.10150  0.94100  0.85440  Biso   1.000  O
  O36      1.0000 0.98650  0.10360  0.61880  Biso   1.000  O
  C44      1.0000 0.88670  0.74320  0.86640  Biso   1.000  C
  C45      1.0000 0.10680  0.79980  0.62240  Biso   1.000  C
  C46      1.0000 0.15120  0.81790  0.96270  Biso   1.000  C
  H33      1.0000 0.90250  0.63740  0.86860  Biso   1.000  H
  H34      1.0000 0.82910  0.74730  0.84610  Biso   1.000  H
  C47      1.0000 0.91600  0.80780  0.93970  Biso   1.000  C
  H35      1.0000 0.10420  0.90910  0.62740  Biso   1.000  H
  H36      1.0000 0.16060  0.77360  0.62780  Biso   1.000  H
  C48      1.0000 0.04800  0.75100  0.54840  Biso   1.000  C
  H37      1.0000 0.10920  0.86310  0.97420  Biso   1.000  H
  C49      1.0000 0.17360  0.66940  0.00050  Biso   1.000  C
  H38      1.0000 0.19680  0.88520  0.98030  Biso   1.000  H
  H39      1.0000 0.90230  0.90680  0.94630  Biso   1.000  H
  C50      1.0000 0.96000  0.72810  0.99380  Biso   1.000  C
  C51      1.0000 0.06400  0.69500  0.49900  Biso   1.000  C
  C52      1.0000 0.22090  0.65740  0.06520  Biso   1.000  C
  H40      1.0000 0.15220  0.58090  0.97600  Biso   1.000  H
  H41      1.0000 0.97150  0.62790  0.98670  Biso   1.000  H
  C53      1.0000 0.99340  0.79060  0.06800  Biso   1.000  C
  C54      1.0000 0.00520  0.65160  0.43050  Biso   1.000  C
  H42      1.0000 0.24610  0.74570  0.08740  Biso   1.000  H
  C55      1.0000 0.23920  0.51470  0.10800  Biso   1.000  C
  H43      1.0000 0.96840  0.88780  0.06820  Biso   1.000  H
  H44      1.0000 0.04980  0.80890  0.08110  Biso   1.000  H
  C56      1.0000 0.98230  0.68930  0.12280  Biso   1.000  C
  H45      1.0000 0.01550  0.54820  0.42010  Biso   1.000  H
  H46      1.0000 0.95280  0.65380  0.43230  Biso   1.000  H
  C57      1.0000 0.00580  0.75520  0.37200  Biso   1.000  C
  C58      1.0000 0.32820  0.49070  0.14640  Biso   1.000  C
  H47      1.0000 0.21430  0.51970  0.14190  Biso   1.000  H
  H48      1.0000 0.21690  0.42850  0.07760  Biso   1.000  H
  C59      1.0000 0.08730  0.70700  0.55530  Biso   1.000  C
  C60      1.0000 0.02900  0.74100  0.50050  Biso   1.000  C
  Ce7      1.0000 0.47806  0.02806  0.73361  Biso   1.000  Ce
  O37      1.0000 0.54420  0.25390  0.71170  Biso   1.000  O
  O38      1.0000 0.45530  0.29280  0.79520  Biso   1.000  O
  O39      1.0000 0.39330  0.08690  0.80580  Biso   1.000  O
  O40      1.0000 0.48440  0.74810  0.67930  Biso   1.000  O
  O41      1.0000 0.47130  0.95030  0.61220  Biso   1.000  O
  O42      1.0000 0.37550  0.19110  0.64600  Biso   1.000  O
  O43      1.0000 0.49540  0.80230  0.81260  Biso   1.000  O
  Ce8      1.0000 0.50141  0.52710  0.75754  Biso   1.000  Ce
  C61      1.0000 0.58070  0.32930  0.68060  Biso   1.000  C
  C62      1.0000 0.41340  0.22230  0.82270  Biso   1.000  C
  C63      1.0000 0.37640  0.31100  0.61670  Biso   1.000  C
  O44      1.0000 0.59130  0.46920  0.68810  Biso   1.000  O
  O45      1.0000 0.62370  0.40300  0.84580  Biso   1.000  O
  O46      1.0000 0.64830  0.63890  0.82450  Biso   1.000  O
  O47      1.0000 0.39850  0.44100  0.64560  Biso   1.000  O
  O48      1.0000 0.51350  0.60360  0.88120  Biso   1.000  O
  C64      1.0000 0.61330  0.24320  0.63360  Biso   1.000  C
  C65      1.0000 0.39320  0.29980  0.87760  Biso   1.000  C
  C66      1.0000 0.34880  0.31790  0.53730  Biso   1.000  C
  H49      1.0000 0.59750  0.13740  0.63140  Biso   1.000  H
  H50      1.0000 0.67090  0.24730  0.65390  Biso   1.000  H
  C67      1.0000 0.58400  0.30780  0.56030  Biso   1.000  C
  H51      1.0000 0.39580  0.40910  0.87260  Biso   1.000  H
  H52      1.0000 0.33940  0.27360  0.87220  Biso   1.000  H
  C68      1.0000 0.45200  0.25100  0.95160  Biso   1.000  C
  H53      1.0000 0.39080  0.36310  0.52580  Biso   1.000  H
  C69      1.0000 0.32640  0.16940  0.49950  Biso   1.000  C
  H54      1.0000 0.30320  0.38520  0.51970  Biso   1.000  H
  H55      1.0000 0.59770  0.40680  0.55370  Biso   1.000  H
  C70      1.0000 0.54000  0.22810  0.50620  Biso   1.000  C
  C71      1.0000 0.43600  0.19500  0.00100  Biso   1.000  C
  C72      1.0000 0.27910  0.15740  0.43480  Biso   1.000  C
  H56      1.0000 0.34780  0.08090  0.52400  Biso   1.000  H
  H57      1.0000 0.52850  0.12790  0.51330  Biso   1.000  H
  C73      1.0000 0.50660  0.29060  0.43200  Biso   1.000  C
  C74      1.0000 0.49480  0.15160  0.06950  Biso   1.000  C
  H58      1.0000 0.25390  0.24570  0.41260  Biso   1.000  H
  C75      1.0000 0.26080  0.01470  0.39200  Biso   1.000  C
  H59      1.0000 0.53160  0.38780  0.43180  Biso   1.000  H
  H60      1.0000 0.45020  0.30890  0.41890  Biso   1.000  H
  C76      1.0000 0.51770  0.18930  0.37720  Biso   1.000  C
  H61      1.0000 0.48450  0.04820  0.07990  Biso   1.000  H
  H62      1.0000 0.54720  0.15380  0.06770  Biso   1.000  H
  C77      1.0000 0.49420  0.25520  0.12800  Biso   1.000  C
  C78      1.0000 0.17180  0.99070  0.35360  Biso   1.000  C
  H63      1.0000 0.28570  0.01970  0.35810  Biso   1.000  H
  H64      1.0000 0.28310  0.92850  0.42240  Biso   1.000  H
  C79      1.0000 0.41270  0.20700  0.94470  Biso   1.000  C
  C80      1.0000 0.47100  0.24100  0.99950  Biso   1.000  C
