data_image0
_cell_length_a       19.46
_cell_length_b       24.2
_cell_length_c       13.81
_cell_angle_alpha    90
_cell_angle_beta     121.17
_cell_angle_gamma    90

_symmetry_space_group_name_H-M    "P 1"
_symmetry_int_tables_number       1

loop_
  _symmetry_equiv_pos_as_xyz
  'x, y, z'

loop_
  _atom_site_label
  _atom_site_occupancy
  _atom_site_fract_x
  _atom_site_fract_y
  _atom_site_fract_z
  _atom_site_thermal_displace_type
  _atom_site_B_iso_or_equiv
  _atom_site_type_symbol
  Cd1      1.0000 0.83253  0.89061  0.54518  Biso   1.000  Cd
  C1       1.0000 0.76270  0.77330  0.92890  Biso   1.000  C
  N1       1.0000 0.80630  0.79140  0.03490  Biso   1.000  N
  N2       1.0000 0.70750  0.73350  0.88890  Biso   1.000  N
  N3       1.0000 0.80870  0.84750  0.68530  Biso   1.000  N
  C2       1.0000 0.83990  0.87010  0.78620  Biso   1.000  C
  H1       1.0000 0.87150  0.90260  0.80340  Biso   1.000  H
  C3       1.0000 0.82660  0.84620  0.87110  Biso   1.000  C
  H2       1.0000 0.85020  0.86220  0.94430  Biso   1.000  H
  C4       1.0000 0.77830  0.79900  0.84360  Biso   1.000  C
  C5       1.0000 0.74480  0.77840  0.73490  Biso   1.000  C
  H3       1.0000 0.71000  0.74730  0.71150  Biso   1.000  H
  C6       1.0000 0.76260  0.80360  0.66130  Biso   1.000  C
  H4       1.0000 0.73990  0.78820  0.58770  Biso   1.000  H
  N4       1.0000 0.04800  0.58770  0.53180  Biso   1.000  N
  N5       1.0000 0.00350  0.63040  0.52600  Biso   1.000  N
  C7       1.0000 0.03040  0.68120  0.51870  Biso   1.000  C
  N6       1.0000 0.09230  0.69050  0.50690  Biso   1.000  N
  N7       1.0000 0.13600  0.64740  0.51180  Biso   1.000  N
  C8       1.0000 0.11400  0.59810  0.52800  Biso   1.000  C
  N8       1.0000 0.90060  0.81840  0.53190  Biso   1.000  N
  C9       1.0000 0.93750  0.81990  0.47370  Biso   1.000  C
  H5       1.0000 0.93450  0.85340  0.43590  Biso   1.000  H
  C10      1.0000 0.97910  0.77750  0.46360  Biso   1.000  C
  H6       1.0000 0.00410  0.78130  0.42040  Biso   1.000  H
  C11      1.0000 0.98370  0.72800  0.51960  Biso   1.000  C
  C12      1.0000 0.94720  0.72580  0.58240  Biso   1.000  C
  H7       1.0000 0.95060  0.69330  0.62300  Biso   1.000  H
  C13      1.0000 0.90590  0.77090  0.58600  Biso   1.000  C
  H8       1.0000 0.88010  0.76850  0.62830  Biso   1.000  H
  N9       1.0000 0.75630  0.96250  0.54250  Biso   1.000  N
  C14      1.0000 0.78020  0.01390  0.54550  Biso   1.000  C
  H9       1.0000 0.82870  0.02000  0.54630  Biso   1.000  H
  C15      1.0000 0.73810  0.05910  0.54760  Biso   1.000  C
  H10      1.0000 0.75960  0.09530  0.55650  Biso   1.000  H
  C16      1.0000 0.16370  0.55100  0.53660  Biso   1.000  C
  C17      1.0000 0.13710  0.49690  0.53200  Biso   1.000  C
  H11      1.0000 0.08780  0.48970  0.52830  Biso   1.000  H
  C18      1.0000 0.68490  0.95370  0.53320  Biso   1.000  C
  H12      1.0000 0.66640  0.91680  0.52720  Biso   1.000  H
  O1       1.0000 0.93360  0.94640  0.69200  Biso   1.000  O
  O2       1.0000 0.95160  0.94520  0.65420  Biso   1.000  O
  Cd2      1.0000 0.33253  0.39061  0.54518  Biso   1.000  Cd
  C19      1.0000 0.26270  0.27330  0.92890  Biso   1.000  C
  N10      1.0000 0.30630  0.29140  0.03490  Biso   1.000  N
  N11      1.0000 0.20750  0.23350  0.88890  Biso   1.000  N
  N12      1.0000 0.30870  0.34750  0.68530  Biso   1.000  N
  C20      1.0000 0.33990  0.37010  0.78620  Biso   1.000  C
  H13      1.0000 0.37150  0.40260  0.80340  Biso   1.000  H
  C21      1.0000 0.32660  0.34620  0.87110  Biso   1.000  C
  H14      1.0000 0.35020  0.36220  0.94430  Biso   1.000  H
  C22      1.0000 0.27830  0.29900  0.84360  Biso   1.000  C
  C23      1.0000 0.24480  0.27840  0.73490  Biso   1.000  C
  H15      1.0000 0.21000  0.24730  0.71150  Biso   1.000  H
  C24      1.0000 0.26260  0.30360  0.66130  Biso   1.000  C
  H16      1.0000 0.23990  0.28820  0.58770  Biso   1.000  H
  N13      1.0000 0.54800  0.08770  0.53180  Biso   1.000  N
  N14      1.0000 0.50350  0.13040  0.52600  Biso   1.000  N
  C25      1.0000 0.53040  0.18120  0.51870  Biso   1.000  C
  N15      1.0000 0.59230  0.19050  0.50690  Biso   1.000  N
  N16      1.0000 0.63600  0.14740  0.51180  Biso   1.000  N
  C26      1.0000 0.61400  0.09810  0.52800  Biso   1.000  C
  N17      1.0000 0.40060  0.31840  0.53190  Biso   1.000  N
  C27      1.0000 0.43750  0.31990  0.47370  Biso   1.000  C
  H17      1.0000 0.43450  0.35340  0.43590  Biso   1.000  H
  C28      1.0000 0.47910  0.27750  0.46360  Biso   1.000  C
  H18      1.0000 0.50410  0.28130  0.42040  Biso   1.000  H
  C29      1.0000 0.48370  0.22800  0.51960  Biso   1.000  C
  C30      1.0000 0.44720  0.22580  0.58240  Biso   1.000  C
  H19      1.0000 0.45060  0.19330  0.62300  Biso   1.000  H
  C31      1.0000 0.40590  0.27090  0.58600  Biso   1.000  C
  H20      1.0000 0.38010  0.26850  0.62830  Biso   1.000  H
  N18      1.0000 0.25630  0.46250  0.54250  Biso   1.000  N
  C32      1.0000 0.28020  0.51390  0.54550  Biso   1.000  C
  H21      1.0000 0.32870  0.52000  0.54630  Biso   1.000  H
  C33      1.0000 0.23810  0.55910  0.54760  Biso   1.000  C
  H22      1.0000 0.25960  0.59530  0.55650  Biso   1.000  H
  C34      1.0000 0.66370  0.05100  0.53660  Biso   1.000  C
  C35      1.0000 0.63710  0.99690  0.53200  Biso   1.000  C
  H23      1.0000 0.58780  0.98970  0.52830  Biso   1.000  H
  C36      1.0000 0.18490  0.45370  0.53320  Biso   1.000  C
  H24      1.0000 0.16640  0.41680  0.52720  Biso   1.000  H
  O3       1.0000 0.43360  0.44640  0.69200  Biso   1.000  O
  O4       1.0000 0.45160  0.44520  0.65420  Biso   1.000  O
  Cd3      1.0000 0.16747  0.89061  0.95482  Biso   1.000  Cd
  C37      1.0000 0.23730  0.77330  0.57110  Biso   1.000  C
  N19      1.0000 0.19370  0.79140  0.46510  Biso   1.000  N
  N20      1.0000 0.29250  0.73350  0.61110  Biso   1.000  N
  N21      1.0000 0.19130  0.84750  0.81470  Biso   1.000  N
  C38      1.0000 0.16010  0.87010  0.71380  Biso   1.000  C
  H25      1.0000 0.12850  0.90260  0.69660  Biso   1.000  H
  C39      1.0000 0.17340  0.84620  0.62890  Biso   1.000  C
  H26      1.0000 0.14980  0.86220  0.55570  Biso   1.000  H
  C40      1.0000 0.22170  0.79900  0.65640  Biso   1.000  C
  C41      1.0000 0.25520  0.77840  0.76510  Biso   1.000  C
  H27      1.0000 0.29000  0.74730  0.78850  Biso   1.000  H
  C42      1.0000 0.23740  0.80360  0.83870  Biso   1.000  C
  H28      1.0000 0.26010  0.78820  0.91230  Biso   1.000  H
  N22      1.0000 0.95200  0.58770  0.96820  Biso   1.000  N
  N23      1.0000 0.99650  0.63040  0.97400  Biso   1.000  N
  C43      1.0000 0.96960  0.68120  0.98130  Biso   1.000  C
  N24      1.0000 0.90770  0.69050  0.99310  Biso   1.000  N
  N25      1.0000 0.86400  0.64740  0.98820  Biso   1.000  N
  C44      1.0000 0.88600  0.59810  0.97200  Biso   1.000  C
  N26      1.0000 0.09940  0.81840  0.96810  Biso   1.000  N
  C45      1.0000 0.06250  0.81990  0.02630  Biso   1.000  C
  H29      1.0000 0.06550  0.85340  0.06410  Biso   1.000  H
  C46      1.0000 0.02090  0.77750  0.03640  Biso   1.000  C
  H30      1.0000 0.99590  0.78130  0.07960  Biso   1.000  H
  C47      1.0000 0.01630  0.72800  0.98040  Biso   1.000  C
  C48      1.0000 0.05280  0.72580  0.91760  Biso   1.000  C
  H31      1.0000 0.04940  0.69330  0.87700  Biso   1.000  H
  C49      1.0000 0.09410  0.77090  0.91400  Biso   1.000  C
  H32      1.0000 0.11990  0.76850  0.87170  Biso   1.000  H
  N27      1.0000 0.24370  0.96250  0.95750  Biso   1.000  N
  C50      1.0000 0.21980  0.01390  0.95450  Biso   1.000  C
  H33      1.0000 0.17130  0.02000  0.95370  Biso   1.000  H
  C51      1.0000 0.26190  0.05910  0.95240  Biso   1.000  C
  H34      1.0000 0.24040  0.09530  0.94350  Biso   1.000  H
  C52      1.0000 0.83630  0.55100  0.96340  Biso   1.000  C
  C53      1.0000 0.86290  0.49690  0.96800  Biso   1.000  C
  H35      1.0000 0.91220  0.48970  0.97170  Biso   1.000  H
  C54      1.0000 0.31510  0.95370  0.96680  Biso   1.000  C
  H36      1.0000 0.33360  0.91680  0.97280  Biso   1.000  H
  O5       1.0000 0.06640  0.94640  0.80800  Biso   1.000  O
  O6       1.0000 0.04840  0.94520  0.84580  Biso   1.000  O
  Cd4      1.0000 0.66747  0.39061  0.95482  Biso   1.000  Cd
  C55      1.0000 0.73730  0.27330  0.57110  Biso   1.000  C
  N28      1.0000 0.69370  0.29140  0.46510  Biso   1.000  N
  N29      1.0000 0.79250  0.23350  0.61110  Biso   1.000  N
  N30      1.0000 0.69130  0.34750  0.81470  Biso   1.000  N
  C56      1.0000 0.66010  0.37010  0.71380  Biso   1.000  C
  H37      1.0000 0.62850  0.40260  0.69660  Biso   1.000  H
  C57      1.0000 0.67340  0.34620  0.62890  Biso   1.000  C
  H38      1.0000 0.64980  0.36220  0.55570  Biso   1.000  H
  C58      1.0000 0.72170  0.29900  0.65640  Biso   1.000  C
  C59      1.0000 0.75520  0.27840  0.76510  Biso   1.000  C
  H39      1.0000 0.79000  0.24730  0.78850  Biso   1.000  H
  C60      1.0000 0.73740  0.30360  0.83870  Biso   1.000  C
  H40      1.0000 0.76010  0.28820  0.91230  Biso   1.000  H
  N31      1.0000 0.45200  0.08770  0.96820  Biso   1.000  N
  N32      1.0000 0.49650  0.13040  0.97400  Biso   1.000  N
  C61      1.0000 0.46960  0.18120  0.98130  Biso   1.000  C
  N33      1.0000 0.40770  0.19050  0.99310  Biso   1.000  N
  N34      1.0000 0.36400  0.14740  0.98820  Biso   1.000  N
  C62      1.0000 0.38600  0.09810  0.97200  Biso   1.000  C
  N35      1.0000 0.59940  0.31840  0.96810  Biso   1.000  N
  C63      1.0000 0.56250  0.31990  0.02630  Biso   1.000  C
  H41      1.0000 0.56550  0.35340  0.06410  Biso   1.000  H
  C64      1.0000 0.52090  0.27750  0.03640  Biso   1.000  C
  H42      1.0000 0.49590  0.28130  0.07960  Biso   1.000  H
  C65      1.0000 0.51630  0.22800  0.98040  Biso   1.000  C
  C66      1.0000 0.55280  0.22580  0.91760  Biso   1.000  C
  H43      1.0000 0.54940  0.19330  0.87700  Biso   1.000  H
  C67      1.0000 0.59410  0.27090  0.91400  Biso   1.000  C
  H44      1.0000 0.61990  0.26850  0.87170  Biso   1.000  H
  N36      1.0000 0.74370  0.46250  0.95750  Biso   1.000  N
  C68      1.0000 0.71980  0.51390  0.95450  Biso   1.000  C
  H45      1.0000 0.67130  0.52000  0.95370  Biso   1.000  H
  C69      1.0000 0.76190  0.55910  0.95240  Biso   1.000  C
  H46      1.0000 0.74040  0.59530  0.94350  Biso   1.000  H
  C70      1.0000 0.33630  0.05100  0.96340  Biso   1.000  C
  C71      1.0000 0.36290  0.99690  0.96800  Biso   1.000  C
  H47      1.0000 0.41220  0.98970  0.97170  Biso   1.000  H
  C72      1.0000 0.81510  0.45370  0.96680  Biso   1.000  C
  H48      1.0000 0.83360  0.41680  0.97280  Biso   1.000  H
  O7       1.0000 0.56640  0.44640  0.80800  Biso   1.000  O
  O8       1.0000 0.54840  0.44520  0.84580  Biso   1.000  O
  Cd5      1.0000 0.16747  0.10939  0.45482  Biso   1.000  Cd
  C73      1.0000 0.23730  0.22670  0.07110  Biso   1.000  C
  N37      1.0000 0.19370  0.20860  0.96510  Biso   1.000  N
  N38      1.0000 0.29250  0.26650  0.11110  Biso   1.000  N
  N39      1.0000 0.19130  0.15250  0.31470  Biso   1.000  N
  C74      1.0000 0.16010  0.12990  0.21380  Biso   1.000  C
  H49      1.0000 0.12850  0.09740  0.19660  Biso   1.000  H
  C75      1.0000 0.17340  0.15380  0.12890  Biso   1.000  C
  H50      1.0000 0.14980  0.13780  0.05570  Biso   1.000  H
  C76      1.0000 0.22170  0.20100  0.15640  Biso   1.000  C
  C77      1.0000 0.25520  0.22160  0.26510  Biso   1.000  C
  H51      1.0000 0.29000  0.25270  0.28850  Biso   1.000  H
  C78      1.0000 0.23740  0.19640  0.33870  Biso   1.000  C
  H52      1.0000 0.26010  0.21180  0.41230  Biso   1.000  H
  N40      1.0000 0.95200  0.41230  0.46820  Biso   1.000  N
  N41      1.0000 0.99650  0.36960  0.47400  Biso   1.000  N
  C79      1.0000 0.96960  0.31880  0.48130  Biso   1.000  C
  N42      1.0000 0.90770  0.30950  0.49310  Biso   1.000  N
  N43      1.0000 0.86400  0.35260  0.48820  Biso   1.000  N
  C80      1.0000 0.88600  0.40190  0.47200  Biso   1.000  C
  N44      1.0000 0.09940  0.18160  0.46810  Biso   1.000  N
  C81      1.0000 0.06250  0.18010  0.52630  Biso   1.000  C
  H53      1.0000 0.06550  0.14660  0.56410  Biso   1.000  H
  C82      1.0000 0.02090  0.22250  0.53640  Biso   1.000  C
  H54      1.0000 0.99590  0.21870  0.57960  Biso   1.000  H
  C83      1.0000 0.01630  0.27200  0.48040  Biso   1.000  C
  C84      1.0000 0.05280  0.27420  0.41760  Biso   1.000  C
  H55      1.0000 0.04940  0.30670  0.37700  Biso   1.000  H
  C85      1.0000 0.09410  0.22910  0.41400  Biso   1.000  C
  H56      1.0000 0.11990  0.23150  0.37170  Biso   1.000  H
  N45      1.0000 0.24370  0.03750  0.45750  Biso   1.000  N
  C86      1.0000 0.21980  0.98610  0.45450  Biso   1.000  C
  H57      1.0000 0.17130  0.98000  0.45370  Biso   1.000  H
  C87      1.0000 0.26190  0.94090  0.45240  Biso   1.000  C
  H58      1.0000 0.24040  0.90470  0.44350  Biso   1.000  H
  C88      1.0000 0.83630  0.44900  0.46340  Biso   1.000  C
  C89      1.0000 0.86290  0.50310  0.46800  Biso   1.000  C
  H59      1.0000 0.91220  0.51030  0.47170  Biso   1.000  H
  C90      1.0000 0.31510  0.04630  0.46680  Biso   1.000  C
  H60      1.0000 0.33360  0.08320  0.47280  Biso   1.000  H
  O9       1.0000 0.06640  0.05360  0.30800  Biso   1.000  O
  O10      1.0000 0.04840  0.05480  0.34580  Biso   1.000  O
  Cd6      1.0000 0.66747  0.60939  0.45482  Biso   1.000  Cd
  C91      1.0000 0.73730  0.72670  0.07110  Biso   1.000  C
  N46      1.0000 0.69370  0.70860  0.96510  Biso   1.000  N
  N47      1.0000 0.79250  0.76650  0.11110  Biso   1.000  N
  N48      1.0000 0.69130  0.65250  0.31470  Biso   1.000  N
  C92      1.0000 0.66010  0.62990  0.21380  Biso   1.000  C
  H61      1.0000 0.62850  0.59740  0.19660  Biso   1.000  H
  C93      1.0000 0.67340  0.65380  0.12890  Biso   1.000  C
  H62      1.0000 0.64980  0.63780  0.05570  Biso   1.000  H
  C94      1.0000 0.72170  0.70100  0.15640  Biso   1.000  C
  C95      1.0000 0.75520  0.72160  0.26510  Biso   1.000  C
  H63      1.0000 0.79000  0.75270  0.28850  Biso   1.000  H
  C96      1.0000 0.73740  0.69640  0.33870  Biso   1.000  C
  H64      1.0000 0.76010  0.71180  0.41230  Biso   1.000  H
  N49      1.0000 0.45200  0.91230  0.46820  Biso   1.000  N
  N50      1.0000 0.49650  0.86960  0.47400  Biso   1.000  N
  C97      1.0000 0.46960  0.81880  0.48130  Biso   1.000  C
  N51      1.0000 0.40770  0.80950  0.49310  Biso   1.000  N
  N52      1.0000 0.36400  0.85260  0.48820  Biso   1.000  N
  C98      1.0000 0.38600  0.90190  0.47200  Biso   1.000  C
  N53      1.0000 0.59940  0.68160  0.46810  Biso   1.000  N
  C99      1.0000 0.56250  0.68010  0.52630  Biso   1.000  C
  H65      1.0000 0.56550  0.64660  0.56410  Biso   1.000  H
  C100     1.0000 0.52090  0.72250  0.53640  Biso   1.000  C
  H66      1.0000 0.49590  0.71870  0.57960  Biso   1.000  H
  C101     1.0000 0.51630  0.77200  0.48040  Biso   1.000  C
  C102     1.0000 0.55280  0.77420  0.41760  Biso   1.000  C
  H67      1.0000 0.54940  0.80670  0.37700  Biso   1.000  H
  C103     1.0000 0.59410  0.72910  0.41400  Biso   1.000  C
  H68      1.0000 0.61990  0.73150  0.37170  Biso   1.000  H
  N54      1.0000 0.74370  0.53750  0.45750  Biso   1.000  N
  C104     1.0000 0.71980  0.48610  0.45450  Biso   1.000  C
  H69      1.0000 0.67130  0.48000  0.45370  Biso   1.000  H
  C105     1.0000 0.76190  0.44090  0.45240  Biso   1.000  C
  H70      1.0000 0.74040  0.40470  0.44350  Biso   1.000  H
  C106     1.0000 0.33630  0.94900  0.46340  Biso   1.000  C
  C107     1.0000 0.36290  0.00310  0.46800  Biso   1.000  C
  H71      1.0000 0.41220  0.01030  0.47170  Biso   1.000  H
  C108     1.0000 0.81510  0.54630  0.46680  Biso   1.000  C
  H72      1.0000 0.83360  0.58320  0.47280  Biso   1.000  H
  O11      1.0000 0.56640  0.55360  0.30800  Biso   1.000  O
  O12      1.0000 0.54840  0.55480  0.34580  Biso   1.000  O
  Cd7      1.0000 0.83253  0.10939  0.04518  Biso   1.000  Cd
  C109     1.0000 0.76270  0.22670  0.42890  Biso   1.000  C
  N55      1.0000 0.80630  0.20860  0.53490  Biso   1.000  N
  N56      1.0000 0.70750  0.26650  0.38890  Biso   1.000  N
  N57      1.0000 0.80870  0.15250  0.18530  Biso   1.000  N
  C110     1.0000 0.83990  0.12990  0.28620  Biso   1.000  C
  H73      1.0000 0.87150  0.09740  0.30340  Biso   1.000  H
  C111     1.0000 0.82660  0.15380  0.37110  Biso   1.000  C
  H74      1.0000 0.85020  0.13780  0.44430  Biso   1.000  H
  C112     1.0000 0.77830  0.20100  0.34360  Biso   1.000  C
  C113     1.0000 0.74480  0.22160  0.23490  Biso   1.000  C
  H75      1.0000 0.71000  0.25270  0.21150  Biso   1.000  H
  C114     1.0000 0.76260  0.19640  0.16130  Biso   1.000  C
  H76      1.0000 0.73990  0.21180  0.08770  Biso   1.000  H
  N58      1.0000 0.04800  0.41230  0.03180  Biso   1.000  N
  N59      1.0000 0.00350  0.36960  0.02600  Biso   1.000  N
  C115     1.0000 0.03040  0.31880  0.01870  Biso   1.000  C
  N60      1.0000 0.09230  0.30950  0.00690  Biso   1.000  N
  N61      1.0000 0.13600  0.35260  0.01180  Biso   1.000  N
  C116     1.0000 0.11400  0.40190  0.02800  Biso   1.000  C
  N62      1.0000 0.90060  0.18160  0.03190  Biso   1.000  N
  C117     1.0000 0.93750  0.18010  0.97370  Biso   1.000  C
  H77      1.0000 0.93450  0.14660  0.93590  Biso   1.000  H
  C118     1.0000 0.97910  0.22250  0.96360  Biso   1.000  C
  H78      1.0000 0.00410  0.21870  0.92040  Biso   1.000  H
  C119     1.0000 0.98370  0.27200  0.01960  Biso   1.000  C
  C120     1.0000 0.94720  0.27420  0.08240  Biso   1.000  C
  H79      1.0000 0.95060  0.30670  0.12300  Biso   1.000  H
  C121     1.0000 0.90590  0.22910  0.08600  Biso   1.000  C
  H80      1.0000 0.88010  0.23150  0.12830  Biso   1.000  H
  N63      1.0000 0.75630  0.03750  0.04250  Biso   1.000  N
  C122     1.0000 0.78020  0.98610  0.04550  Biso   1.000  C
  H81      1.0000 0.82870  0.98000  0.04630  Biso   1.000  H
  C123     1.0000 0.73810  0.94090  0.04760  Biso   1.000  C
  H82      1.0000 0.75960  0.90470  0.05650  Biso   1.000  H
  C124     1.0000 0.16370  0.44900  0.03660  Biso   1.000  C
  C125     1.0000 0.13710  0.50310  0.03200  Biso   1.000  C
  H83      1.0000 0.08780  0.51030  0.02830  Biso   1.000  H
  C126     1.0000 0.68490  0.04630  0.03320  Biso   1.000  C
  H84      1.0000 0.66640  0.08320  0.02720  Biso   1.000  H
  O13      1.0000 0.93360  0.05360  0.19200  Biso   1.000  O
  O14      1.0000 0.95160  0.05480  0.15420  Biso   1.000  O
  Cd8      1.0000 0.33253  0.60939  0.04518  Biso   1.000  Cd
  C127     1.0000 0.26270  0.72670  0.42890  Biso   1.000  C
  N64      1.0000 0.30630  0.70860  0.53490  Biso   1.000  N
  N65      1.0000 0.20750  0.76650  0.38890  Biso   1.000  N
  N66      1.0000 0.30870  0.65250  0.18530  Biso   1.000  N
  C128     1.0000 0.33990  0.62990  0.28620  Biso   1.000  C
  H85      1.0000 0.37150  0.59740  0.30340  Biso   1.000  H
  C129     1.0000 0.32660  0.65380  0.37110  Biso   1.000  C
  H86      1.0000 0.35020  0.63780  0.44430  Biso   1.000  H
  C130     1.0000 0.27830  0.70100  0.34360  Biso   1.000  C
  C131     1.0000 0.24480  0.72160  0.23490  Biso   1.000  C
  H87      1.0000 0.21000  0.75270  0.21150  Biso   1.000  H
  C132     1.0000 0.26260  0.69640  0.16130  Biso   1.000  C
  H88      1.0000 0.23990  0.71180  0.08770  Biso   1.000  H
  N67      1.0000 0.54800  0.91230  0.03180  Biso   1.000  N
  N68      1.0000 0.50350  0.86960  0.02600  Biso   1.000  N
  C133     1.0000 0.53040  0.81880  0.01870  Biso   1.000  C
  N69      1.0000 0.59230  0.80950  0.00690  Biso   1.000  N
  N70      1.0000 0.63600  0.85260  0.01180  Biso   1.000  N
  C134     1.0000 0.61400  0.90190  0.02800  Biso   1.000  C
  N71      1.0000 0.40060  0.68160  0.03190  Biso   1.000  N
  C135     1.0000 0.43750  0.68010  0.97370  Biso   1.000  C
  H89      1.0000 0.43450  0.64660  0.93590  Biso   1.000  H
  C136     1.0000 0.47910  0.72250  0.96360  Biso   1.000  C
  H90      1.0000 0.50410  0.71870  0.92040  Biso   1.000  H
  C137     1.0000 0.48370  0.77200  0.01960  Biso   1.000  C
  C138     1.0000 0.44720  0.77420  0.08240  Biso   1.000  C
  H91      1.0000 0.45060  0.80670  0.12300  Biso   1.000  H
  C139     1.0000 0.40590  0.72910  0.08600  Biso   1.000  C
  H92      1.0000 0.38010  0.73150  0.12830  Biso   1.000  H
  N72      1.0000 0.25630  0.53750  0.04250  Biso   1.000  N
  C140     1.0000 0.28020  0.48610  0.04550  Biso   1.000  C
  H93      1.0000 0.32870  0.48000  0.04630  Biso   1.000  H
  C141     1.0000 0.23810  0.44090  0.04760  Biso   1.000  C
  H94      1.0000 0.25960  0.40470  0.05650  Biso   1.000  H
  C142     1.0000 0.66370  0.94900  0.03660  Biso   1.000  C
  C143     1.0000 0.63710  0.00310  0.03200  Biso   1.000  C
  H95      1.0000 0.58780  0.01030  0.02830  Biso   1.000  H
  C144     1.0000 0.18490  0.54630  0.03320  Biso   1.000  C
  H96      1.0000 0.16640  0.58320  0.02720  Biso   1.000  H
  O15      1.0000 0.43360  0.55360  0.19200  Biso   1.000  O
  O16      1.0000 0.45160  0.55480  0.15420  Biso   1.000  O
  N73      1.0000 0.00000  0.92370  0.75000  Biso   1.000  N
  O17      1.0000 0.00000  0.87280  0.75000  Biso   1.000  O
  N74      1.0000 0.50000  0.42370  0.75000  Biso   1.000  N
  O18      1.0000 0.50000  0.37280  0.75000  Biso   1.000  O
  N75      1.0000 0.00000  0.07630  0.25000  Biso   1.000  N
  O19      1.0000 0.00000  0.12720  0.25000  Biso   1.000  O
  N76      1.0000 0.50000  0.57630  0.25000  Biso   1.000  N
  O20      1.0000 0.50000  0.62720  0.25000  Biso   1.000  O
