data_image0
_cell_length_a       18.701
_cell_length_b       18.701
_cell_length_c       49.754
_cell_angle_alpha    90
_cell_angle_beta     90
_cell_angle_gamma    120

_symmetry_space_group_name_H-M    "P 1"
_symmetry_int_tables_number       1

loop_
  _symmetry_equiv_pos_as_xyz
  'x, y, z'

loop_
  _atom_site_label
  _atom_site_occupancy
  _atom_site_fract_x
  _atom_site_fract_y
  _atom_site_fract_z
  _atom_site_thermal_displace_type
  _atom_site_B_iso_or_equiv
  _atom_site_type_symbol
  C1       1.0000 0.97096  0.15851  0.33125  Biso   1.000  C
  H1       1.0000 0.02080  0.19470  0.32300  Biso   1.000  H
  C2       1.0000 0.95392  0.17551  0.35705  Biso   1.000  C
  H2       1.0000 0.99260  0.22240  0.36620  Biso   1.000  H
  C3       1.0000 0.85568  0.27419  0.43891  Biso   1.000  C
  H3       1.0000 0.90390  0.31280  0.43040  Biso   1.000  H
  C4       1.0000 0.83622  0.28801  0.46484  Biso   1.000  C
  C5       1.0000 0.88909  0.36064  0.47811  Biso   1.000  C
  O1       1.0000 0.99576  0.12340  0.28167  Biso   1.000  O
  O2       1.0000 0.94754  0.41033  0.46476  Biso   1.000  O
  O3       1.0000 0.87303  0.36962  0.50130  Biso   1.000  O
  H4       1.0000 0.17330  0.57230  0.44230  Biso   1.000  H
  H5       1.0000 0.12200  0.61260  0.43240  Biso   1.000  H
  H6       1.0000 0.91570  0.44380  0.92990  Biso   1.000  H
  H7       1.0000 0.86440  0.38020  0.93980  Biso   1.000  H
  C6       1.0000 0.84149  0.81245  0.33125  Biso   1.000  C
  H8       1.0000 0.80530  0.82610  0.32300  Biso   1.000  H
  C7       1.0000 0.82449  0.77841  0.35705  Biso   1.000  C
  H9       1.0000 0.77760  0.77020  0.36620  Biso   1.000  H
  C8       1.0000 0.72581  0.58149  0.43891  Biso   1.000  C
  H10      1.0000 0.68720  0.59110  0.43040  Biso   1.000  H
  C9       1.0000 0.71199  0.54821  0.46484  Biso   1.000  C
  C10      1.0000 0.63936  0.52845  0.47811  Biso   1.000  C
  O4       1.0000 0.87660  0.87236  0.28167  Biso   1.000  O
  O5       1.0000 0.58967  0.53721  0.46476  Biso   1.000  O
  O6       1.0000 0.63038  0.50341  0.50130  Biso   1.000  O
  H11      1.0000 0.42770  0.60100  0.44230  Biso   1.000  H
  H12      1.0000 0.38740  0.50940  0.43240  Biso   1.000  H
  H13      1.0000 0.55620  0.47190  0.92990  Biso   1.000  H
  H14      1.0000 0.61980  0.48420  0.93980  Biso   1.000  H
  C11      1.0000 0.18755  0.02904  0.33125  Biso   1.000  C
  H15      1.0000 0.17390  0.97920  0.32300  Biso   1.000  H
  C12      1.0000 0.22159  0.04608  0.35705  Biso   1.000  C
  H16      1.0000 0.22980  0.00740  0.36620  Biso   1.000  H
  C13      1.0000 0.41851  0.14432  0.43891  Biso   1.000  C
  H17      1.0000 0.40890  0.09610  0.43040  Biso   1.000  H
  C14      1.0000 0.45179  0.16378  0.46484  Biso   1.000  C
  C15      1.0000 0.47155  0.11091  0.47811  Biso   1.000  C
  O7       1.0000 0.12764  0.00424  0.28167  Biso   1.000  O
  O8       1.0000 0.46279  0.05246  0.46476  Biso   1.000  O
  O9       1.0000 0.49659  0.12697  0.50130  Biso   1.000  O
  H18      1.0000 0.39900  0.82670  0.44230  Biso   1.000  H
  H19      1.0000 0.49060  0.87800  0.43240  Biso   1.000  H
  H20      1.0000 0.52810  0.08430  0.92990  Biso   1.000  H
  H21      1.0000 0.51580  0.13560  0.93980  Biso   1.000  H
  C16      1.0000 0.02904  0.84149  0.83125  Biso   1.000  C
  H22      1.0000 0.97920  0.80530  0.82300  Biso   1.000  H
  C17      1.0000 0.04608  0.82449  0.85705  Biso   1.000  C
  H23      1.0000 0.00740  0.77760  0.86620  Biso   1.000  H
  C18      1.0000 0.14432  0.72581  0.93891  Biso   1.000  C
  H24      1.0000 0.09610  0.68720  0.93040  Biso   1.000  H
  C19      1.0000 0.16378  0.71199  0.96484  Biso   1.000  C
  C20      1.0000 0.11091  0.63936  0.97811  Biso   1.000  C
  O10      1.0000 0.00424  0.87660  0.78167  Biso   1.000  O
  O11      1.0000 0.05246  0.58967  0.96476  Biso   1.000  O
  O12      1.0000 0.12697  0.63038  0.00130  Biso   1.000  O
  H25      1.0000 0.82670  0.42770  0.94230  Biso   1.000  H
  H26      1.0000 0.87800  0.38740  0.93240  Biso   1.000  H
  H27      1.0000 0.08430  0.55620  0.42990  Biso   1.000  H
  H28      1.0000 0.13560  0.61980  0.43980  Biso   1.000  H
  C21      1.0000 0.15851  0.18755  0.83125  Biso   1.000  C
  H29      1.0000 0.19470  0.17390  0.82300  Biso   1.000  H
  C22      1.0000 0.17551  0.22159  0.85705  Biso   1.000  C
  H30      1.0000 0.22240  0.22980  0.86620  Biso   1.000  H
  C23      1.0000 0.27419  0.41851  0.93891  Biso   1.000  C
  H31      1.0000 0.31280  0.40890  0.93040  Biso   1.000  H
  C24      1.0000 0.28801  0.45179  0.96484  Biso   1.000  C
  C25      1.0000 0.36064  0.47155  0.97811  Biso   1.000  C
  O13      1.0000 0.12340  0.12764  0.78167  Biso   1.000  O
  O14      1.0000 0.41033  0.46279  0.96476  Biso   1.000  O
  O15      1.0000 0.36962  0.49659  0.00130  Biso   1.000  O
  H32      1.0000 0.57230  0.39900  0.94230  Biso   1.000  H
  H33      1.0000 0.61260  0.49060  0.93240  Biso   1.000  H
  H34      1.0000 0.44380  0.52810  0.42990  Biso   1.000  H
  H35      1.0000 0.38020  0.51580  0.43980  Biso   1.000  H
  C26      1.0000 0.81245  0.97096  0.83125  Biso   1.000  C
  H36      1.0000 0.82610  0.02080  0.82300  Biso   1.000  H
  C27      1.0000 0.77841  0.95392  0.85705  Biso   1.000  C
  H37      1.0000 0.77020  0.99260  0.86620  Biso   1.000  H
  C28      1.0000 0.58149  0.85568  0.93891  Biso   1.000  C
  H38      1.0000 0.59110  0.90390  0.93040  Biso   1.000  H
  C29      1.0000 0.54821  0.83622  0.96484  Biso   1.000  C
  C30      1.0000 0.52845  0.88909  0.97811  Biso   1.000  C
  O16      1.0000 0.87236  0.99576  0.78167  Biso   1.000  O
  O17      1.0000 0.53721  0.94754  0.96476  Biso   1.000  O
  O18      1.0000 0.50341  0.87303  0.00130  Biso   1.000  O
  H39      1.0000 0.60100  0.17330  0.94230  Biso   1.000  H
  H40      1.0000 0.50940  0.12200  0.93240  Biso   1.000  H
  H41      1.0000 0.47190  0.91570  0.42990  Biso   1.000  H
  H42      1.0000 0.48420  0.86440  0.43980  Biso   1.000  H
  C31      1.0000 0.15851  0.97096  0.66875  Biso   1.000  C
  H43      1.0000 0.19470  0.02080  0.67700  Biso   1.000  H
  C32      1.0000 0.17551  0.95392  0.64295  Biso   1.000  C
  H44      1.0000 0.22240  0.99260  0.63380  Biso   1.000  H
  C33      1.0000 0.27419  0.85568  0.56109  Biso   1.000  C
  H45      1.0000 0.31280  0.90390  0.56960  Biso   1.000  H
  C34      1.0000 0.28801  0.83622  0.53516  Biso   1.000  C
  C35      1.0000 0.36064  0.88909  0.52189  Biso   1.000  C
  O19      1.0000 0.12340  0.99576  0.71833  Biso   1.000  O
  O20      1.0000 0.41033  0.94754  0.53524  Biso   1.000  O
  O21      1.0000 0.36962  0.87303  0.49870  Biso   1.000  O
  H46      1.0000 0.57230  0.17330  0.55770  Biso   1.000  H
  H47      1.0000 0.61260  0.12200  0.56760  Biso   1.000  H
  H48      1.0000 0.44380  0.91570  0.07010  Biso   1.000  H
  H49      1.0000 0.38020  0.86440  0.06020  Biso   1.000  H
  C36      1.0000 0.81245  0.84149  0.66875  Biso   1.000  C
  H50      1.0000 0.82610  0.80530  0.67700  Biso   1.000  H
  C37      1.0000 0.77841  0.82449  0.64295  Biso   1.000  C
  H51      1.0000 0.77020  0.77760  0.63380  Biso   1.000  H
  C38      1.0000 0.58149  0.72581  0.56109  Biso   1.000  C
  H52      1.0000 0.59110  0.68720  0.56960  Biso   1.000  H
  C39      1.0000 0.54821  0.71199  0.53516  Biso   1.000  C
  C40      1.0000 0.52845  0.63936  0.52189  Biso   1.000  C
  O22      1.0000 0.87236  0.87660  0.71833  Biso   1.000  O
  O23      1.0000 0.53721  0.58967  0.53524  Biso   1.000  O
  O24      1.0000 0.50341  0.63038  0.49870  Biso   1.000  O
  H53      1.0000 0.60100  0.42770  0.55770  Biso   1.000  H
  H54      1.0000 0.50940  0.38740  0.56760  Biso   1.000  H
  H55      1.0000 0.47190  0.55620  0.07010  Biso   1.000  H
  H56      1.0000 0.48420  0.61980  0.06020  Biso   1.000  H
  C41      1.0000 0.02904  0.18755  0.66875  Biso   1.000  C
  H57      1.0000 0.97920  0.17390  0.67700  Biso   1.000  H
  C42      1.0000 0.04608  0.22159  0.64295  Biso   1.000  C
  H58      1.0000 0.00740  0.22980  0.63380  Biso   1.000  H
  C43      1.0000 0.14432  0.41851  0.56109  Biso   1.000  C
  H59      1.0000 0.09610  0.40890  0.56960  Biso   1.000  H
  C44      1.0000 0.16378  0.45179  0.53516  Biso   1.000  C
  C45      1.0000 0.11091  0.47155  0.52189  Biso   1.000  C
  O25      1.0000 0.00424  0.12764  0.71833  Biso   1.000  O
  O26      1.0000 0.05246  0.46279  0.53524  Biso   1.000  O
  O27      1.0000 0.12697  0.49659  0.49870  Biso   1.000  O
  H60      1.0000 0.82670  0.39900  0.55770  Biso   1.000  H
  H61      1.0000 0.87800  0.49060  0.56760  Biso   1.000  H
  H62      1.0000 0.08430  0.52810  0.07010  Biso   1.000  H
  H63      1.0000 0.13560  0.51580  0.06020  Biso   1.000  H
  C46      1.0000 0.84149  0.02904  0.16875  Biso   1.000  C
  H64      1.0000 0.80530  0.97920  0.17700  Biso   1.000  H
  C47      1.0000 0.82449  0.04608  0.14295  Biso   1.000  C
  H65      1.0000 0.77760  0.00740  0.13380  Biso   1.000  H
  C48      1.0000 0.72581  0.14432  0.06109  Biso   1.000  C
  H66      1.0000 0.68720  0.09610  0.06960  Biso   1.000  H
  C49      1.0000 0.71199  0.16378  0.03516  Biso   1.000  C
  C50      1.0000 0.63936  0.11091  0.02189  Biso   1.000  C
  O28      1.0000 0.87660  0.00424  0.21833  Biso   1.000  O
  O29      1.0000 0.58967  0.05246  0.03524  Biso   1.000  O
  O30      1.0000 0.63038  0.12697  0.99870  Biso   1.000  O
  H67      1.0000 0.42770  0.82670  0.05770  Biso   1.000  H
  H68      1.0000 0.38740  0.87800  0.06760  Biso   1.000  H
  H69      1.0000 0.55620  0.08430  0.57010  Biso   1.000  H
  H70      1.0000 0.61980  0.13560  0.56020  Biso   1.000  H
  C51      1.0000 0.18755  0.15851  0.16875  Biso   1.000  C
  H71      1.0000 0.17390  0.19470  0.17700  Biso   1.000  H
  C52      1.0000 0.22159  0.17551  0.14295  Biso   1.000  C
  H72      1.0000 0.22980  0.22240  0.13380  Biso   1.000  H
  C53      1.0000 0.41851  0.27419  0.06109  Biso   1.000  C
  H73      1.0000 0.40890  0.31280  0.06960  Biso   1.000  H
  C54      1.0000 0.45179  0.28801  0.03516  Biso   1.000  C
  C55      1.0000 0.47155  0.36064  0.02189  Biso   1.000  C
  O31      1.0000 0.12764  0.12340  0.21833  Biso   1.000  O
  O32      1.0000 0.46279  0.41033  0.03524  Biso   1.000  O
  O33      1.0000 0.49659  0.36962  0.99870  Biso   1.000  O
  H74      1.0000 0.39900  0.57230  0.05770  Biso   1.000  H
  H75      1.0000 0.49060  0.61260  0.06760  Biso   1.000  H
  H76      1.0000 0.52810  0.44380  0.57010  Biso   1.000  H
  H77      1.0000 0.51580  0.38020  0.56020  Biso   1.000  H
  C56      1.0000 0.97096  0.81245  0.16875  Biso   1.000  C
  H78      1.0000 0.02080  0.82610  0.17700  Biso   1.000  H
  C57      1.0000 0.95392  0.77841  0.14295  Biso   1.000  C
  H79      1.0000 0.99260  0.77020  0.13380  Biso   1.000  H
  C58      1.0000 0.85568  0.58149  0.06109  Biso   1.000  C
  H80      1.0000 0.90390  0.59110  0.06960  Biso   1.000  H
  C59      1.0000 0.83622  0.54821  0.03516  Biso   1.000  C
  C60      1.0000 0.88909  0.52845  0.02189  Biso   1.000  C
  O34      1.0000 0.99576  0.87236  0.21833  Biso   1.000  O
  O35      1.0000 0.94754  0.53721  0.03524  Biso   1.000  O
  O36      1.0000 0.87303  0.50341  0.99870  Biso   1.000  O
  H81      1.0000 0.17330  0.60100  0.05770  Biso   1.000  H
  H82      1.0000 0.12200  0.50940  0.06760  Biso   1.000  H
  H83      1.0000 0.91570  0.47190  0.57010  Biso   1.000  H
  H84      1.0000 0.86440  0.48420  0.56020  Biso   1.000  H
  C61      1.0000 0.02904  0.84149  0.66875  Biso   1.000  C
  H85      1.0000 0.97920  0.80530  0.67700  Biso   1.000  H
  C62      1.0000 0.04608  0.82449  0.64295  Biso   1.000  C
  H86      1.0000 0.00740  0.77760  0.63380  Biso   1.000  H
  C63      1.0000 0.14432  0.72581  0.56109  Biso   1.000  C
  H87      1.0000 0.09610  0.68720  0.56960  Biso   1.000  H
  C64      1.0000 0.16378  0.71199  0.53516  Biso   1.000  C
  C65      1.0000 0.11091  0.63936  0.52189  Biso   1.000  C
  O37      1.0000 0.00424  0.87660  0.71833  Biso   1.000  O
  O38      1.0000 0.05246  0.58967  0.53524  Biso   1.000  O
  O39      1.0000 0.12697  0.63038  0.49870  Biso   1.000  O
  H88      1.0000 0.82670  0.42770  0.55770  Biso   1.000  H
  H89      1.0000 0.87800  0.38740  0.56760  Biso   1.000  H
  H90      1.0000 0.08430  0.55620  0.07010  Biso   1.000  H
  H91      1.0000 0.13560  0.61980  0.06020  Biso   1.000  H
  C66      1.0000 0.15851  0.18755  0.66875  Biso   1.000  C
  H92      1.0000 0.19470  0.17390  0.67700  Biso   1.000  H
  C67      1.0000 0.17551  0.22159  0.64295  Biso   1.000  C
  H93      1.0000 0.22240  0.22980  0.63380  Biso   1.000  H
  C68      1.0000 0.27419  0.41851  0.56109  Biso   1.000  C
  H94      1.0000 0.31280  0.40890  0.56960  Biso   1.000  H
  C69      1.0000 0.28801  0.45179  0.53516  Biso   1.000  C
  C70      1.0000 0.36064  0.47155  0.52189  Biso   1.000  C
  O40      1.0000 0.12340  0.12764  0.71833  Biso   1.000  O
  O41      1.0000 0.41033  0.46279  0.53524  Biso   1.000  O
  O42      1.0000 0.36962  0.49659  0.49870  Biso   1.000  O
  H95      1.0000 0.57230  0.39900  0.55770  Biso   1.000  H
  H96      1.0000 0.61260  0.49060  0.56760  Biso   1.000  H
  H97      1.0000 0.44380  0.52810  0.07010  Biso   1.000  H
  H98      1.0000 0.38020  0.51580  0.06020  Biso   1.000  H
  C71      1.0000 0.81245  0.97096  0.66875  Biso   1.000  C
  H99      1.0000 0.82610  0.02080  0.67700  Biso   1.000  H
  C72      1.0000 0.77841  0.95392  0.64295  Biso   1.000  C
  H100     1.0000 0.77020  0.99260  0.63380  Biso   1.000  H
  C73      1.0000 0.58149  0.85568  0.56109  Biso   1.000  C
  H101     1.0000 0.59110  0.90390  0.56960  Biso   1.000  H
  C74      1.0000 0.54821  0.83622  0.53516  Biso   1.000  C
  C75      1.0000 0.52845  0.88909  0.52189  Biso   1.000  C
  O43      1.0000 0.87236  0.99576  0.71833  Biso   1.000  O
  O44      1.0000 0.53721  0.94754  0.53524  Biso   1.000  O
  O45      1.0000 0.50341  0.87303  0.49870  Biso   1.000  O
  H102     1.0000 0.60100  0.17330  0.55770  Biso   1.000  H
  H103     1.0000 0.50940  0.12200  0.56760  Biso   1.000  H
  H104     1.0000 0.47190  0.91570  0.07010  Biso   1.000  H
  H105     1.0000 0.48420  0.86440  0.06020  Biso   1.000  H
  C76      1.0000 0.97096  0.15851  0.16875  Biso   1.000  C
  H106     1.0000 0.02080  0.19470  0.17700  Biso   1.000  H
  C77      1.0000 0.95392  0.17551  0.14295  Biso   1.000  C
  H107     1.0000 0.99260  0.22240  0.13380  Biso   1.000  H
  C78      1.0000 0.85568  0.27419  0.06109  Biso   1.000  C
  H108     1.0000 0.90390  0.31280  0.06960  Biso   1.000  H
  C79      1.0000 0.83622  0.28801  0.03516  Biso   1.000  C
  C80      1.0000 0.88909  0.36064  0.02189  Biso   1.000  C
  O46      1.0000 0.99576  0.12340  0.21833  Biso   1.000  O
  O47      1.0000 0.94754  0.41033  0.03524  Biso   1.000  O
  O48      1.0000 0.87303  0.36962  0.99870  Biso   1.000  O
  H109     1.0000 0.17330  0.57230  0.05770  Biso   1.000  H
  H110     1.0000 0.12200  0.61260  0.06760  Biso   1.000  H
  H111     1.0000 0.91570  0.44380  0.57010  Biso   1.000  H
  H112     1.0000 0.86440  0.38020  0.56020  Biso   1.000  H
  C81      1.0000 0.84149  0.81245  0.16875  Biso   1.000  C
  H113     1.0000 0.80530  0.82610  0.17700  Biso   1.000  H
  C82      1.0000 0.82449  0.77841  0.14295  Biso   1.000  C
  H114     1.0000 0.77760  0.77020  0.13380  Biso   1.000  H
  C83      1.0000 0.72581  0.58149  0.06109  Biso   1.000  C
  H115     1.0000 0.68720  0.59110  0.06960  Biso   1.000  H
  C84      1.0000 0.71199  0.54821  0.03516  Biso   1.000  C
  C85      1.0000 0.63936  0.52845  0.02189  Biso   1.000  C
  O49      1.0000 0.87660  0.87236  0.21833  Biso   1.000  O
  O50      1.0000 0.58967  0.53721  0.03524  Biso   1.000  O
  O51      1.0000 0.63038  0.50341  0.99870  Biso   1.000  O
  H116     1.0000 0.42770  0.60100  0.05770  Biso   1.000  H
  H117     1.0000 0.38740  0.50940  0.06760  Biso   1.000  H
  H118     1.0000 0.55620  0.47190  0.57010  Biso   1.000  H
  H119     1.0000 0.61980  0.48420  0.56020  Biso   1.000  H
  C86      1.0000 0.18755  0.02904  0.16875  Biso   1.000  C
  H120     1.0000 0.17390  0.97920  0.17700  Biso   1.000  H
  C87      1.0000 0.22159  0.04608  0.14295  Biso   1.000  C
  H121     1.0000 0.22980  0.00740  0.13380  Biso   1.000  H
  C88      1.0000 0.41851  0.14432  0.06109  Biso   1.000  C
  H122     1.0000 0.40890  0.09610  0.06960  Biso   1.000  H
  C89      1.0000 0.45179  0.16378  0.03516  Biso   1.000  C
  C90      1.0000 0.47155  0.11091  0.02189  Biso   1.000  C
  O52      1.0000 0.12764  0.00424  0.21833  Biso   1.000  O
  O53      1.0000 0.46279  0.05246  0.03524  Biso   1.000  O
  O54      1.0000 0.49659  0.12697  0.99870  Biso   1.000  O
  H123     1.0000 0.39900  0.82670  0.05770  Biso   1.000  H
  H124     1.0000 0.49060  0.87800  0.06760  Biso   1.000  H
  H125     1.0000 0.52810  0.08430  0.57010  Biso   1.000  H
  H126     1.0000 0.51580  0.13560  0.56020  Biso   1.000  H
  C91      1.0000 0.84149  0.02904  0.33125  Biso   1.000  C
  H127     1.0000 0.80530  0.97920  0.32300  Biso   1.000  H
  C92      1.0000 0.82449  0.04608  0.35705  Biso   1.000  C
  H128     1.0000 0.77760  0.00740  0.36620  Biso   1.000  H
  C93      1.0000 0.72581  0.14432  0.43891  Biso   1.000  C
  H129     1.0000 0.68720  0.09610  0.43040  Biso   1.000  H
  C94      1.0000 0.71199  0.16378  0.46484  Biso   1.000  C
  C95      1.0000 0.63936  0.11091  0.47811  Biso   1.000  C
  O55      1.0000 0.87660  0.00424  0.28167  Biso   1.000  O
  O56      1.0000 0.58967  0.05246  0.46476  Biso   1.000  O
  O57      1.0000 0.63038  0.12697  0.50130  Biso   1.000  O
  H130     1.0000 0.42770  0.82670  0.44230  Biso   1.000  H
  H131     1.0000 0.38740  0.87800  0.43240  Biso   1.000  H
  H132     1.0000 0.55620  0.08430  0.92990  Biso   1.000  H
  H133     1.0000 0.61980  0.13560  0.93980  Biso   1.000  H
  C96      1.0000 0.18755  0.15851  0.33125  Biso   1.000  C
  H134     1.0000 0.17390  0.19470  0.32300  Biso   1.000  H
  C97      1.0000 0.22159  0.17551  0.35705  Biso   1.000  C
  H135     1.0000 0.22980  0.22240  0.36620  Biso   1.000  H
  C98      1.0000 0.41851  0.27419  0.43891  Biso   1.000  C
  H136     1.0000 0.40890  0.31280  0.43040  Biso   1.000  H
  C99      1.0000 0.45179  0.28801  0.46484  Biso   1.000  C
  C100     1.0000 0.47155  0.36064  0.47811  Biso   1.000  C
  O58      1.0000 0.12764  0.12340  0.28167  Biso   1.000  O
  O59      1.0000 0.46279  0.41033  0.46476  Biso   1.000  O
  O60      1.0000 0.49659  0.36962  0.50130  Biso   1.000  O
  H137     1.0000 0.39900  0.57230  0.44230  Biso   1.000  H
  H138     1.0000 0.49060  0.61260  0.43240  Biso   1.000  H
  H139     1.0000 0.52810  0.44380  0.92990  Biso   1.000  H
  H140     1.0000 0.51580  0.38020  0.93980  Biso   1.000  H
  C101     1.0000 0.97096  0.81245  0.33125  Biso   1.000  C
  H141     1.0000 0.02080  0.82610  0.32300  Biso   1.000  H
  C102     1.0000 0.95392  0.77841  0.35705  Biso   1.000  C
  H142     1.0000 0.99260  0.77020  0.36620  Biso   1.000  H
  C103     1.0000 0.85568  0.58149  0.43891  Biso   1.000  C
  H143     1.0000 0.90390  0.59110  0.43040  Biso   1.000  H
  C104     1.0000 0.83622  0.54821  0.46484  Biso   1.000  C
  C105     1.0000 0.88909  0.52845  0.47811  Biso   1.000  C
  O61      1.0000 0.99576  0.87236  0.28167  Biso   1.000  O
  O62      1.0000 0.94754  0.53721  0.46476  Biso   1.000  O
  O63      1.0000 0.87303  0.50341  0.50130  Biso   1.000  O
  H144     1.0000 0.17330  0.60100  0.44230  Biso   1.000  H
  H145     1.0000 0.12200  0.50940  0.43240  Biso   1.000  H
  H146     1.0000 0.91570  0.47190  0.92990  Biso   1.000  H
  H147     1.0000 0.86440  0.48420  0.93980  Biso   1.000  H
  C106     1.0000 0.15851  0.97096  0.83125  Biso   1.000  C
  H148     1.0000 0.19470  0.02080  0.82300  Biso   1.000  H
  C107     1.0000 0.17551  0.95392  0.85705  Biso   1.000  C
  H149     1.0000 0.22240  0.99260  0.86620  Biso   1.000  H
  C108     1.0000 0.27419  0.85568  0.93891  Biso   1.000  C
  H150     1.0000 0.31280  0.90390  0.93040  Biso   1.000  H
  C109     1.0000 0.28801  0.83622  0.96484  Biso   1.000  C
  C110     1.0000 0.36064  0.88909  0.97811  Biso   1.000  C
  O64      1.0000 0.12340  0.99576  0.78167  Biso   1.000  O
  O65      1.0000 0.41033  0.94754  0.96476  Biso   1.000  O
  O66      1.0000 0.36962  0.87303  0.00130  Biso   1.000  O
  H151     1.0000 0.57230  0.17330  0.94230  Biso   1.000  H
  H152     1.0000 0.61260  0.12200  0.93240  Biso   1.000  H
  H153     1.0000 0.44380  0.91570  0.42990  Biso   1.000  H
  H154     1.0000 0.38020  0.86440  0.43980  Biso   1.000  H
  C111     1.0000 0.81245  0.84149  0.83125  Biso   1.000  C
  H155     1.0000 0.82610  0.80530  0.82300  Biso   1.000  H
  C112     1.0000 0.77841  0.82449  0.85705  Biso   1.000  C
  H156     1.0000 0.77020  0.77760  0.86620  Biso   1.000  H
  C113     1.0000 0.58149  0.72581  0.93891  Biso   1.000  C
  H157     1.0000 0.59110  0.68720  0.93040  Biso   1.000  H
  C114     1.0000 0.54821  0.71199  0.96484  Biso   1.000  C
  C115     1.0000 0.52845  0.63936  0.97811  Biso   1.000  C
  O67      1.0000 0.87236  0.87660  0.78167  Biso   1.000  O
  O68      1.0000 0.53721  0.58967  0.96476  Biso   1.000  O
  O69      1.0000 0.50341  0.63038  0.00130  Biso   1.000  O
  H158     1.0000 0.60100  0.42770  0.94230  Biso   1.000  H
  H159     1.0000 0.50940  0.38740  0.93240  Biso   1.000  H
  H160     1.0000 0.47190  0.55620  0.42990  Biso   1.000  H
  H161     1.0000 0.48420  0.61980  0.43980  Biso   1.000  H
  C116     1.0000 0.02904  0.18755  0.83125  Biso   1.000  C
  H162     1.0000 0.97920  0.17390  0.82300  Biso   1.000  H
  C117     1.0000 0.04608  0.22159  0.85705  Biso   1.000  C
  H163     1.0000 0.00740  0.22980  0.86620  Biso   1.000  H
  C118     1.0000 0.14432  0.41851  0.93891  Biso   1.000  C
  H164     1.0000 0.09610  0.40890  0.93040  Biso   1.000  H
  C119     1.0000 0.16378  0.45179  0.96484  Biso   1.000  C
  C120     1.0000 0.11091  0.47155  0.97811  Biso   1.000  C
  O70      1.0000 0.00424  0.12764  0.78167  Biso   1.000  O
  O71      1.0000 0.05246  0.46279  0.96476  Biso   1.000  O
  O72      1.0000 0.12697  0.49659  0.00130  Biso   1.000  O
  H165     1.0000 0.82670  0.39900  0.94230  Biso   1.000  H
  H166     1.0000 0.87800  0.49060  0.93240  Biso   1.000  H
  H167     1.0000 0.08430  0.52810  0.42990  Biso   1.000  H
  H168     1.0000 0.13560  0.51580  0.43980  Biso   1.000  H
  C121     1.0000 0.92970  0.07030  0.29158  Biso   1.000  C
  C122     1.0000 0.91300  0.08700  0.31778  Biso   1.000  C
  C123     1.0000 0.87850  0.12150  0.36889  Biso   1.000  C
  C124     1.0000 0.86070  0.13930  0.39592  Biso   1.000  C
  C125     1.0000 0.79990  0.20010  0.42635  Biso   1.000  C
  C126     1.0000 0.76575  0.23425  0.47892  Biso   1.000  C
  H169     1.0000 0.75535  0.24465  0.49630  Biso   1.000  H
  N1       1.0000 0.81723  0.18277  0.40015  Biso   1.000  N
  H170     1.0000 0.80035  0.19965  0.38580  Biso   1.000  H
  O73      1.0000 0.88254  0.11746  0.41580  Biso   1.000  O
  C127     1.0000 0.92970  0.85940  0.29158  Biso   1.000  C
  C128     1.0000 0.91300  0.82600  0.31778  Biso   1.000  C
  C129     1.0000 0.87850  0.75700  0.36889  Biso   1.000  C
  C130     1.0000 0.86070  0.72140  0.39592  Biso   1.000  C
  C131     1.0000 0.79990  0.59980  0.42635  Biso   1.000  C
  C132     1.0000 0.76575  0.53150  0.47892  Biso   1.000  C
  H171     1.0000 0.75535  0.51070  0.49630  Biso   1.000  H
  N2       1.0000 0.81723  0.63446  0.40015  Biso   1.000  N
  H172     1.0000 0.80035  0.60070  0.38580  Biso   1.000  H
  O74      1.0000 0.88254  0.76508  0.41580  Biso   1.000  O
  C133     1.0000 0.14060  0.07030  0.29158  Biso   1.000  C
  C134     1.0000 0.17400  0.08700  0.31778  Biso   1.000  C
  C135     1.0000 0.24300  0.12150  0.36889  Biso   1.000  C
  C136     1.0000 0.27860  0.13930  0.39592  Biso   1.000  C
  C137     1.0000 0.40020  0.20010  0.42635  Biso   1.000  C
  C138     1.0000 0.46850  0.23425  0.47892  Biso   1.000  C
  H173     1.0000 0.48930  0.24465  0.49630  Biso   1.000  H
  N3       1.0000 0.36554  0.18277  0.40015  Biso   1.000  N
  H174     1.0000 0.39930  0.19965  0.38580  Biso   1.000  H
  O75      1.0000 0.23492  0.11746  0.41580  Biso   1.000  O
  C139     1.0000 0.07030  0.92970  0.79158  Biso   1.000  C
  C140     1.0000 0.08700  0.91300  0.81778  Biso   1.000  C
  C141     1.0000 0.12150  0.87850  0.86889  Biso   1.000  C
  C142     1.0000 0.13930  0.86070  0.89592  Biso   1.000  C
  C143     1.0000 0.20010  0.79990  0.92635  Biso   1.000  C
  C144     1.0000 0.23425  0.76575  0.97892  Biso   1.000  C
  H175     1.0000 0.24465  0.75535  0.99630  Biso   1.000  H
  N4       1.0000 0.18277  0.81723  0.90015  Biso   1.000  N
  H176     1.0000 0.19965  0.80035  0.88580  Biso   1.000  H
  O76      1.0000 0.11746  0.88254  0.91580  Biso   1.000  O
  C145     1.0000 0.07030  0.14060  0.79158  Biso   1.000  C
  C146     1.0000 0.08700  0.17400  0.81778  Biso   1.000  C
  C147     1.0000 0.12150  0.24300  0.86889  Biso   1.000  C
  C148     1.0000 0.13930  0.27860  0.89592  Biso   1.000  C
  C149     1.0000 0.20010  0.40020  0.92635  Biso   1.000  C
  C150     1.0000 0.23425  0.46850  0.97892  Biso   1.000  C
  H177     1.0000 0.24465  0.48930  0.99630  Biso   1.000  H
  N5       1.0000 0.18277  0.36554  0.90015  Biso   1.000  N
  H178     1.0000 0.19965  0.39930  0.88580  Biso   1.000  H
  O77      1.0000 0.11746  0.23492  0.91580  Biso   1.000  O
  C151     1.0000 0.85940  0.92970  0.79158  Biso   1.000  C
  C152     1.0000 0.82600  0.91300  0.81778  Biso   1.000  C
  C153     1.0000 0.75700  0.87850  0.86889  Biso   1.000  C
  C154     1.0000 0.72140  0.86070  0.89592  Biso   1.000  C
  C155     1.0000 0.59980  0.79990  0.92635  Biso   1.000  C
  C156     1.0000 0.53150  0.76575  0.97892  Biso   1.000  C
  H179     1.0000 0.51070  0.75535  0.99630  Biso   1.000  H
  N6       1.0000 0.63446  0.81723  0.90015  Biso   1.000  N
  H180     1.0000 0.60070  0.80035  0.88580  Biso   1.000  H
  O78      1.0000 0.76508  0.88254  0.91580  Biso   1.000  O
  C157     1.0000 0.07030  0.92970  0.70842  Biso   1.000  C
  C158     1.0000 0.08700  0.91300  0.68222  Biso   1.000  C
  C159     1.0000 0.12150  0.87850  0.63111  Biso   1.000  C
  C160     1.0000 0.13930  0.86070  0.60408  Biso   1.000  C
  C161     1.0000 0.20010  0.79990  0.57365  Biso   1.000  C
  C162     1.0000 0.23425  0.76575  0.52108  Biso   1.000  C
  H181     1.0000 0.24465  0.75535  0.50370  Biso   1.000  H
  N7       1.0000 0.18277  0.81723  0.59985  Biso   1.000  N
  H182     1.0000 0.19965  0.80035  0.61420  Biso   1.000  H
  O79      1.0000 0.11746  0.88254  0.58420  Biso   1.000  O
  C163     1.0000 0.85940  0.92970  0.70842  Biso   1.000  C
  C164     1.0000 0.82600  0.91300  0.68222  Biso   1.000  C
  C165     1.0000 0.75700  0.87850  0.63111  Biso   1.000  C
  C166     1.0000 0.72140  0.86070  0.60408  Biso   1.000  C
  C167     1.0000 0.59980  0.79990  0.57365  Biso   1.000  C
  C168     1.0000 0.53150  0.76575  0.52108  Biso   1.000  C
  H183     1.0000 0.51070  0.75535  0.50370  Biso   1.000  H
  N8       1.0000 0.63446  0.81723  0.59985  Biso   1.000  N
  H184     1.0000 0.60070  0.80035  0.61420  Biso   1.000  H
  O80      1.0000 0.76508  0.88254  0.58420  Biso   1.000  O
  C169     1.0000 0.07030  0.14060  0.70842  Biso   1.000  C
  C170     1.0000 0.08700  0.17400  0.68222  Biso   1.000  C
  C171     1.0000 0.12150  0.24300  0.63111  Biso   1.000  C
  C172     1.0000 0.13930  0.27860  0.60408  Biso   1.000  C
  C173     1.0000 0.20010  0.40020  0.57365  Biso   1.000  C
  C174     1.0000 0.23425  0.46850  0.52108  Biso   1.000  C
  H185     1.0000 0.24465  0.48930  0.50370  Biso   1.000  H
  N9       1.0000 0.18277  0.36554  0.59985  Biso   1.000  N
  H186     1.0000 0.19965  0.39930  0.61420  Biso   1.000  H
  O81      1.0000 0.11746  0.23492  0.58420  Biso   1.000  O
  C175     1.0000 0.92970  0.07030  0.20842  Biso   1.000  C
  C176     1.0000 0.91300  0.08700  0.18222  Biso   1.000  C
  C177     1.0000 0.87850  0.12150  0.13111  Biso   1.000  C
  C178     1.0000 0.86070  0.13930  0.10408  Biso   1.000  C
  C179     1.0000 0.79990  0.20010  0.07365  Biso   1.000  C
  C180     1.0000 0.76575  0.23425  0.02108  Biso   1.000  C
  H187     1.0000 0.75535  0.24465  0.00370  Biso   1.000  H
  N10      1.0000 0.81723  0.18277  0.09985  Biso   1.000  N
  H188     1.0000 0.80035  0.19965  0.11420  Biso   1.000  H
  O82      1.0000 0.88254  0.11746  0.08420  Biso   1.000  O
  C181     1.0000 0.14060  0.07030  0.20842  Biso   1.000  C
  C182     1.0000 0.17400  0.08700  0.18222  Biso   1.000  C
  C183     1.0000 0.24300  0.12150  0.13111  Biso   1.000  C
  C184     1.0000 0.27860  0.13930  0.10408  Biso   1.000  C
  C185     1.0000 0.40020  0.20010  0.07365  Biso   1.000  C
  C186     1.0000 0.46850  0.23425  0.02108  Biso   1.000  C
  H189     1.0000 0.48930  0.24465  0.00370  Biso   1.000  H
  N11      1.0000 0.36554  0.18277  0.09985  Biso   1.000  N
  H190     1.0000 0.39930  0.19965  0.11420  Biso   1.000  H
  O83      1.0000 0.23492  0.11746  0.08420  Biso   1.000  O
  C187     1.0000 0.92970  0.85940  0.20842  Biso   1.000  C
  C188     1.0000 0.91300  0.82600  0.18222  Biso   1.000  C
  C189     1.0000 0.87850  0.75700  0.13111  Biso   1.000  C
  C190     1.0000 0.86070  0.72140  0.10408  Biso   1.000  C
  C191     1.0000 0.79990  0.59980  0.07365  Biso   1.000  C
  C192     1.0000 0.76575  0.53150  0.02108  Biso   1.000  C
  H191     1.0000 0.75535  0.51070  0.00370  Biso   1.000  H
  N12      1.0000 0.81723  0.63446  0.09985  Biso   1.000  N
  H192     1.0000 0.80035  0.60070  0.11420  Biso   1.000  H
  O84      1.0000 0.88254  0.76508  0.08420  Biso   1.000  O
  Cu1      1.0000 0.06079  0.12158  0.25000  Biso   1.000  Cu
  Cu2      1.0000 0.87842  0.93921  0.25000  Biso   1.000  Cu
  Cu3      1.0000 0.06079  0.93921  0.25000  Biso   1.000  Cu
  Cu4      1.0000 0.93921  0.87842  0.75000  Biso   1.000  Cu
  Cu5      1.0000 0.12158  0.06079  0.75000  Biso   1.000  Cu
  Cu6      1.0000 0.93921  0.06079  0.75000  Biso   1.000  Cu
  Cu7      1.0000 0.05041  0.52520  0.47845  Biso   1.000  Cu
  O85      1.0000 0.11130  0.55565  0.43920  Biso   1.000  O
  Cu8      1.0000 0.47480  0.52520  0.47845  Biso   1.000  Cu
  O86      1.0000 0.44435  0.55565  0.43920  Biso   1.000  O
  Cu9      1.0000 0.47480  0.94959  0.47845  Biso   1.000  Cu
  O87      1.0000 0.44435  0.88870  0.43920  Biso   1.000  O
  Cu10     1.0000 0.94959  0.47480  0.97845  Biso   1.000  Cu
  O88      1.0000 0.88870  0.44435  0.93920  Biso   1.000  O
  Cu11     1.0000 0.52520  0.47479  0.97845  Biso   1.000  Cu
  O89      1.0000 0.55565  0.44435  0.93920  Biso   1.000  O
  Cu12     1.0000 0.52520  0.05041  0.97845  Biso   1.000  Cu
  O90      1.0000 0.55565  0.11130  0.93920  Biso   1.000  O
  Cu13     1.0000 0.52520  0.05041  0.52155  Biso   1.000  Cu
  O91      1.0000 0.55565  0.11130  0.56080  Biso   1.000  O
  Cu14     1.0000 0.52520  0.47480  0.52155  Biso   1.000  Cu
  O92      1.0000 0.55565  0.44435  0.56080  Biso   1.000  O
  Cu15     1.0000 0.94959  0.47480  0.52155  Biso   1.000  Cu
  O93      1.0000 0.88870  0.44435  0.56080  Biso   1.000  O
  Cu16     1.0000 0.47480  0.94959  0.02155  Biso   1.000  Cu
  O94      1.0000 0.44435  0.88870  0.06080  Biso   1.000  O
  Cu17     1.0000 0.47480  0.52520  0.02155  Biso   1.000  Cu
  O95      1.0000 0.44435  0.55565  0.06080  Biso   1.000  O
  Cu18     1.0000 0.05041  0.52520  0.02155  Biso   1.000  Cu
  O96      1.0000 0.11130  0.55565  0.06080  Biso   1.000  O
  O97      1.0000 0.87320  0.43660  0.94400  Biso   1.000  O
  O98      1.0000 0.56340  0.43660  0.94400  Biso   1.000  O
  O99      1.0000 0.56340  0.12680  0.94400  Biso   1.000  O
  O100     1.0000 0.12680  0.56340  0.44400  Biso   1.000  O
  O101     1.0000 0.43660  0.56340  0.44400  Biso   1.000  O
  O102     1.0000 0.43660  0.87320  0.44400  Biso   1.000  O
  O103     1.0000 0.43660  0.87320  0.05600  Biso   1.000  O
  O104     1.0000 0.43660  0.56340  0.05600  Biso   1.000  O
  O105     1.0000 0.12680  0.56340  0.05600  Biso   1.000  O
  O106     1.0000 0.56340  0.12680  0.55600  Biso   1.000  O
  O107     1.0000 0.56340  0.43660  0.55600  Biso   1.000  O
  O108     1.0000 0.87320  0.43660  0.55600  Biso   1.000  O
