data_image0
_cell_length_a       19.598
_cell_length_b       19.598
_cell_length_c       3.5015
_cell_angle_alpha    90
_cell_angle_beta     90
_cell_angle_gamma    90

_symmetry_space_group_name_H-M    "P 1"
_symmetry_int_tables_number       1

loop_
  _symmetry_equiv_pos_as_xyz
  'x, y, z'

loop_
  _atom_site_label
  _atom_site_occupancy
  _atom_site_fract_x
  _atom_site_fract_y
  _atom_site_fract_z
  _atom_site_thermal_displace_type
  _atom_site_B_iso_or_equiv
  _atom_site_type_symbol
  Ag1      1.0000 0.46241  0.62253  0.00420  Biso   1.000  Ag
  C1       1.0000 0.26960  0.56100  0.61900  Biso   1.000  C
  C2       1.0000 0.31920  0.65600  0.62400  Biso   1.000  C
  N1       1.0000 0.36230  0.61170  0.77700  Biso   1.000  N
  N2       1.0000 0.26000  0.62640  0.53800  Biso   1.000  N
  N3       1.0000 0.33030  0.55080  0.78400  Biso   1.000  N
  N4       1.0000 0.33730  0.72630  0.61100  Biso   1.000  N
  H1       1.0000 0.37580  0.73970  0.70190  Biso   1.000  H
  H2       1.0000 0.30960  0.75550  0.51170  Biso   1.000  H
  N5       1.0000 0.21740  0.51000  0.61400  Biso   1.000  N
  H3       1.0000 0.17610  0.52240  0.57010  Biso   1.000  H
  H4       1.0000 0.22650  0.46780  0.65880  Biso   1.000  H
  H5       1.0000 0.23790  0.52530  0.55720  Biso   1.000  H
  H6       1.0000 0.33250  0.71500  0.59020  Biso   1.000  H
  Ag2      1.0000 0.53759  0.37747  0.00420  Biso   1.000  Ag
  C3       1.0000 0.73040  0.43900  0.61900  Biso   1.000  C
  C4       1.0000 0.68080  0.34400  0.62400  Biso   1.000  C
  N6       1.0000 0.63770  0.38830  0.77700  Biso   1.000  N
  N7       1.0000 0.74000  0.37360  0.53800  Biso   1.000  N
  N8       1.0000 0.66970  0.44920  0.78400  Biso   1.000  N
  N9       1.0000 0.66270  0.27370  0.61100  Biso   1.000  N
  H7       1.0000 0.62420  0.26030  0.70190  Biso   1.000  H
  H8       1.0000 0.69040  0.24450  0.51170  Biso   1.000  H
  N10      1.0000 0.78260  0.49000  0.61400  Biso   1.000  N
  H9       1.0000 0.82390  0.47760  0.57010  Biso   1.000  H
  H10      1.0000 0.77350  0.53220  0.65880  Biso   1.000  H
  H11      1.0000 0.76210  0.47470  0.55720  Biso   1.000  H
  H12      1.0000 0.66750  0.28500  0.59020  Biso   1.000  H
  Ag3      1.0000 0.62253  0.53759  0.99580  Biso   1.000  Ag
  C5       1.0000 0.56100  0.73040  0.38100  Biso   1.000  C
  C6       1.0000 0.65600  0.68080  0.37600  Biso   1.000  C
  N11      1.0000 0.61170  0.63770  0.22300  Biso   1.000  N
  N12      1.0000 0.62640  0.74000  0.46200  Biso   1.000  N
  N13      1.0000 0.55080  0.66970  0.21600  Biso   1.000  N
  N14      1.0000 0.72630  0.66270  0.38900  Biso   1.000  N
  H13      1.0000 0.73970  0.62420  0.29810  Biso   1.000  H
  H14      1.0000 0.75550  0.69040  0.48830  Biso   1.000  H
  N15      1.0000 0.51000  0.78260  0.38600  Biso   1.000  N
  H15      1.0000 0.52240  0.82390  0.42990  Biso   1.000  H
  H16      1.0000 0.46780  0.77350  0.34120  Biso   1.000  H
  H17      1.0000 0.52530  0.76210  0.44280  Biso   1.000  H
  H18      1.0000 0.71500  0.66750  0.40980  Biso   1.000  H
  Ag4      1.0000 0.37747  0.46241  0.99580  Biso   1.000  Ag
  C7       1.0000 0.43900  0.26960  0.38100  Biso   1.000  C
  C8       1.0000 0.34400  0.31920  0.37600  Biso   1.000  C
  N16      1.0000 0.38830  0.36230  0.22300  Biso   1.000  N
  N17      1.0000 0.37360  0.26000  0.46200  Biso   1.000  N
  N18      1.0000 0.44920  0.33030  0.21600  Biso   1.000  N
  N19      1.0000 0.27370  0.33730  0.38900  Biso   1.000  N
  H19      1.0000 0.26030  0.37580  0.29810  Biso   1.000  H
  H20      1.0000 0.24450  0.30960  0.48830  Biso   1.000  H
  N20      1.0000 0.49000  0.21740  0.38600  Biso   1.000  N
  H21      1.0000 0.47760  0.17610  0.42990  Biso   1.000  H
  H22      1.0000 0.53220  0.22650  0.34120  Biso   1.000  H
  H23      1.0000 0.47470  0.23790  0.44280  Biso   1.000  H
  H24      1.0000 0.28500  0.33250  0.40980  Biso   1.000  H
  Ag5      1.0000 0.96241  0.87747  0.50420  Biso   1.000  Ag
  C9       1.0000 0.76960  0.93900  0.11900  Biso   1.000  C
  C10      1.0000 0.81920  0.84400  0.12400  Biso   1.000  C
  N21      1.0000 0.86230  0.88830  0.27700  Biso   1.000  N
  N22      1.0000 0.76000  0.87360  0.03800  Biso   1.000  N
  N23      1.0000 0.83030  0.94920  0.28400  Biso   1.000  N
  N24      1.0000 0.83730  0.77370  0.11100  Biso   1.000  N
  H25      1.0000 0.87580  0.76030  0.20190  Biso   1.000  H
  H26      1.0000 0.80960  0.74450  0.01170  Biso   1.000  H
  N25      1.0000 0.71740  0.99000  0.11400  Biso   1.000  N
  H27      1.0000 0.67610  0.97760  0.07010  Biso   1.000  H
  H28      1.0000 0.72650  0.03220  0.15880  Biso   1.000  H
  H29      1.0000 0.73790  0.97470  0.05720  Biso   1.000  H
  H30      1.0000 0.83250  0.78500  0.09020  Biso   1.000  H
  Ag6      1.0000 0.03759  0.12253  0.50420  Biso   1.000  Ag
  C11      1.0000 0.23040  0.06100  0.11900  Biso   1.000  C
  C12      1.0000 0.18080  0.15600  0.12400  Biso   1.000  C
  N26      1.0000 0.13770  0.11170  0.27700  Biso   1.000  N
  N27      1.0000 0.24000  0.12640  0.03800  Biso   1.000  N
  N28      1.0000 0.16970  0.05080  0.28400  Biso   1.000  N
  N29      1.0000 0.16270  0.22630  0.11100  Biso   1.000  N
  H31      1.0000 0.12420  0.23970  0.20190  Biso   1.000  H
  H32      1.0000 0.19040  0.25550  0.01170  Biso   1.000  H
  N30      1.0000 0.28260  0.01000  0.11400  Biso   1.000  N
  H33      1.0000 0.32390  0.02240  0.07010  Biso   1.000  H
  H34      1.0000 0.27350  0.96780  0.15880  Biso   1.000  H
  H35      1.0000 0.26210  0.02530  0.05720  Biso   1.000  H
  H36      1.0000 0.16750  0.21500  0.09020  Biso   1.000  H
  Ag7      1.0000 0.12253  0.96241  0.49580  Biso   1.000  Ag
  C13      1.0000 0.06100  0.76960  0.88100  Biso   1.000  C
  C14      1.0000 0.15600  0.81920  0.87600  Biso   1.000  C
  N31      1.0000 0.11170  0.86230  0.72300  Biso   1.000  N
  N32      1.0000 0.12640  0.76000  0.96200  Biso   1.000  N
  N33      1.0000 0.05080  0.83030  0.71600  Biso   1.000  N
  N34      1.0000 0.22630  0.83730  0.88900  Biso   1.000  N
  H37      1.0000 0.23970  0.87580  0.79810  Biso   1.000  H
  H38      1.0000 0.25550  0.80960  0.98830  Biso   1.000  H
  N35      1.0000 0.01000  0.71740  0.88600  Biso   1.000  N
  H39      1.0000 0.02240  0.67610  0.92990  Biso   1.000  H
  H40      1.0000 0.96780  0.72650  0.84120  Biso   1.000  H
  H41      1.0000 0.02530  0.73790  0.94280  Biso   1.000  H
  H42      1.0000 0.21500  0.83250  0.90980  Biso   1.000  H
  Ag8      1.0000 0.87747  0.03759  0.49580  Biso   1.000  Ag
  C15      1.0000 0.93900  0.23040  0.88100  Biso   1.000  C
  C16      1.0000 0.84400  0.18080  0.87600  Biso   1.000  C
  N36      1.0000 0.88830  0.13770  0.72300  Biso   1.000  N
  N37      1.0000 0.87360  0.24000  0.96200  Biso   1.000  N
  N38      1.0000 0.94920  0.16970  0.71600  Biso   1.000  N
  N39      1.0000 0.77370  0.16270  0.88900  Biso   1.000  N
  H43      1.0000 0.76030  0.12420  0.79810  Biso   1.000  H
  H44      1.0000 0.74450  0.19040  0.98830  Biso   1.000  H
  N40      1.0000 0.99000  0.28260  0.88600  Biso   1.000  N
  H45      1.0000 0.97760  0.32390  0.92990  Biso   1.000  H
  H46      1.0000 0.03220  0.27350  0.84120  Biso   1.000  H
  H47      1.0000 0.97470  0.26210  0.94280  Biso   1.000  H
  H48      1.0000 0.78500  0.16750  0.90980  Biso   1.000  H
  Ag9      1.0000 0.17726  0.67726  0.25000  Biso   1.000  Ag
  Ag10     1.0000 0.82274  0.32274  0.25000  Biso   1.000  Ag
  Ag11     1.0000 0.67726  0.82274  0.75000  Biso   1.000  Ag
  Ag12     1.0000 0.32274  0.17726  0.75000  Biso   1.000  Ag
