data_image0
_cell_length_a       14.6607
_cell_length_b       17.0094
_cell_length_c       9.2069
_cell_angle_alpha    90
_cell_angle_beta     100.892
_cell_angle_gamma    90

_symmetry_space_group_name_H-M    "P 1"
_symmetry_int_tables_number       1

loop_
  _symmetry_equiv_pos_as_xyz
  'x, y, z'

loop_
  _atom_site_label
  _atom_site_occupancy
  _atom_site_fract_x
  _atom_site_fract_y
  _atom_site_fract_z
  _atom_site_thermal_displace_type
  _atom_site_B_iso_or_equiv
  _atom_site_type_symbol
  Zn1      1.0000 0.58810  0.50700  0.66211  Biso   1.000  Zn
  O1       1.0000 0.34060  0.58960  0.24480  Biso   1.000  O
  O2       1.0000 0.41720  0.59010  0.06060  Biso   1.000  O
  C1       1.0000 0.35700  0.61640  0.12560  Biso   1.000  C
  C2       1.0000 0.30220  0.68570  0.06200  Biso   1.000  C
  C3       1.0000 0.31720  0.72060  0.93510  Biso   1.000  C
  H1       1.0000 0.36490  0.70230  0.89040  Biso   1.000  H
  C4       1.0000 0.23620  0.71830  0.12740  Biso   1.000  C
  H2       1.0000 0.22700  0.69840  0.21760  Biso   1.000  H
  Zn2      1.0000 0.08810  0.00700  0.66211  Biso   1.000  Zn
  O3       1.0000 0.84060  0.08960  0.24480  Biso   1.000  O
  O4       1.0000 0.91720  0.09010  0.06060  Biso   1.000  O
  C5       1.0000 0.85700  0.11640  0.12560  Biso   1.000  C
  C6       1.0000 0.80220  0.18570  0.06200  Biso   1.000  C
  C7       1.0000 0.81720  0.22060  0.93510  Biso   1.000  C
  H3       1.0000 0.86490  0.20230  0.89040  Biso   1.000  H
  C8       1.0000 0.73620  0.21830  0.12740  Biso   1.000  C
  H4       1.0000 0.72700  0.19840  0.21760  Biso   1.000  H
  Zn3      1.0000 0.41190  0.50700  0.33789  Biso   1.000  Zn
  O5       1.0000 0.65940  0.58960  0.75520  Biso   1.000  O
  O6       1.0000 0.58280  0.59010  0.93940  Biso   1.000  O
  C9       1.0000 0.64300  0.61640  0.87440  Biso   1.000  C
  C10      1.0000 0.69780  0.68570  0.93800  Biso   1.000  C
  C11      1.0000 0.68280  0.72060  0.06490  Biso   1.000  C
  H5       1.0000 0.63510  0.70230  0.10960  Biso   1.000  H
  C12      1.0000 0.76380  0.71830  0.87260  Biso   1.000  C
  H6       1.0000 0.77300  0.69840  0.78240  Biso   1.000  H
  Zn4      1.0000 0.91190  0.00700  0.33789  Biso   1.000  Zn
  O7       1.0000 0.15940  0.08960  0.75520  Biso   1.000  O
  O8       1.0000 0.08280  0.09010  0.93940  Biso   1.000  O
  C13      1.0000 0.14300  0.11640  0.87440  Biso   1.000  C
  C14      1.0000 0.19780  0.18570  0.93800  Biso   1.000  C
  C15      1.0000 0.18280  0.22060  0.06490  Biso   1.000  C
  H7       1.0000 0.13510  0.20230  0.10960  Biso   1.000  H
  C16      1.0000 0.26380  0.21830  0.87260  Biso   1.000  C
  H8       1.0000 0.27300  0.19840  0.78240  Biso   1.000  H
  Zn5      1.0000 0.41190  0.49300  0.33789  Biso   1.000  Zn
  O9       1.0000 0.65940  0.41040  0.75520  Biso   1.000  O
  O10      1.0000 0.58280  0.40990  0.93940  Biso   1.000  O
  C17      1.0000 0.64300  0.38360  0.87440  Biso   1.000  C
  C18      1.0000 0.69780  0.31430  0.93800  Biso   1.000  C
  C19      1.0000 0.68280  0.27940  0.06490  Biso   1.000  C
  H9       1.0000 0.63510  0.29770  0.10960  Biso   1.000  H
  C20      1.0000 0.76380  0.28170  0.87260  Biso   1.000  C
  H10      1.0000 0.77300  0.30160  0.78240  Biso   1.000  H
  Zn6      1.0000 0.91190  0.99300  0.33789  Biso   1.000  Zn
  O11      1.0000 0.15940  0.91040  0.75520  Biso   1.000  O
  O12      1.0000 0.08280  0.90990  0.93940  Biso   1.000  O
  C21      1.0000 0.14300  0.88360  0.87440  Biso   1.000  C
  C22      1.0000 0.19780  0.81430  0.93800  Biso   1.000  C
  C23      1.0000 0.18280  0.77940  0.06490  Biso   1.000  C
  H11      1.0000 0.13510  0.79770  0.10960  Biso   1.000  H
  C24      1.0000 0.26380  0.78170  0.87260  Biso   1.000  C
  H12      1.0000 0.27300  0.80160  0.78240  Biso   1.000  H
  Zn7      1.0000 0.58810  0.49300  0.66211  Biso   1.000  Zn
  O13      1.0000 0.34060  0.41040  0.24480  Biso   1.000  O
  O14      1.0000 0.41720  0.40990  0.06060  Biso   1.000  O
  C25      1.0000 0.35700  0.38360  0.12560  Biso   1.000  C
  C26      1.0000 0.30220  0.31430  0.06200  Biso   1.000  C
  C27      1.0000 0.31720  0.27940  0.93510  Biso   1.000  C
  H13      1.0000 0.36490  0.29770  0.89040  Biso   1.000  H
  C28      1.0000 0.23620  0.28170  0.12740  Biso   1.000  C
  H14      1.0000 0.22700  0.30160  0.21760  Biso   1.000  H
  Zn8      1.0000 0.08810  0.99300  0.66211  Biso   1.000  Zn
  O15      1.0000 0.84060  0.91040  0.24480  Biso   1.000  O
  O16      1.0000 0.91720  0.90990  0.06060  Biso   1.000  O
  C29      1.0000 0.85700  0.88360  0.12560  Biso   1.000  C
  C30      1.0000 0.80220  0.81430  0.06200  Biso   1.000  C
  C31      1.0000 0.81720  0.77940  0.93510  Biso   1.000  C
  H15      1.0000 0.86490  0.79770  0.89040  Biso   1.000  H
  C32      1.0000 0.73620  0.78170  0.12740  Biso   1.000  C
  H16      1.0000 0.72700  0.80160  0.21760  Biso   1.000  H
  Zn9      1.0000 0.50000  0.50000  0.00000  Biso   1.000  Zn
  Zn10     1.0000 0.00000  0.00000  0.00000  Biso   1.000  Zn
  N1       1.0000 0.45160  0.50000  0.66800  Biso   1.000  N
  N2       1.0000 0.41530  0.50000  0.78680  Biso   1.000  N
  N3       1.0000 0.38920  0.50000  0.54500  Biso   1.000  N
  C33      1.0000 0.32250  0.50000  0.73950  Biso   1.000  C
  C34      1.0000 0.30470  0.50000  0.58560  Biso   1.000  C
  C35      1.0000 0.24660  0.50000  0.81650  Biso   1.000  C
  H17      1.0000 0.25590  0.50000  0.91920  Biso   1.000  H
  C36      1.0000 0.16340  0.50000  0.73500  Biso   1.000  C
  H18      1.0000 0.11300  0.50000  0.78250  Biso   1.000  H
  C37      1.0000 0.21780  0.50000  0.50200  Biso   1.000  C
  H19      1.0000 0.20810  0.50000  0.39920  Biso   1.000  H
  C38      1.0000 0.14480  0.50000  0.57700  Biso   1.000  C
  H20      1.0000 0.08390  0.50000  0.52470  Biso   1.000  H
  N4       1.0000 0.95160  0.00000  0.66800  Biso   1.000  N
  N5       1.0000 0.91530  0.00000  0.78680  Biso   1.000  N
  N6       1.0000 0.88920  0.00000  0.54500  Biso   1.000  N
  C39      1.0000 0.82250  0.00000  0.73950  Biso   1.000  C
  C40      1.0000 0.80470  0.00000  0.58560  Biso   1.000  C
  C41      1.0000 0.74660  0.00000  0.81650  Biso   1.000  C
  H21      1.0000 0.75590  0.00000  0.91920  Biso   1.000  H
  C42      1.0000 0.66340  0.00000  0.73500  Biso   1.000  C
  H22      1.0000 0.61300  0.00000  0.78250  Biso   1.000  H
  C43      1.0000 0.71780  0.00000  0.50200  Biso   1.000  C
  H23      1.0000 0.70810  0.00000  0.39920  Biso   1.000  H
  C44      1.0000 0.64480  0.00000  0.57700  Biso   1.000  C
  H24      1.0000 0.58390  0.00000  0.52470  Biso   1.000  H
  N7       1.0000 0.54840  0.50000  0.33200  Biso   1.000  N
  N8       1.0000 0.58470  0.50000  0.21320  Biso   1.000  N
  N9       1.0000 0.61080  0.50000  0.45500  Biso   1.000  N
  C45      1.0000 0.67750  0.50000  0.26050  Biso   1.000  C
  C46      1.0000 0.69530  0.50000  0.41440  Biso   1.000  C
  C47      1.0000 0.75340  0.50000  0.18350  Biso   1.000  C
  H25      1.0000 0.74410  0.50000  0.08080  Biso   1.000  H
  C48      1.0000 0.83660  0.50000  0.26500  Biso   1.000  C
  H26      1.0000 0.88700  0.50000  0.21750  Biso   1.000  H
  C49      1.0000 0.78220  0.50000  0.49800  Biso   1.000  C
  H27      1.0000 0.79190  0.50000  0.60080  Biso   1.000  H
  C50      1.0000 0.85520  0.50000  0.42300  Biso   1.000  C
  H28      1.0000 0.91610  0.50000  0.47530  Biso   1.000  H
  N10      1.0000 0.04840  0.00000  0.33200  Biso   1.000  N
  N11      1.0000 0.08470  0.00000  0.21320  Biso   1.000  N
  N12      1.0000 0.11080  0.00000  0.45500  Biso   1.000  N
  C51      1.0000 0.17750  0.00000  0.26050  Biso   1.000  C
  C52      1.0000 0.19530  0.00000  0.41440  Biso   1.000  C
  C53      1.0000 0.25340  0.00000  0.18350  Biso   1.000  C
  H29      1.0000 0.24410  0.00000  0.08080  Biso   1.000  H
  C54      1.0000 0.33660  0.00000  0.26500  Biso   1.000  C
  H30      1.0000 0.38700  0.00000  0.21750  Biso   1.000  H
  C55      1.0000 0.28220  0.00000  0.49800  Biso   1.000  C
  H31      1.0000 0.29190  0.00000  0.60080  Biso   1.000  H
  C56      1.0000 0.35520  0.00000  0.42300  Biso   1.000  C
  H32      1.0000 0.41610  0.00000  0.47530  Biso   1.000  H
