data_image0
_cell_length_a       5.3667
_cell_length_b       22.228
_cell_length_c       8.8952
_cell_angle_alpha    90
_cell_angle_beta     98.7072
_cell_angle_gamma    90

_symmetry_space_group_name_H-M    "P 1"
_symmetry_int_tables_number       1

loop_
  _symmetry_equiv_pos_as_xyz
  'x, y, z'

loop_
  _atom_site_label
  _atom_site_occupancy
  _atom_site_fract_x
  _atom_site_fract_y
  _atom_site_fract_z
  _atom_site_thermal_displace_type
  _atom_site_B_iso_or_equiv
  _atom_site_type_symbol
  N1       1.0000 0.27520  0.81195  0.37110  Biso   1.000  N
  N2       1.0000 0.17510  0.91104  0.12370  Biso   1.000  N
  C1       1.0000 0.45820  0.79437  0.43820  Biso   1.000  C
  C2       1.0000 0.69220  0.77374  0.52330  Biso   1.000  C
  H1       1.0000 0.76360  0.79430  0.61330  Biso   1.000  H
  C3       1.0000 0.27250  0.95450  0.08840  Biso   1.000  C
  C4       1.0000 0.41280  0.00440  0.04240  Biso   1.000  C
  H2       1.0000 0.37830  0.04400  0.07380  Biso   1.000  H
  C5       1.0000 0.31730  0.93490  0.05650  Biso   1.000  C
  C6       1.0000 0.48610  0.97070  0.98440  Biso   1.000  C
  H3       1.0000 0.57930  0.95270  0.91360  Biso   1.000  H
  N3       1.0000 0.77520  0.31195  0.37110  Biso   1.000  N
  N4       1.0000 0.67510  0.41104  0.12370  Biso   1.000  N
  C7       1.0000 0.95820  0.29437  0.43820  Biso   1.000  C
  C8       1.0000 0.19220  0.27374  0.52330  Biso   1.000  C
  H4       1.0000 0.26360  0.29430  0.61330  Biso   1.000  H
  C9       1.0000 0.77250  0.45450  0.08840  Biso   1.000  C
  C10      1.0000 0.91280  0.50440  0.04240  Biso   1.000  C
  H5       1.0000 0.87830  0.54400  0.07380  Biso   1.000  H
  C11      1.0000 0.81730  0.43490  0.05650  Biso   1.000  C
  C12      1.0000 0.98610  0.47070  0.98440  Biso   1.000  C
  H6       1.0000 0.07930  0.45270  0.91360  Biso   1.000  H
  N5       1.0000 0.72480  0.81195  0.12890  Biso   1.000  N
  N6       1.0000 0.82490  0.91104  0.37630  Biso   1.000  N
  C13      1.0000 0.54180  0.79437  0.06180  Biso   1.000  C
  C14      1.0000 0.30780  0.77374  0.97670  Biso   1.000  C
  H7       1.0000 0.23640  0.79430  0.88670  Biso   1.000  H
  C15      1.0000 0.72750  0.95450  0.41160  Biso   1.000  C
  C16      1.0000 0.58720  0.00440  0.45760  Biso   1.000  C
  H8       1.0000 0.62170  0.04400  0.42620  Biso   1.000  H
  C17      1.0000 0.68270  0.93490  0.44350  Biso   1.000  C
  C18      1.0000 0.51390  0.97070  0.51560  Biso   1.000  C
  H9       1.0000 0.42070  0.95270  0.58640  Biso   1.000  H
  N7       1.0000 0.22480  0.31195  0.12890  Biso   1.000  N
  N8       1.0000 0.32490  0.41104  0.37630  Biso   1.000  N
  C19      1.0000 0.04180  0.29437  0.06180  Biso   1.000  C
  C20      1.0000 0.80780  0.27374  0.97670  Biso   1.000  C
  H10      1.0000 0.73640  0.29430  0.88670  Biso   1.000  H
  C21      1.0000 0.22750  0.45450  0.41160  Biso   1.000  C
  C22      1.0000 0.08720  0.50440  0.45760  Biso   1.000  C
  H11      1.0000 0.12170  0.54400  0.42620  Biso   1.000  H
  C23      1.0000 0.18270  0.43490  0.44350  Biso   1.000  C
  C24      1.0000 0.01390  0.47070  0.51560  Biso   1.000  C
  H12      1.0000 0.92070  0.45270  0.58640  Biso   1.000  H
  N9       1.0000 0.72480  0.18805  0.62890  Biso   1.000  N
  N10      1.0000 0.82490  0.08896  0.87630  Biso   1.000  N
  C25      1.0000 0.54180  0.20563  0.56180  Biso   1.000  C
  C26      1.0000 0.30780  0.22626  0.47670  Biso   1.000  C
  H13      1.0000 0.23640  0.20570  0.38670  Biso   1.000  H
  C27      1.0000 0.72750  0.04550  0.91160  Biso   1.000  C
  C28      1.0000 0.58720  0.99560  0.95760  Biso   1.000  C
  H14      1.0000 0.62170  0.95600  0.92620  Biso   1.000  H
  C29      1.0000 0.68270  0.06510  0.94350  Biso   1.000  C
  C30      1.0000 0.51390  0.02930  0.01560  Biso   1.000  C
  H15      1.0000 0.42070  0.04730  0.08640  Biso   1.000  H
  N11      1.0000 0.22480  0.68805  0.62890  Biso   1.000  N
  N12      1.0000 0.32490  0.58896  0.87630  Biso   1.000  N
  C31      1.0000 0.04180  0.70563  0.56180  Biso   1.000  C
  C32      1.0000 0.80780  0.72626  0.47670  Biso   1.000  C
  H16      1.0000 0.73640  0.70570  0.38670  Biso   1.000  H
  C33      1.0000 0.22750  0.54550  0.91160  Biso   1.000  C
  C34      1.0000 0.08720  0.49560  0.95760  Biso   1.000  C
  H17      1.0000 0.12170  0.45600  0.92620  Biso   1.000  H
  C35      1.0000 0.18270  0.56510  0.94350  Biso   1.000  C
  C36      1.0000 0.01390  0.52930  0.01560  Biso   1.000  C
  H18      1.0000 0.92070  0.54730  0.08640  Biso   1.000  H
  N13      1.0000 0.27520  0.18805  0.87110  Biso   1.000  N
  N14      1.0000 0.17510  0.08896  0.62370  Biso   1.000  N
  C37      1.0000 0.45820  0.20563  0.93820  Biso   1.000  C
  C38      1.0000 0.69220  0.22626  0.02330  Biso   1.000  C
  H19      1.0000 0.76360  0.20570  0.11330  Biso   1.000  H
  C39      1.0000 0.27250  0.04550  0.58840  Biso   1.000  C
  C40      1.0000 0.41280  0.99560  0.54240  Biso   1.000  C
  H20      1.0000 0.37830  0.95600  0.57380  Biso   1.000  H
  C41      1.0000 0.31730  0.06510  0.55650  Biso   1.000  C
  C42      1.0000 0.48610  0.02930  0.48440  Biso   1.000  C
  H21      1.0000 0.57930  0.04730  0.41360  Biso   1.000  H
  N15      1.0000 0.77520  0.68805  0.87110  Biso   1.000  N
  N16      1.0000 0.67510  0.58896  0.62370  Biso   1.000  N
  C43      1.0000 0.95820  0.70563  0.93820  Biso   1.000  C
  C44      1.0000 0.19220  0.72626  0.02330  Biso   1.000  C
  H22      1.0000 0.26360  0.70570  0.11330  Biso   1.000  H
  C45      1.0000 0.77250  0.54550  0.58840  Biso   1.000  C
  C46      1.0000 0.91280  0.49560  0.54240  Biso   1.000  C
  H23      1.0000 0.87830  0.45600  0.57380  Biso   1.000  H
  C47      1.0000 0.81730  0.56510  0.55650  Biso   1.000  C
  C48      1.0000 0.98610  0.52930  0.48440  Biso   1.000  C
  H24      1.0000 0.07930  0.54730  0.41360  Biso   1.000  H
  Cu1      1.0000 0.00000  0.85688  0.25000  Biso   1.000  Cu
  Cu2      1.0000 0.50000  0.35688  0.25000  Biso   1.000  Cu
  Cu3      1.0000 0.00000  0.14312  0.75000  Biso   1.000  Cu
  Cu4      1.0000 0.50000  0.64312  0.75000  Biso   1.000  Cu
