data_image0
_cell_length_a       12.0746
_cell_length_b       31.4093
_cell_length_c       24.4887
_cell_angle_alpha    90
_cell_angle_beta     96.33
_cell_angle_gamma    90

_symmetry_space_group_name_H-M    "P 1"
_symmetry_int_tables_number       1

loop_
  _symmetry_equiv_pos_as_xyz
  'x, y, z'

loop_
  _atom_site_label
  _atom_site_occupancy
  _atom_site_fract_x
  _atom_site_fract_y
  _atom_site_fract_z
  _atom_site_thermal_displace_type
  _atom_site_B_iso_or_equiv
  _atom_site_type_symbol
  Zn1      1.0000 0.59078  0.26391  0.21057  Biso   1.000  Zn
  Zn2      1.0000 0.38733  0.27554  0.25825  Biso   1.000  Zn
  Zn3      1.0000 0.30342  0.35640  0.57208  Biso   1.000  Zn
  Zn4      1.0000 0.20144  0.38537  0.41712  Biso   1.000  Zn
  N1       1.0000 0.73430  0.25105  0.17423  Biso   1.000  N
  N2       1.0000 0.82240  0.20165  0.11482  Biso   1.000  N
  N3       1.0000 0.85860  0.27793  0.10985  Biso   1.000  N
  N4       1.0000 0.93420  0.23738  0.19044  Biso   1.000  N
  C1       1.0000 0.72130  0.21080  0.14205  Biso   1.000  C
  H1       1.0000 0.70740  0.18700  0.16690  Biso   1.000  H
  H2       1.0000 0.65610  0.21320  0.11390  Biso   1.000  H
  C2       1.0000 0.83350  0.24635  0.21631  Biso   1.000  C
  H3       1.0000 0.84410  0.27290  0.23800  Biso   1.000  H
  H4       1.0000 0.82010  0.22290  0.24180  Biso   1.000  H
  C3       1.0000 0.75810  0.28621  0.13597  Biso   1.000  C
  H5       1.0000 0.69410  0.28940  0.10730  Biso   1.000  H
  H6       1.0000 0.76700  0.31330  0.15670  Biso   1.000  H
  C4       1.0000 0.91920  0.19819  0.15895  Biso   1.000  C
  H7       1.0000 0.90600  0.17440  0.18390  Biso   1.000  H
  H8       1.0000 0.98800  0.19190  0.14190  Biso   1.000  H
  C5       1.0000 0.84350  0.23823  0.07870  Biso   1.000  C
  H9       1.0000 0.91110  0.23240  0.06040  Biso   1.000  H
  H10      1.0000 0.77990  0.24140  0.04980  Biso   1.000  H
  C6       1.0000 0.95290  0.27271  0.15309  Biso   1.000  C
  H11      1.0000 0.02180  0.26730  0.13580  Biso   1.000  H
  H12      1.0000 0.96340  0.29940  0.17450  Biso   1.000  H
  N5       1.0000 0.24960  0.28520  0.29979  Biso   1.000  N
  N6       1.0000 0.17190  0.32968  0.36779  Biso   1.000  N
  N7       1.0000 0.14590  0.25248  0.36872  Biso   1.000  N
  N8       1.0000 0.04850  0.29519  0.29499  Biso   1.000  N
  C7       1.0000 0.26520  0.32388  0.33431  Biso   1.000  C
  H13      1.0000 0.33580  0.32150  0.35880  Biso   1.000  H
  H14      1.0000 0.27050  0.34910  0.31050  Biso   1.000  H
  C8       1.0000 0.23810  0.24750  0.33630  Biso   1.000  C
  H15      1.0000 0.22650  0.22150  0.31350  Biso   1.000  H
  H16      1.0000 0.30790  0.24380  0.36110  Biso   1.000  H
  C9       1.0000 0.14220  0.28986  0.26284  Biso   1.000  C
  H17      1.0000 0.14710  0.31490  0.23860  Biso   1.000  H
  H18      1.0000 0.13010  0.26430  0.23930  Biso   1.000  H
  C10      1.0000 0.16320  0.29070  0.40205  Biso   1.000  C
  H19      1.0000 0.23250  0.28750  0.42740  Biso   1.000  H
  H20      1.0000 0.10050  0.29410  0.42450  Biso   1.000  H
  C11      1.0000 0.06670  0.33290  0.32936  Biso   1.000  C
  H21      1.0000 0.00270  0.33670  0.35100  Biso   1.000  H
  H22      1.0000 0.07070  0.35830  0.30570  Biso   1.000  H
  C12      1.0000 0.04290  0.25777  0.33060  Biso   1.000  C
  H23      1.0000 0.03090  0.23200  0.30740  Biso   1.000  H
  H24      1.0000 0.97850  0.26080  0.35200  Biso   1.000  H
  O1       1.0000 0.49060  0.26045  0.32896  Biso   1.000  O
  O2       1.0000 0.65030  0.26837  0.29110  Biso   1.000  O
  C13      1.0000 0.59510  0.26251  0.33129  Biso   1.000  C
  C14      1.0000 0.66160  0.25820  0.38656  Biso   1.000  C
  C15      1.0000 0.61690  0.23979  0.42941  Biso   1.000  C
  H25      1.0000 0.54180  0.23030  0.42470  Biso   1.000  H
  C16      1.0000 0.68140  0.23456  0.48132  Biso   1.000  C
  C17      1.0000 0.63830  0.21520  0.52670  Biso   1.000  C
  H26      1.0000 0.56470  0.20410  0.52270  Biso   1.000  H
  C18      1.0000 0.70210  0.21229  0.57640  Biso   1.000  C
  H27      1.0000 0.67170  0.19960  0.60670  Biso   1.000  H
  C19      1.0000 0.81260  0.22786  0.58327  Biso   1.000  C
  C20      1.0000 0.85660  0.24536  0.53967  Biso   1.000  C
  H28      1.0000 0.93180  0.25490  0.54410  Biso   1.000  H
  C21      1.0000 0.79290  0.24968  0.48788  Biso   1.000  C
  C22      1.0000 0.83590  0.26944  0.44281  Biso   1.000  C
  H29      1.0000 0.91010  0.27990  0.44690  Biso   1.000  H
  C23      1.0000 0.77230  0.27367  0.39341  Biso   1.000  C
  H30      1.0000 0.80250  0.28700  0.36360  Biso   1.000  H
  C24      1.0000 0.87910  0.22627  0.63860  Biso   1.000  C
  O3       1.0000 0.97970  0.23728  0.64199  Biso   1.000  O
  O4       1.0000 0.82760  0.21436  0.67817  Biso   1.000  O
  O5       1.0000 0.37100  0.21264  0.24284  Biso   1.000  O
  O6       1.0000 0.54670  0.20184  0.22423  Biso   1.000  O
  C25      1.0000 0.44960  0.18880  0.23046  Biso   1.000  C
  C26      1.0000 0.42320  0.14280  0.22091  Biso   1.000  C
  C27      1.0000 0.31560  0.12756  0.22670  Biso   1.000  C
  H31      1.0000 0.26170  0.14620  0.23910  Biso   1.000  H
  C28      1.0000 0.28760  0.08629  0.21450  Biso   1.000  C
  H32      1.0000 0.21440  0.07650  0.21830  Biso   1.000  H
  C29      1.0000 0.36690  0.05785  0.19620  Biso   1.000  C
  C30      1.0000 0.34030  0.01531  0.18060  Biso   1.000  C
  H33      1.0000 0.26780  0.00470  0.18420  Biso   1.000  H
  C31      1.0000 0.41720  0.98920  0.16040  Biso   1.000  C
  C32      1.0000 0.52520  0.00446  0.15600  Biso   1.000  C
  H34      1.0000 0.57880  0.98620  0.14260  Biso   1.000  H
  C33      1.0000 0.55420  0.04511  0.17050  Biso   1.000  C
  H35      1.0000 0.62760  0.05490  0.16720  Biso   1.000  H
  C34      1.0000 0.47580  0.07291  0.19067  Biso   1.000  C
  C35      1.0000 0.50160  0.11576  0.20379  Biso   1.000  C
  H36      1.0000 0.57460  0.12610  0.20070  Biso   1.000  H
  C36      1.0000 0.38220  0.94605  0.13770  Biso   1.000  C
  O7       1.0000 0.44860  0.92421  0.11480  Biso   1.000  O
  O8       1.0000 0.28440  0.93429  0.13948  Biso   1.000  O
  O9       1.0000 0.45420  0.33416  0.26226  Biso   1.000  O
  O10      1.0000 0.59250  0.32933  0.20858  Biso   1.000  O
  C37      1.0000 0.53350  0.34947  0.23921  Biso   1.000  C
  C38      1.0000 0.56030  0.39572  0.25023  Biso   1.000  C
  C39      1.0000 0.49930  0.41826  0.28449  Biso   1.000  C
  H37      1.0000 0.43760  0.40510  0.29860  Biso   1.000  H
  C40      1.0000 0.52720  0.46080  0.29917  Biso   1.000  C
  C41      1.0000 0.46840  0.48409  0.33629  Biso   1.000  C
  H38      1.0000 0.40500  0.47180  0.34990  Biso   1.000  H
  C42      1.0000 0.50190  0.52397  0.35260  Biso   1.000  C
  H39      1.0000 0.46290  0.53890  0.37830  Biso   1.000  H
  C43      1.0000 0.59420  0.54327  0.33166  Biso   1.000  C
  C44      1.0000 0.64910  0.52254  0.29369  Biso   1.000  C
  H40      1.0000 0.70790  0.53650  0.27810  Biso   1.000  H
  C45      1.0000 0.61940  0.48019  0.27705  Biso   1.000  C
  C46      1.0000 0.67900  0.45659  0.24100  Biso   1.000  C
  H41      1.0000 0.73940  0.46940  0.22540  Biso   1.000  H
  C47      1.0000 0.65060  0.41539  0.22826  Biso   1.000  C
  H42      1.0000 0.69220  0.39980  0.20430  Biso   1.000  H
  C48      1.0000 0.63860  0.58537  0.35430  Biso   1.000  C
  O11      1.0000 0.71100  0.60510  0.33258  Biso   1.000  O
  O12      1.0000 0.59830  0.59859  0.39755  Biso   1.000  O
  O13      1.0000 0.36420  0.37704  0.43176  Biso   1.000  O
  O14      1.0000 0.38090  0.33915  0.50918  Biso   1.000  O
  C49      1.0000 0.42090  0.35972  0.47153  Biso   1.000  C
  C50      1.0000 0.54470  0.36357  0.47300  Biso   1.000  C
  C51      1.0000 0.61220  0.35409  0.51925  Biso   1.000  C
  H43      1.0000 0.58020  0.34450  0.55080  Biso   1.000  H
  C52      1.0000 0.73030  0.35822  0.52158  Biso   1.000  C
  C53      1.0000 0.80160  0.34886  0.56930  Biso   1.000  C
  H44      1.0000 0.77100  0.34070  0.60190  Biso   1.000  H
  C54      1.0000 0.91410  0.35137  0.56924  Biso   1.000  C
  H45      1.0000 0.96180  0.34500  0.60170  Biso   1.000  H
  C55      1.0000 0.96010  0.36350  0.52080  Biso   1.000  C
  C56      1.0000 0.89250  0.37360  0.47440  Biso   1.000  C
  H46      1.0000 0.92430  0.38220  0.44240  Biso   1.000  H
  C57      1.0000 0.77500  0.37140  0.47340  Biso   1.000  C
  C58      1.0000 0.70330  0.38220  0.42580  Biso   1.000  C
  H47      1.0000 0.73350  0.39270  0.39420  Biso   1.000  H
  C59      1.0000 0.59110  0.37760  0.42510  Biso   1.000  C
  H48      1.0000 0.54350  0.38370  0.39260  Biso   1.000  H
  C60      1.0000 0.08280  0.36332  0.52001  Biso   1.000  C
  O15      1.0000 0.14180  0.36070  0.56480  Biso   1.000  O
  O16      1.0000 0.11630  0.35560  0.47510  Biso   1.000  O
  O17      1.0000 0.13260  0.38550  0.47870  Biso   1.000  O
  Zn5      1.0000 0.90922  0.76391  0.28943  Biso   1.000  Zn
  Zn6      1.0000 0.11267  0.77554  0.24175  Biso   1.000  Zn
  Zn7      1.0000 0.19658  0.85640  0.92792  Biso   1.000  Zn
  Zn8      1.0000 0.29856  0.88537  0.08288  Biso   1.000  Zn
  N9       1.0000 0.76570  0.75105  0.32577  Biso   1.000  N
  N10      1.0000 0.67760  0.70165  0.38518  Biso   1.000  N
  N11      1.0000 0.64140  0.77793  0.39015  Biso   1.000  N
  N12      1.0000 0.56580  0.73738  0.30956  Biso   1.000  N
  C61      1.0000 0.77870  0.71080  0.35795  Biso   1.000  C
  H49      1.0000 0.79260  0.68700  0.33310  Biso   1.000  H
  H50      1.0000 0.84390  0.71320  0.38610  Biso   1.000  H
  C62      1.0000 0.66650  0.74635  0.28369  Biso   1.000  C
  H51      1.0000 0.65590  0.77290  0.26200  Biso   1.000  H
  H52      1.0000 0.67990  0.72290  0.25820  Biso   1.000  H
  C63      1.0000 0.74190  0.78621  0.36403  Biso   1.000  C
  H53      1.0000 0.80590  0.78940  0.39270  Biso   1.000  H
  H54      1.0000 0.73300  0.81330  0.34330  Biso   1.000  H
  C64      1.0000 0.58080  0.69819  0.34105  Biso   1.000  C
  H55      1.0000 0.59400  0.67440  0.31610  Biso   1.000  H
  H56      1.0000 0.51200  0.69190  0.35810  Biso   1.000  H
  C65      1.0000 0.65650  0.73823  0.42130  Biso   1.000  C
  H57      1.0000 0.58890  0.73240  0.43960  Biso   1.000  H
  H58      1.0000 0.72010  0.74140  0.45020  Biso   1.000  H
  C66      1.0000 0.54710  0.77271  0.34691  Biso   1.000  C
  H59      1.0000 0.47820  0.76730  0.36420  Biso   1.000  H
  H60      1.0000 0.53660  0.79940  0.32550  Biso   1.000  H
  N13      1.0000 0.25040  0.78520  0.20021  Biso   1.000  N
  N14      1.0000 0.32810  0.82968  0.13221  Biso   1.000  N
  N15      1.0000 0.35410  0.75248  0.13128  Biso   1.000  N
  N16      1.0000 0.45150  0.79519  0.20501  Biso   1.000  N
  C67      1.0000 0.23480  0.82388  0.16569  Biso   1.000  C
  H61      1.0000 0.16420  0.82150  0.14120  Biso   1.000  H
  H62      1.0000 0.22950  0.84910  0.18950  Biso   1.000  H
  C68      1.0000 0.26190  0.74750  0.16370  Biso   1.000  C
  H63      1.0000 0.27350  0.72150  0.18650  Biso   1.000  H
  H64      1.0000 0.19210  0.74380  0.13890  Biso   1.000  H
  C69      1.0000 0.35780  0.78986  0.23716  Biso   1.000  C
  H65      1.0000 0.35290  0.81490  0.26140  Biso   1.000  H
  H66      1.0000 0.36990  0.76430  0.26070  Biso   1.000  H
  C70      1.0000 0.33680  0.79070  0.09795  Biso   1.000  C
  H67      1.0000 0.26750  0.78750  0.07260  Biso   1.000  H
  H68      1.0000 0.39950  0.79410  0.07550  Biso   1.000  H
  C71      1.0000 0.43330  0.83290  0.17064  Biso   1.000  C
  H69      1.0000 0.49730  0.83670  0.14900  Biso   1.000  H
  H70      1.0000 0.42930  0.85830  0.19430  Biso   1.000  H
  C72      1.0000 0.45710  0.75777  0.16940  Biso   1.000  C
  H71      1.0000 0.46910  0.73200  0.19260  Biso   1.000  H
  H72      1.0000 0.52150  0.76080  0.14800  Biso   1.000  H
  O18      1.0000 0.00940  0.76045  0.17104  Biso   1.000  O
  O19      1.0000 0.84970  0.76837  0.20890  Biso   1.000  O
  C73      1.0000 0.90490  0.76251  0.16871  Biso   1.000  C
  C74      1.0000 0.83840  0.75820  0.11344  Biso   1.000  C
  C75      1.0000 0.88310  0.73979  0.07059  Biso   1.000  C
  H73      1.0000 0.95820  0.73030  0.07530  Biso   1.000  H
  C76      1.0000 0.81860  0.73456  0.01868  Biso   1.000  C
  C77      1.0000 0.86170  0.71520  0.97330  Biso   1.000  C
  H74      1.0000 0.93530  0.70410  0.97730  Biso   1.000  H
  C78      1.0000 0.79790  0.71229  0.92360  Biso   1.000  C
  H75      1.0000 0.82830  0.69960  0.89330  Biso   1.000  H
  C79      1.0000 0.68740  0.72786  0.91673  Biso   1.000  C
  C80      1.0000 0.64340  0.74536  0.96033  Biso   1.000  C
  H76      1.0000 0.56820  0.75490  0.95590  Biso   1.000  H
  C81      1.0000 0.70710  0.74968  0.01212  Biso   1.000  C
  C82      1.0000 0.66410  0.76944  0.05719  Biso   1.000  C
  H77      1.0000 0.58990  0.77990  0.05310  Biso   1.000  H
  C83      1.0000 0.72770  0.77367  0.10659  Biso   1.000  C
  H78      1.0000 0.69750  0.78700  0.13640  Biso   1.000  H
  C84      1.0000 0.62090  0.72627  0.86140  Biso   1.000  C
  O20      1.0000 0.52030  0.73728  0.85801  Biso   1.000  O
  O21      1.0000 0.67240  0.71436  0.82183  Biso   1.000  O
  O22      1.0000 0.12900  0.71264  0.25716  Biso   1.000  O
  O23      1.0000 0.95330  0.70184  0.27577  Biso   1.000  O
  C85      1.0000 0.05040  0.68880  0.26954  Biso   1.000  C
  C86      1.0000 0.07680  0.64280  0.27909  Biso   1.000  C
  C87      1.0000 0.18440  0.62756  0.27330  Biso   1.000  C
  H79      1.0000 0.23830  0.64620  0.26090  Biso   1.000  H
  C88      1.0000 0.21240  0.58629  0.28550  Biso   1.000  C
  H80      1.0000 0.28560  0.57650  0.28170  Biso   1.000  H
  C89      1.0000 0.13310  0.55785  0.30380  Biso   1.000  C
  C90      1.0000 0.15970  0.51531  0.31940  Biso   1.000  C
  H81      1.0000 0.23220  0.50470  0.31580  Biso   1.000  H
  C91      1.0000 0.08280  0.48920  0.33960  Biso   1.000  C
  C92      1.0000 0.97480  0.50446  0.34400  Biso   1.000  C
  H82      1.0000 0.92120  0.48620  0.35740  Biso   1.000  H
  C93      1.0000 0.94580  0.54511  0.32950  Biso   1.000  C
  H83      1.0000 0.87240  0.55490  0.33280  Biso   1.000  H
  C94      1.0000 0.02420  0.57291  0.30933  Biso   1.000  C
  C95      1.0000 0.99840  0.61576  0.29621  Biso   1.000  C
  H84      1.0000 0.92540  0.62610  0.29930  Biso   1.000  H
  C96      1.0000 0.11780  0.44605  0.36230  Biso   1.000  C
  O24      1.0000 0.05140  0.42421  0.38520  Biso   1.000  O
  O25      1.0000 0.21560  0.43429  0.36052  Biso   1.000  O
  O26      1.0000 0.04580  0.83416  0.23774  Biso   1.000  O
  O27      1.0000 0.90750  0.82933  0.29142  Biso   1.000  O
  C97      1.0000 0.96650  0.84947  0.26079  Biso   1.000  C
  C98      1.0000 0.93970  0.89572  0.24977  Biso   1.000  C
  C99      1.0000 0.00070  0.91826  0.21551  Biso   1.000  C
  H85      1.0000 0.06240  0.90510  0.20140  Biso   1.000  H
  C100     1.0000 0.97280  0.96080  0.20083  Biso   1.000  C
  C101     1.0000 0.03160  0.98409  0.16371  Biso   1.000  C
  H86      1.0000 0.09500  0.97180  0.15010  Biso   1.000  H
  C102     1.0000 0.99810  0.02397  0.14740  Biso   1.000  C
  H87      1.0000 0.03710  0.03890  0.12170  Biso   1.000  H
  C103     1.0000 0.90580  0.04327  0.16834  Biso   1.000  C
  C104     1.0000 0.85090  0.02254  0.20631  Biso   1.000  C
  H88      1.0000 0.79210  0.03650  0.22190  Biso   1.000  H
  C105     1.0000 0.88060  0.98019  0.22295  Biso   1.000  C
  C106     1.0000 0.82100  0.95659  0.25900  Biso   1.000  C
  H89      1.0000 0.76060  0.96940  0.27460  Biso   1.000  H
  C107     1.0000 0.84940  0.91539  0.27174  Biso   1.000  C
  H90      1.0000 0.80780  0.89980  0.29570  Biso   1.000  H
  C108     1.0000 0.86140  0.08537  0.14570  Biso   1.000  C
  O28      1.0000 0.78900  0.10510  0.16742  Biso   1.000  O
  O29      1.0000 0.90170  0.09859  0.10245  Biso   1.000  O
  O30      1.0000 0.13580  0.87704  0.06824  Biso   1.000  O
  O31      1.0000 0.11910  0.83915  0.99082  Biso   1.000  O
  C109     1.0000 0.07910  0.85972  0.02847  Biso   1.000  C
  C110     1.0000 0.95530  0.86357  0.02700  Biso   1.000  C
  C111     1.0000 0.88780  0.85409  0.98075  Biso   1.000  C
  H91      1.0000 0.91980  0.84450  0.94920  Biso   1.000  H
  C112     1.0000 0.76970  0.85822  0.97842  Biso   1.000  C
  C113     1.0000 0.69840  0.84886  0.93070  Biso   1.000  C
  H92      1.0000 0.72900  0.84070  0.89810  Biso   1.000  H
  C114     1.0000 0.58590  0.85137  0.93076  Biso   1.000  C
  H93      1.0000 0.53820  0.84500  0.89830  Biso   1.000  H
  C115     1.0000 0.53990  0.86350  0.97920  Biso   1.000  C
  C116     1.0000 0.60750  0.87360  0.02560  Biso   1.000  C
  H94      1.0000 0.57570  0.88220  0.05760  Biso   1.000  H
  C117     1.0000 0.72500  0.87140  0.02660  Biso   1.000  C
  C118     1.0000 0.79670  0.88220  0.07420  Biso   1.000  C
  H95      1.0000 0.76650  0.89270  0.10580  Biso   1.000  H
  C119     1.0000 0.90890  0.87760  0.07490  Biso   1.000  C
  H96      1.0000 0.95650  0.88370  0.10740  Biso   1.000  H
  C120     1.0000 0.41720  0.86332  0.97999  Biso   1.000  C
  O32      1.0000 0.35820  0.86070  0.93520  Biso   1.000  O
  O33      1.0000 0.38370  0.85560  0.02490  Biso   1.000  O
  O34      1.0000 0.36740  0.88550  0.02130  Biso   1.000  O
  Zn9      1.0000 0.40922  0.73609  0.78943  Biso   1.000  Zn
  Zn10     1.0000 0.61267  0.72446  0.74175  Biso   1.000  Zn
  Zn11     1.0000 0.69658  0.64360  0.42792  Biso   1.000  Zn
  Zn12     1.0000 0.79856  0.61463  0.58288  Biso   1.000  Zn
  N17      1.0000 0.26570  0.74895  0.82577  Biso   1.000  N
  N18      1.0000 0.17760  0.79835  0.88518  Biso   1.000  N
  N19      1.0000 0.14140  0.72207  0.89015  Biso   1.000  N
  N20      1.0000 0.06580  0.76262  0.80956  Biso   1.000  N
  C121     1.0000 0.27870  0.78920  0.85795  Biso   1.000  C
  H97      1.0000 0.29260  0.81300  0.83310  Biso   1.000  H
  H98      1.0000 0.34390  0.78680  0.88610  Biso   1.000  H
  C122     1.0000 0.16650  0.75365  0.78369  Biso   1.000  C
  H99      1.0000 0.15590  0.72710  0.76200  Biso   1.000  H
  H100     1.0000 0.17990  0.77710  0.75820  Biso   1.000  H
  C123     1.0000 0.24190  0.71379  0.86403  Biso   1.000  C
  H101     1.0000 0.30590  0.71060  0.89270  Biso   1.000  H
  H102     1.0000 0.23300  0.68670  0.84330  Biso   1.000  H
  C124     1.0000 0.08080  0.80181  0.84105  Biso   1.000  C
  H103     1.0000 0.09400  0.82560  0.81610  Biso   1.000  H
  H104     1.0000 0.01200  0.80810  0.85810  Biso   1.000  H
  C125     1.0000 0.15650  0.76177  0.92130  Biso   1.000  C
  H105     1.0000 0.08890  0.76760  0.93960  Biso   1.000  H
  H106     1.0000 0.22010  0.75860  0.95020  Biso   1.000  H
  C126     1.0000 0.04710  0.72729  0.84691  Biso   1.000  C
  H107     1.0000 0.97820  0.73270  0.86420  Biso   1.000  H
  H108     1.0000 0.03660  0.70060  0.82550  Biso   1.000  H
  N21      1.0000 0.75040  0.71480  0.70021  Biso   1.000  N
  N22      1.0000 0.82810  0.67032  0.63221  Biso   1.000  N
  N23      1.0000 0.85410  0.74752  0.63128  Biso   1.000  N
  N24      1.0000 0.95150  0.70481  0.70501  Biso   1.000  N
  C127     1.0000 0.73480  0.67612  0.66569  Biso   1.000  C
  H109     1.0000 0.66420  0.67850  0.64120  Biso   1.000  H
  H110     1.0000 0.72950  0.65090  0.68950  Biso   1.000  H
  C128     1.0000 0.76190  0.75250  0.66370  Biso   1.000  C
  H111     1.0000 0.77350  0.77850  0.68650  Biso   1.000  H
  H112     1.0000 0.69210  0.75620  0.63890  Biso   1.000  H
  C129     1.0000 0.85780  0.71014  0.73716  Biso   1.000  C
  H113     1.0000 0.85290  0.68510  0.76140  Biso   1.000  H
  H114     1.0000 0.86990  0.73570  0.76070  Biso   1.000  H
  C130     1.0000 0.83680  0.70930  0.59795  Biso   1.000  C
  H115     1.0000 0.76750  0.71250  0.57260  Biso   1.000  H
  H116     1.0000 0.89950  0.70590  0.57550  Biso   1.000  H
  C131     1.0000 0.93330  0.66710  0.67064  Biso   1.000  C
  H117     1.0000 0.99730  0.66330  0.64900  Biso   1.000  H
  H118     1.0000 0.92930  0.64170  0.69430  Biso   1.000  H
  C132     1.0000 0.95710  0.74223  0.66940  Biso   1.000  C
  H119     1.0000 0.96910  0.76800  0.69260  Biso   1.000  H
  H120     1.0000 0.02150  0.73920  0.64800  Biso   1.000  H
  O35      1.0000 0.50940  0.73955  0.67104  Biso   1.000  O
  O36      1.0000 0.34970  0.73163  0.70890  Biso   1.000  O
  C133     1.0000 0.40490  0.73749  0.66871  Biso   1.000  C
  C134     1.0000 0.33840  0.74180  0.61344  Biso   1.000  C
  C135     1.0000 0.38310  0.76021  0.57059  Biso   1.000  C
  H121     1.0000 0.45820  0.76970  0.57530  Biso   1.000  H
  C136     1.0000 0.31860  0.76544  0.51868  Biso   1.000  C
  C137     1.0000 0.36170  0.78480  0.47330  Biso   1.000  C
  H122     1.0000 0.43530  0.79590  0.47730  Biso   1.000  H
  C138     1.0000 0.29790  0.78771  0.42360  Biso   1.000  C
  H123     1.0000 0.32830  0.80040  0.39330  Biso   1.000  H
  C139     1.0000 0.18740  0.77214  0.41673  Biso   1.000  C
  C140     1.0000 0.14340  0.75464  0.46033  Biso   1.000  C
  H124     1.0000 0.06820  0.74510  0.45590  Biso   1.000  H
  C141     1.0000 0.20710  0.75032  0.51212  Biso   1.000  C
  C142     1.0000 0.16410  0.73056  0.55719  Biso   1.000  C
  H125     1.0000 0.08990  0.72010  0.55310  Biso   1.000  H
  C143     1.0000 0.22770  0.72633  0.60659  Biso   1.000  C
  H126     1.0000 0.19750  0.71300  0.63640  Biso   1.000  H
  C144     1.0000 0.12090  0.77373  0.36140  Biso   1.000  C
  O37      1.0000 0.02030  0.76272  0.35801  Biso   1.000  O
  O38      1.0000 0.17240  0.78564  0.32183  Biso   1.000  O
  O39      1.0000 0.62900  0.78736  0.75716  Biso   1.000  O
  O40      1.0000 0.45330  0.79816  0.77577  Biso   1.000  O
  C145     1.0000 0.55040  0.81120  0.76954  Biso   1.000  C
  C146     1.0000 0.57680  0.85720  0.77909  Biso   1.000  C
  C147     1.0000 0.68440  0.87244  0.77330  Biso   1.000  C
  H127     1.0000 0.73830  0.85380  0.76090  Biso   1.000  H
  C148     1.0000 0.71240  0.91371  0.78550  Biso   1.000  C
  H128     1.0000 0.78560  0.92350  0.78170  Biso   1.000  H
  C149     1.0000 0.63310  0.94215  0.80380  Biso   1.000  C
  C150     1.0000 0.65970  0.98469  0.81940  Biso   1.000  C
  H129     1.0000 0.73220  0.99530  0.81580  Biso   1.000  H
  C151     1.0000 0.58280  0.01080  0.83960  Biso   1.000  C
  C152     1.0000 0.47480  0.99554  0.84400  Biso   1.000  C
  H130     1.0000 0.42120  0.01380  0.85740  Biso   1.000  H
  C153     1.0000 0.44580  0.95489  0.82950  Biso   1.000  C
  H131     1.0000 0.37240  0.94510  0.83280  Biso   1.000  H
  C154     1.0000 0.52420  0.92709  0.80933  Biso   1.000  C
  C155     1.0000 0.49840  0.88424  0.79621  Biso   1.000  C
  H132     1.0000 0.42540  0.87390  0.79930  Biso   1.000  H
  C156     1.0000 0.61780  0.05395  0.86230  Biso   1.000  C
  O41      1.0000 0.55140  0.07579  0.88520  Biso   1.000  O
  O42      1.0000 0.71560  0.06571  0.86052  Biso   1.000  O
  O43      1.0000 0.54580  0.66584  0.73774  Biso   1.000  O
  O44      1.0000 0.40750  0.67067  0.79142  Biso   1.000  O
  C157     1.0000 0.46650  0.65053  0.76079  Biso   1.000  C
  C158     1.0000 0.43970  0.60428  0.74977  Biso   1.000  C
  C159     1.0000 0.50070  0.58174  0.71551  Biso   1.000  C
  H133     1.0000 0.56240  0.59490  0.70140  Biso   1.000  H
  C160     1.0000 0.47280  0.53920  0.70083  Biso   1.000  C
  C161     1.0000 0.53160  0.51591  0.66371  Biso   1.000  C
  H134     1.0000 0.59500  0.52820  0.65010  Biso   1.000  H
  C162     1.0000 0.49810  0.47603  0.64740  Biso   1.000  C
  H135     1.0000 0.53710  0.46110  0.62170  Biso   1.000  H
  C163     1.0000 0.40580  0.45673  0.66834  Biso   1.000  C
  C164     1.0000 0.35090  0.47746  0.70631  Biso   1.000  C
  H136     1.0000 0.29210  0.46350  0.72190  Biso   1.000  H
  C165     1.0000 0.38060  0.51981  0.72295  Biso   1.000  C
  C166     1.0000 0.32100  0.54341  0.75900  Biso   1.000  C
  H137     1.0000 0.26060  0.53060  0.77460  Biso   1.000  H
  C167     1.0000 0.34940  0.58461  0.77174  Biso   1.000  C
  H138     1.0000 0.30780  0.60020  0.79570  Biso   1.000  H
  C168     1.0000 0.36140  0.41463  0.64570  Biso   1.000  C
  O45      1.0000 0.28900  0.39490  0.66742  Biso   1.000  O
  O46      1.0000 0.40170  0.40141  0.60245  Biso   1.000  O
  O47      1.0000 0.63580  0.62296  0.56824  Biso   1.000  O
  O48      1.0000 0.61910  0.66085  0.49082  Biso   1.000  O
  C169     1.0000 0.57910  0.64028  0.52847  Biso   1.000  C
  C170     1.0000 0.45530  0.63643  0.52700  Biso   1.000  C
  C171     1.0000 0.38780  0.64591  0.48075  Biso   1.000  C
  H139     1.0000 0.41980  0.65550  0.44920  Biso   1.000  H
  C172     1.0000 0.26970  0.64178  0.47842  Biso   1.000  C
  C173     1.0000 0.19840  0.65114  0.43070  Biso   1.000  C
  H140     1.0000 0.22900  0.65930  0.39810  Biso   1.000  H
  C174     1.0000 0.08590  0.64863  0.43076  Biso   1.000  C
  H141     1.0000 0.03820  0.65500  0.39830  Biso   1.000  H
  C175     1.0000 0.03990  0.63650  0.47920  Biso   1.000  C
  C176     1.0000 0.10750  0.62640  0.52560  Biso   1.000  C
  H142     1.0000 0.07570  0.61780  0.55760  Biso   1.000  H
  C177     1.0000 0.22500  0.62860  0.52660  Biso   1.000  C
  C178     1.0000 0.29670  0.61780  0.57420  Biso   1.000  C
  H143     1.0000 0.26650  0.60730  0.60580  Biso   1.000  H
  C179     1.0000 0.40890  0.62240  0.57490  Biso   1.000  C
  H144     1.0000 0.45650  0.61630  0.60740  Biso   1.000  H
  C180     1.0000 0.91720  0.63668  0.47999  Biso   1.000  C
  O49      1.0000 0.85820  0.63930  0.43520  Biso   1.000  O
  O50      1.0000 0.88370  0.64440  0.52490  Biso   1.000  O
  O51      1.0000 0.86740  0.61450  0.52130  Biso   1.000  O
  Zn13     1.0000 0.09078  0.23609  0.71057  Biso   1.000  Zn
  Zn14     1.0000 0.88733  0.22446  0.75825  Biso   1.000  Zn
  Zn15     1.0000 0.80342  0.14360  0.07208  Biso   1.000  Zn
  Zn16     1.0000 0.70144  0.11463  0.91712  Biso   1.000  Zn
  N25      1.0000 0.23430  0.24895  0.67423  Biso   1.000  N
  N26      1.0000 0.32240  0.29835  0.61482  Biso   1.000  N
  N27      1.0000 0.35860  0.22207  0.60985  Biso   1.000  N
  N28      1.0000 0.43420  0.26262  0.69044  Biso   1.000  N
  C181     1.0000 0.22130  0.28920  0.64205  Biso   1.000  C
  H145     1.0000 0.20740  0.31300  0.66690  Biso   1.000  H
  H146     1.0000 0.15610  0.28680  0.61390  Biso   1.000  H
  C182     1.0000 0.33350  0.25365  0.71631  Biso   1.000  C
  H147     1.0000 0.34410  0.22710  0.73800  Biso   1.000  H
  H148     1.0000 0.32010  0.27710  0.74180  Biso   1.000  H
  C183     1.0000 0.25810  0.21379  0.63597  Biso   1.000  C
  H149     1.0000 0.19410  0.21060  0.60730  Biso   1.000  H
  H150     1.0000 0.26700  0.18670  0.65670  Biso   1.000  H
  C184     1.0000 0.41920  0.30181  0.65895  Biso   1.000  C
  H151     1.0000 0.40600  0.32560  0.68390  Biso   1.000  H
  H152     1.0000 0.48800  0.30810  0.64190  Biso   1.000  H
  C185     1.0000 0.34350  0.26177  0.57870  Biso   1.000  C
  H153     1.0000 0.41110  0.26760  0.56040  Biso   1.000  H
  H154     1.0000 0.27990  0.25860  0.54980  Biso   1.000  H
  C186     1.0000 0.45290  0.22729  0.65309  Biso   1.000  C
  H155     1.0000 0.52180  0.23270  0.63580  Biso   1.000  H
  H156     1.0000 0.46340  0.20060  0.67450  Biso   1.000  H
  N29      1.0000 0.74960  0.21480  0.79979  Biso   1.000  N
  N30      1.0000 0.67190  0.17032  0.86779  Biso   1.000  N
  N31      1.0000 0.64590  0.24752  0.86872  Biso   1.000  N
  N32      1.0000 0.54850  0.20481  0.79499  Biso   1.000  N
  C187     1.0000 0.76520  0.17612  0.83431  Biso   1.000  C
  H157     1.0000 0.83580  0.17850  0.85880  Biso   1.000  H
  H158     1.0000 0.77050  0.15090  0.81050  Biso   1.000  H
  C188     1.0000 0.73810  0.25250  0.83630  Biso   1.000  C
  H159     1.0000 0.72650  0.27850  0.81350  Biso   1.000  H
  H160     1.0000 0.80790  0.25620  0.86110  Biso   1.000  H
  C189     1.0000 0.64220  0.21014  0.76284  Biso   1.000  C
  H161     1.0000 0.64710  0.18510  0.73860  Biso   1.000  H
  H162     1.0000 0.63010  0.23570  0.73930  Biso   1.000  H
  C190     1.0000 0.66320  0.20930  0.90205  Biso   1.000  C
  H163     1.0000 0.73250  0.21250  0.92740  Biso   1.000  H
  H164     1.0000 0.60050  0.20590  0.92450  Biso   1.000  H
  C191     1.0000 0.56670  0.16710  0.82936  Biso   1.000  C
  H165     1.0000 0.50270  0.16330  0.85100  Biso   1.000  H
  H166     1.0000 0.57070  0.14170  0.80570  Biso   1.000  H
  C192     1.0000 0.54290  0.24223  0.83060  Biso   1.000  C
  H167     1.0000 0.53090  0.26800  0.80740  Biso   1.000  H
  H168     1.0000 0.47850  0.23920  0.85200  Biso   1.000  H
  O52      1.0000 0.99060  0.23955  0.82896  Biso   1.000  O
  O53      1.0000 0.15030  0.23163  0.79110  Biso   1.000  O
  C193     1.0000 0.09510  0.23749  0.83129  Biso   1.000  C
  C194     1.0000 0.16160  0.24180  0.88656  Biso   1.000  C
  C195     1.0000 0.11690  0.26021  0.92941  Biso   1.000  C
  H169     1.0000 0.04180  0.26970  0.92470  Biso   1.000  H
  C196     1.0000 0.18140  0.26544  0.98132  Biso   1.000  C
  C197     1.0000 0.13830  0.28480  0.02670  Biso   1.000  C
  H170     1.0000 0.06470  0.29590  0.02270  Biso   1.000  H
  C198     1.0000 0.20210  0.28771  0.07640  Biso   1.000  C
  H171     1.0000 0.17170  0.30040  0.10670  Biso   1.000  H
  C199     1.0000 0.31260  0.27214  0.08327  Biso   1.000  C
  C200     1.0000 0.35660  0.25464  0.03967  Biso   1.000  C
  H172     1.0000 0.43180  0.24510  0.04410  Biso   1.000  H
  C201     1.0000 0.29290  0.25032  0.98788  Biso   1.000  C
  C202     1.0000 0.33590  0.23056  0.94281  Biso   1.000  C
  H173     1.0000 0.41010  0.22010  0.94690  Biso   1.000  H
  C203     1.0000 0.27230  0.22633  0.89341  Biso   1.000  C
  H174     1.0000 0.30250  0.21300  0.86360  Biso   1.000  H
  C204     1.0000 0.37910  0.27373  0.13860  Biso   1.000  C
  O54      1.0000 0.47970  0.26272  0.14199  Biso   1.000  O
  O55      1.0000 0.32760  0.28564  0.17817  Biso   1.000  O
  O56      1.0000 0.87100  0.28736  0.74284  Biso   1.000  O
  O57      1.0000 0.04670  0.29816  0.72423  Biso   1.000  O
  C205     1.0000 0.94960  0.31120  0.73046  Biso   1.000  C
  C206     1.0000 0.92320  0.35720  0.72091  Biso   1.000  C
  C207     1.0000 0.81560  0.37244  0.72670  Biso   1.000  C
  H175     1.0000 0.76170  0.35380  0.73910  Biso   1.000  H
  C208     1.0000 0.78760  0.41371  0.71450  Biso   1.000  C
  H176     1.0000 0.71440  0.42350  0.71830  Biso   1.000  H
  C209     1.0000 0.86690  0.44215  0.69620  Biso   1.000  C
  C210     1.0000 0.84030  0.48469  0.68060  Biso   1.000  C
  H177     1.0000 0.76780  0.49530  0.68420  Biso   1.000  H
  C211     1.0000 0.91720  0.51080  0.66040  Biso   1.000  C
  C212     1.0000 0.02520  0.49554  0.65600  Biso   1.000  C
  H178     1.0000 0.07880  0.51380  0.64260  Biso   1.000  H
  C213     1.0000 0.05420  0.45489  0.67050  Biso   1.000  C
  H179     1.0000 0.12760  0.44510  0.66720  Biso   1.000  H
  C214     1.0000 0.97580  0.42709  0.69067  Biso   1.000  C
  C215     1.0000 0.00160  0.38424  0.70379  Biso   1.000  C
  H180     1.0000 0.07460  0.37390  0.70070  Biso   1.000  H
  C216     1.0000 0.88220  0.55395  0.63770  Biso   1.000  C
  O58      1.0000 0.94860  0.57579  0.61480  Biso   1.000  O
  O59      1.0000 0.78440  0.56571  0.63948  Biso   1.000  O
  O60      1.0000 0.95420  0.16584  0.76226  Biso   1.000  O
  O61      1.0000 0.09250  0.17067  0.70858  Biso   1.000  O
  C217     1.0000 0.03350  0.15053  0.73921  Biso   1.000  C
  C218     1.0000 0.06030  0.10428  0.75023  Biso   1.000  C
  C219     1.0000 0.99930  0.08174  0.78449  Biso   1.000  C
  H181     1.0000 0.93760  0.09490  0.79860  Biso   1.000  H
  C220     1.0000 0.02720  0.03920  0.79917  Biso   1.000  C
  C221     1.0000 0.96840  0.01591  0.83629  Biso   1.000  C
  H182     1.0000 0.90500  0.02820  0.84990  Biso   1.000  H
  C222     1.0000 0.00190  0.97603  0.85260  Biso   1.000  C
  H183     1.0000 0.96290  0.96110  0.87830  Biso   1.000  H
  C223     1.0000 0.09420  0.95673  0.83166  Biso   1.000  C
  C224     1.0000 0.14910  0.97746  0.79369  Biso   1.000  C
  H184     1.0000 0.20790  0.96350  0.77810  Biso   1.000  H
  C225     1.0000 0.11940  0.01981  0.77705  Biso   1.000  C
  C226     1.0000 0.17900  0.04341  0.74100  Biso   1.000  C
  H185     1.0000 0.23940  0.03060  0.72540  Biso   1.000  H
  C227     1.0000 0.15060  0.08461  0.72826  Biso   1.000  C
  H186     1.0000 0.19220  0.10020  0.70430  Biso   1.000  H
  C228     1.0000 0.13860  0.91463  0.85430  Biso   1.000  C
  O62      1.0000 0.21100  0.89490  0.83258  Biso   1.000  O
  O63      1.0000 0.09830  0.90141  0.89755  Biso   1.000  O
  O64      1.0000 0.86420  0.12296  0.93176  Biso   1.000  O
  O65      1.0000 0.88090  0.16085  0.00918  Biso   1.000  O
  C229     1.0000 0.92090  0.14028  0.97153  Biso   1.000  C
  C230     1.0000 0.04470  0.13643  0.97300  Biso   1.000  C
  C231     1.0000 0.11220  0.14591  0.01925  Biso   1.000  C
  H187     1.0000 0.08020  0.15550  0.05080  Biso   1.000  H
  C232     1.0000 0.23030  0.14178  0.02158  Biso   1.000  C
  C233     1.0000 0.30160  0.15114  0.06930  Biso   1.000  C
  H188     1.0000 0.27100  0.15930  0.10190  Biso   1.000  H
  C234     1.0000 0.41410  0.14863  0.06924  Biso   1.000  C
  H189     1.0000 0.46180  0.15500  0.10170  Biso   1.000  H
  C235     1.0000 0.46010  0.13650  0.02080  Biso   1.000  C
  C236     1.0000 0.39250  0.12640  0.97440  Biso   1.000  C
  H190     1.0000 0.42430  0.11780  0.94240  Biso   1.000  H
  C237     1.0000 0.27500  0.12860  0.97340  Biso   1.000  C
  C238     1.0000 0.20330  0.11780  0.92580  Biso   1.000  C
  H191     1.0000 0.23350  0.10730  0.89420  Biso   1.000  H
  C239     1.0000 0.09110  0.12240  0.92510  Biso   1.000  C
  H192     1.0000 0.04350  0.11630  0.89260  Biso   1.000  H
  C240     1.0000 0.58280  0.13668  0.02001  Biso   1.000  C
  O66      1.0000 0.64180  0.13930  0.06480  Biso   1.000  O
  O67      1.0000 0.61630  0.14440  0.97510  Biso   1.000  O
  O68      1.0000 0.63260  0.11450  0.97870  Biso   1.000  O
