data_image0
_cell_length_a       25.6621
_cell_length_b       16.1587
_cell_length_c       26.5745
_cell_angle_alpha    90
_cell_angle_beta     113.21
_cell_angle_gamma    90

_symmetry_space_group_name_H-M    "P 1"
_symmetry_int_tables_number       1

loop_
  _symmetry_equiv_pos_as_xyz
  'x, y, z'

loop_
  _atom_site_label
  _atom_site_occupancy
  _atom_site_fract_x
  _atom_site_fract_y
  _atom_site_fract_z
  _atom_site_thermal_displace_type
  _atom_site_B_iso_or_equiv
  _atom_site_type_symbol
  C1       1.0000 0.11790  0.92490  0.15590  Biso   1.000  C
  C2       1.0000 0.14520  0.97080  0.20880  Biso   1.000  C
  C3       1.0000 0.12360  0.96480  0.24910  Biso   1.000  C
  H1       1.0000 0.09120  0.93110  0.24270  Biso   1.000  H
  C4       1.0000 0.14880  0.00780  0.29960  Biso   1.000  C
  C5       1.0000 0.19550  0.05640  0.30900  Biso   1.000  C
  C6       1.0000 0.21740  0.06530  0.26700  Biso   1.000  C
  H2       1.0000 0.24780  0.10230  0.27180  Biso   1.000  H
  C7       1.0000 0.19330  0.01920  0.21990  Biso   1.000  C
  H3       1.0000 0.21030  0.02040  0.19390  Biso   1.000  H
  C8       1.0000 0.05430  0.98350  0.46400  Biso   1.000  C
  C9       1.0000 0.07860  0.98850  0.42070  Biso   1.000  C
  C10      1.0000 0.12510  0.03730  0.43010  Biso   1.000  C
  H4       1.0000 0.14140  0.06680  0.46370  Biso   1.000  H
  C11      1.0000 0.14950  0.04480  0.39030  Biso   1.000  C
  C12      1.0000 0.12360  0.00000  0.34030  Biso   1.000  C
  C13      1.0000 0.07670  0.95150  0.33270  Biso   1.000  C
  H5       1.0000 0.05890  0.92320  0.29890  Biso   1.000  H
  C14      1.0000 0.05430  0.94220  0.37250  Biso   1.000  C
  H6       1.0000 0.02350  0.90560  0.36700  Biso   1.000  H
  C15      1.0000 0.34460  0.25190  0.43020  Biso   1.000  C
  C16      1.0000 0.29460  0.19550  0.41950  Biso   1.000  C
  C17      1.0000 0.27010  0.15310  0.37200  Biso   1.000  C
  H7       1.0000 0.28600  0.15820  0.34540  Biso   1.000  H
  C18      1.0000 0.22310  0.10260  0.36010  Biso   1.000  C
  C19      1.0000 0.19880  0.09710  0.40040  Biso   1.000  C
  C20      1.0000 0.22580  0.14100  0.44990  Biso   1.000  C
  H8       1.0000 0.21160  0.13590  0.47790  Biso   1.000  H
  C21      1.0000 0.27090  0.18950  0.45860  Biso   1.000  C
  H9       1.0000 0.28700  0.22020  0.49170  Biso   1.000  H
  O1       1.0000 0.13710  0.93340  0.11910  Biso   1.000  O
  O2       1.0000 0.07560  0.88050  0.14760  Biso   1.000  O
  O3       1.0000 0.01880  0.92860  0.45860  Biso   1.000  O
  O4       1.0000 0.07320  0.03120  0.50310  Biso   1.000  O
  O5       1.0000 0.35730  0.30440  0.46810  Biso   1.000  O
  O6       1.0000 0.37050  0.24590  0.39800  Biso   1.000  O
  Tb1      1.0000 0.06294  0.85610  0.05294  Biso   1.000  Tb
  O7       1.0000 0.01720  0.80780  0.96480  Biso   1.000  O
  C22      1.0000 0.99760  0.83270  0.91200  Biso   1.000  C
  C23      1.0000 0.94650  0.88790  0.88950  Biso   1.000  C
  H10      1.0000 0.92550  0.87560  0.85060  Biso   1.000  H
  H11      1.0000 0.95870  0.94580  0.89380  Biso   1.000  H
  H12      1.0000 0.92210  0.87810  0.90940  Biso   1.000  H
  C24      1.0000 0.07380  0.75370  0.90390  Biso   1.000  C
  H13      1.0000 0.06340  0.71010  0.92380  Biso   1.000  H
  H14      1.0000 0.10510  0.78650  0.92970  Biso   1.000  H
  H15      1.0000 0.08560  0.72870  0.87650  Biso   1.000  H
  N1       1.0000 0.02330  0.80930  0.87560  Biso   1.000  N
  C25      1.0000 0.99420  0.84370  0.81850  Biso   1.000  C
  H16      1.0000 0.95310  0.84280  0.80790  Biso   1.000  H
  H17      1.0000 0.00400  0.80990  0.79290  Biso   1.000  H
  H18      1.0000 0.00670  0.90080  0.81760  Biso   1.000  H
  H19      1.0000 0.90990  0.25600  0.39550  Biso   1.000  H
  H20      1.0000 0.95560  0.32550  0.39890  Biso   1.000  H
  H21      1.0000 0.93180  0.26490  0.34720  Biso   1.000  H
  H22      1.0000 0.06480  0.11680  0.45450  Biso   1.000  H
  H23      1.0000 0.05320  0.03970  0.41370  Biso   1.000  H
  H24      1.0000 0.08160  0.12210  0.40270  Biso   1.000  H
  H25      1.0000 0.97220  0.11750  0.30300  Biso   1.000  H
  H26      1.0000 0.93640  0.18960  0.31580  Biso   1.000  H
  H27      1.0000 0.99420  0.21110  0.30930  Biso   1.000  H
  O8       1.0000 0.01350  0.20700  0.47080  Biso   1.000  O
  C26      1.0000 0.98960  0.20920  0.41550  Biso   1.000  C
  C27      1.0000 0.94260  0.26900  0.38680  Biso   1.000  C
  C28      1.0000 0.05390  0.10000  0.41600  Biso   1.000  C
  N2       1.0000 0.00640  0.15700  0.38170  Biso   1.000  N
  C29      1.0000 0.97460  0.17000  0.32240  Biso   1.000  C
  C30      1.0000 0.61790  0.42490  0.15590  Biso   1.000  C
  C31      1.0000 0.64520  0.47080  0.20880  Biso   1.000  C
  C32      1.0000 0.62360  0.46480  0.24910  Biso   1.000  C
  H28      1.0000 0.59120  0.43110  0.24270  Biso   1.000  H
  C33      1.0000 0.64880  0.50780  0.29960  Biso   1.000  C
  C34      1.0000 0.69550  0.55640  0.30900  Biso   1.000  C
  C35      1.0000 0.71740  0.56530  0.26700  Biso   1.000  C
  H29      1.0000 0.74780  0.60230  0.27180  Biso   1.000  H
  C36      1.0000 0.69330  0.51920  0.21990  Biso   1.000  C
  H30      1.0000 0.71030  0.52040  0.19390  Biso   1.000  H
  C37      1.0000 0.55430  0.48350  0.46400  Biso   1.000  C
  C38      1.0000 0.57860  0.48850  0.42070  Biso   1.000  C
  C39      1.0000 0.62510  0.53730  0.43010  Biso   1.000  C
  H31      1.0000 0.64140  0.56680  0.46370  Biso   1.000  H
  C40      1.0000 0.64950  0.54480  0.39030  Biso   1.000  C
  C41      1.0000 0.62360  0.50000  0.34030  Biso   1.000  C
  C42      1.0000 0.57670  0.45150  0.33270  Biso   1.000  C
  H32      1.0000 0.55890  0.42320  0.29890  Biso   1.000  H
  C43      1.0000 0.55430  0.44220  0.37250  Biso   1.000  C
  H33      1.0000 0.52350  0.40560  0.36700  Biso   1.000  H
  C44      1.0000 0.84460  0.75190  0.43020  Biso   1.000  C
  C45      1.0000 0.79460  0.69550  0.41950  Biso   1.000  C
  C46      1.0000 0.77010  0.65310  0.37200  Biso   1.000  C
  H34      1.0000 0.78600  0.65820  0.34540  Biso   1.000  H
  C47      1.0000 0.72310  0.60260  0.36010  Biso   1.000  C
  C48      1.0000 0.69880  0.59710  0.40040  Biso   1.000  C
  C49      1.0000 0.72580  0.64100  0.44990  Biso   1.000  C
  H35      1.0000 0.71160  0.63590  0.47790  Biso   1.000  H
  C50      1.0000 0.77090  0.68950  0.45860  Biso   1.000  C
  H36      1.0000 0.78700  0.72020  0.49170  Biso   1.000  H
  O9       1.0000 0.63710  0.43340  0.11910  Biso   1.000  O
  O10      1.0000 0.57560  0.38050  0.14760  Biso   1.000  O
  O11      1.0000 0.51880  0.42860  0.45860  Biso   1.000  O
  O12      1.0000 0.57320  0.53120  0.50310  Biso   1.000  O
  O13      1.0000 0.85730  0.80440  0.46810  Biso   1.000  O
  O14      1.0000 0.87050  0.74590  0.39800  Biso   1.000  O
  Tb2      1.0000 0.56294  0.35610  0.05294  Biso   1.000  Tb
  O15      1.0000 0.51720  0.30780  0.96480  Biso   1.000  O
  C51      1.0000 0.49760  0.33270  0.91200  Biso   1.000  C
  C52      1.0000 0.44650  0.38790  0.88950  Biso   1.000  C
  H37      1.0000 0.42550  0.37560  0.85060  Biso   1.000  H
  H38      1.0000 0.45870  0.44580  0.89380  Biso   1.000  H
  H39      1.0000 0.42210  0.37810  0.90940  Biso   1.000  H
  C53      1.0000 0.57380  0.25370  0.90390  Biso   1.000  C
  H40      1.0000 0.56340  0.21010  0.92380  Biso   1.000  H
  H41      1.0000 0.60510  0.28650  0.92970  Biso   1.000  H
  H42      1.0000 0.58560  0.22870  0.87650  Biso   1.000  H
  N3       1.0000 0.52330  0.30930  0.87560  Biso   1.000  N
  C54      1.0000 0.49420  0.34370  0.81850  Biso   1.000  C
  H43      1.0000 0.45310  0.34280  0.80790  Biso   1.000  H
  H44      1.0000 0.50400  0.30990  0.79290  Biso   1.000  H
  H45      1.0000 0.50670  0.40080  0.81760  Biso   1.000  H
  H46      1.0000 0.40990  0.75600  0.39550  Biso   1.000  H
  H47      1.0000 0.45560  0.82550  0.39890  Biso   1.000  H
  H48      1.0000 0.43180  0.76490  0.34720  Biso   1.000  H
  H49      1.0000 0.56480  0.61680  0.45450  Biso   1.000  H
  H50      1.0000 0.55320  0.53970  0.41370  Biso   1.000  H
  H51      1.0000 0.58160  0.62210  0.40270  Biso   1.000  H
  H52      1.0000 0.47220  0.61750  0.30300  Biso   1.000  H
  H53      1.0000 0.43640  0.68960  0.31580  Biso   1.000  H
  H54      1.0000 0.49420  0.71110  0.30930  Biso   1.000  H
  O16      1.0000 0.51350  0.70700  0.47080  Biso   1.000  O
  C55      1.0000 0.48960  0.70920  0.41550  Biso   1.000  C
  C56      1.0000 0.44260  0.76900  0.38680  Biso   1.000  C
  C57      1.0000 0.55390  0.60000  0.41600  Biso   1.000  C
  N4       1.0000 0.50640  0.65700  0.38170  Biso   1.000  N
  C58      1.0000 0.47460  0.67000  0.32240  Biso   1.000  C
  C59      1.0000 0.88210  0.92490  0.34410  Biso   1.000  C
  C60      1.0000 0.85480  0.97080  0.29120  Biso   1.000  C
  C61      1.0000 0.87640  0.96480  0.25090  Biso   1.000  C
  H55      1.0000 0.90880  0.93110  0.25730  Biso   1.000  H
  C62      1.0000 0.85120  0.00780  0.20040  Biso   1.000  C
  C63      1.0000 0.80450  0.05640  0.19100  Biso   1.000  C
  C64      1.0000 0.78260  0.06530  0.23300  Biso   1.000  C
  H56      1.0000 0.75220  0.10230  0.22820  Biso   1.000  H
  C65      1.0000 0.80670  0.01920  0.28010  Biso   1.000  C
  H57      1.0000 0.78970  0.02040  0.30610  Biso   1.000  H
  C66      1.0000 0.94570  0.98350  0.03600  Biso   1.000  C
  C67      1.0000 0.92140  0.98850  0.07930  Biso   1.000  C
  C68      1.0000 0.87490  0.03730  0.06990  Biso   1.000  C
  H58      1.0000 0.85860  0.06680  0.03630  Biso   1.000  H
  C69      1.0000 0.85050  0.04480  0.10970  Biso   1.000  C
  C70      1.0000 0.87640  0.00000  0.15970  Biso   1.000  C
  C71      1.0000 0.92330  0.95150  0.16730  Biso   1.000  C
  H59      1.0000 0.94110  0.92320  0.20110  Biso   1.000  H
  C72      1.0000 0.94570  0.94220  0.12750  Biso   1.000  C
  H60      1.0000 0.97650  0.90560  0.13300  Biso   1.000  H
  C73      1.0000 0.65540  0.25190  0.06980  Biso   1.000  C
  C74      1.0000 0.70540  0.19550  0.08050  Biso   1.000  C
  C75      1.0000 0.72990  0.15310  0.12800  Biso   1.000  C
  H61      1.0000 0.71400  0.15820  0.15460  Biso   1.000  H
  C76      1.0000 0.77690  0.10260  0.13990  Biso   1.000  C
  C77      1.0000 0.80120  0.09710  0.09960  Biso   1.000  C
  C78      1.0000 0.77420  0.14100  0.05010  Biso   1.000  C
  H62      1.0000 0.78840  0.13590  0.02210  Biso   1.000  H
  C79      1.0000 0.72910  0.18950  0.04140  Biso   1.000  C
  H63      1.0000 0.71300  0.22020  0.00830  Biso   1.000  H
  O17      1.0000 0.86290  0.93340  0.38090  Biso   1.000  O
  O18      1.0000 0.92440  0.88050  0.35240  Biso   1.000  O
  O19      1.0000 0.98120  0.92860  0.04140  Biso   1.000  O
  O20      1.0000 0.92680  0.03120  0.99690  Biso   1.000  O
  O21      1.0000 0.64270  0.30440  0.03190  Biso   1.000  O
  O22      1.0000 0.62950  0.24590  0.10200  Biso   1.000  O
  Tb3      1.0000 0.93706  0.85610  0.44706  Biso   1.000  Tb
  O23      1.0000 0.98280  0.80780  0.53520  Biso   1.000  O
  C80      1.0000 0.00240  0.83270  0.58800  Biso   1.000  C
  C81      1.0000 0.05350  0.88790  0.61050  Biso   1.000  C
  H64      1.0000 0.07450  0.87560  0.64940  Biso   1.000  H
  H65      1.0000 0.04130  0.94580  0.60620  Biso   1.000  H
  H66      1.0000 0.07790  0.87810  0.59060  Biso   1.000  H
  C82      1.0000 0.92620  0.75370  0.59610  Biso   1.000  C
  H67      1.0000 0.93660  0.71010  0.57620  Biso   1.000  H
  H68      1.0000 0.89490  0.78650  0.57030  Biso   1.000  H
  H69      1.0000 0.91440  0.72870  0.62350  Biso   1.000  H
  N5       1.0000 0.97670  0.80930  0.62440  Biso   1.000  N
  C83      1.0000 0.00580  0.84370  0.68150  Biso   1.000  C
  H70      1.0000 0.04690  0.84280  0.69210  Biso   1.000  H
  H71      1.0000 0.99600  0.80990  0.70710  Biso   1.000  H
  H72      1.0000 0.99330  0.90080  0.68240  Biso   1.000  H
  H73      1.0000 0.09010  0.25600  0.10450  Biso   1.000  H
  H74      1.0000 0.04440  0.32550  0.10110  Biso   1.000  H
  H75      1.0000 0.06820  0.26490  0.15280  Biso   1.000  H
  H76      1.0000 0.93520  0.11680  0.04550  Biso   1.000  H
  H77      1.0000 0.94680  0.03970  0.08630  Biso   1.000  H
  H78      1.0000 0.91840  0.12210  0.09730  Biso   1.000  H
  H79      1.0000 0.02780  0.11750  0.19700  Biso   1.000  H
  H80      1.0000 0.06360  0.18960  0.18420  Biso   1.000  H
  H81      1.0000 0.00580  0.21110  0.19070  Biso   1.000  H
  O24      1.0000 0.98650  0.20700  0.02920  Biso   1.000  O
  C84      1.0000 0.01040  0.20920  0.08450  Biso   1.000  C
  C85      1.0000 0.05740  0.26900  0.11320  Biso   1.000  C
  C86      1.0000 0.94610  0.10000  0.08400  Biso   1.000  C
  N6       1.0000 0.99360  0.15700  0.11830  Biso   1.000  N
  C87      1.0000 0.02540  0.17000  0.17760  Biso   1.000  C
  C88      1.0000 0.38210  0.42490  0.34410  Biso   1.000  C
  C89      1.0000 0.35480  0.47080  0.29120  Biso   1.000  C
  C90      1.0000 0.37640  0.46480  0.25090  Biso   1.000  C
  H82      1.0000 0.40880  0.43110  0.25730  Biso   1.000  H
  C91      1.0000 0.35120  0.50780  0.20040  Biso   1.000  C
  C92      1.0000 0.30450  0.55640  0.19100  Biso   1.000  C
  C93      1.0000 0.28260  0.56530  0.23300  Biso   1.000  C
  H83      1.0000 0.25220  0.60230  0.22820  Biso   1.000  H
  C94      1.0000 0.30670  0.51920  0.28010  Biso   1.000  C
  H84      1.0000 0.28970  0.52040  0.30610  Biso   1.000  H
  C95      1.0000 0.44570  0.48350  0.03600  Biso   1.000  C
  C96      1.0000 0.42140  0.48850  0.07930  Biso   1.000  C
  C97      1.0000 0.37490  0.53730  0.06990  Biso   1.000  C
  H85      1.0000 0.35860  0.56680  0.03630  Biso   1.000  H
  C98      1.0000 0.35050  0.54480  0.10970  Biso   1.000  C
  C99      1.0000 0.37640  0.50000  0.15970  Biso   1.000  C
  C100     1.0000 0.42330  0.45150  0.16730  Biso   1.000  C
  H86      1.0000 0.44110  0.42320  0.20110  Biso   1.000  H
  C101     1.0000 0.44570  0.44220  0.12750  Biso   1.000  C
  H87      1.0000 0.47650  0.40560  0.13300  Biso   1.000  H
  C102     1.0000 0.15540  0.75190  0.06980  Biso   1.000  C
  C103     1.0000 0.20540  0.69550  0.08050  Biso   1.000  C
  C104     1.0000 0.22990  0.65310  0.12800  Biso   1.000  C
  H88      1.0000 0.21400  0.65820  0.15460  Biso   1.000  H
  C105     1.0000 0.27690  0.60260  0.13990  Biso   1.000  C
  C106     1.0000 0.30120  0.59710  0.09960  Biso   1.000  C
  C107     1.0000 0.27420  0.64100  0.05010  Biso   1.000  C
  H89      1.0000 0.28840  0.63590  0.02210  Biso   1.000  H
  C108     1.0000 0.22910  0.68950  0.04140  Biso   1.000  C
  H90      1.0000 0.21300  0.72020  0.00830  Biso   1.000  H
  O25      1.0000 0.36290  0.43340  0.38090  Biso   1.000  O
  O26      1.0000 0.42440  0.38050  0.35240  Biso   1.000  O
  O27      1.0000 0.48120  0.42860  0.04140  Biso   1.000  O
  O28      1.0000 0.42680  0.53120  0.99690  Biso   1.000  O
  O29      1.0000 0.14270  0.80440  0.03190  Biso   1.000  O
  O30      1.0000 0.12950  0.74590  0.10200  Biso   1.000  O
  Tb4      1.0000 0.43706  0.35610  0.44706  Biso   1.000  Tb
  O31      1.0000 0.48280  0.30780  0.53520  Biso   1.000  O
  C109     1.0000 0.50240  0.33270  0.58800  Biso   1.000  C
  C110     1.0000 0.55350  0.38790  0.61050  Biso   1.000  C
  H91      1.0000 0.57450  0.37560  0.64940  Biso   1.000  H
  H92      1.0000 0.54130  0.44580  0.60620  Biso   1.000  H
  H93      1.0000 0.57790  0.37810  0.59060  Biso   1.000  H
  C111     1.0000 0.42620  0.25370  0.59610  Biso   1.000  C
  H94      1.0000 0.43660  0.21010  0.57620  Biso   1.000  H
  H95      1.0000 0.39490  0.28650  0.57030  Biso   1.000  H
  H96      1.0000 0.41440  0.22870  0.62350  Biso   1.000  H
  N7       1.0000 0.47670  0.30930  0.62440  Biso   1.000  N
  C112     1.0000 0.50580  0.34370  0.68150  Biso   1.000  C
  H97      1.0000 0.54690  0.34280  0.69210  Biso   1.000  H
  H98      1.0000 0.49600  0.30990  0.70710  Biso   1.000  H
  H99      1.0000 0.49330  0.40080  0.68240  Biso   1.000  H
  H100     1.0000 0.59010  0.75600  0.10450  Biso   1.000  H
  H101     1.0000 0.54440  0.82550  0.10110  Biso   1.000  H
  H102     1.0000 0.56820  0.76490  0.15280  Biso   1.000  H
  H103     1.0000 0.43520  0.61680  0.04550  Biso   1.000  H
  H104     1.0000 0.44680  0.53970  0.08630  Biso   1.000  H
  H105     1.0000 0.41840  0.62210  0.09730  Biso   1.000  H
  H106     1.0000 0.52780  0.61750  0.19700  Biso   1.000  H
  H107     1.0000 0.56360  0.68960  0.18420  Biso   1.000  H
  H108     1.0000 0.50580  0.71110  0.19070  Biso   1.000  H
  O32      1.0000 0.48650  0.70700  0.02920  Biso   1.000  O
  C113     1.0000 0.51040  0.70920  0.08450  Biso   1.000  C
  C114     1.0000 0.55740  0.76900  0.11320  Biso   1.000  C
  C115     1.0000 0.44610  0.60000  0.08400  Biso   1.000  C
  N8       1.0000 0.49360  0.65700  0.11830  Biso   1.000  N
  C116     1.0000 0.52540  0.67000  0.17760  Biso   1.000  C
  C117     1.0000 0.88210  0.07510  0.84410  Biso   1.000  C
  C118     1.0000 0.85480  0.02920  0.79120  Biso   1.000  C
  C119     1.0000 0.87640  0.03520  0.75090  Biso   1.000  C
  H109     1.0000 0.90880  0.06890  0.75730  Biso   1.000  H
  C120     1.0000 0.85120  0.99220  0.70040  Biso   1.000  C
  C121     1.0000 0.80450  0.94360  0.69100  Biso   1.000  C
  C122     1.0000 0.78260  0.93470  0.73300  Biso   1.000  C
  H110     1.0000 0.75220  0.89770  0.72820  Biso   1.000  H
  C123     1.0000 0.80670  0.98080  0.78010  Biso   1.000  C
  H111     1.0000 0.78970  0.97960  0.80610  Biso   1.000  H
  C124     1.0000 0.94570  0.01650  0.53600  Biso   1.000  C
  C125     1.0000 0.92140  0.01150  0.57930  Biso   1.000  C
  C126     1.0000 0.87490  0.96270  0.56990  Biso   1.000  C
  H112     1.0000 0.85860  0.93320  0.53630  Biso   1.000  H
  C127     1.0000 0.85050  0.95520  0.60970  Biso   1.000  C
  C128     1.0000 0.87640  0.00000  0.65970  Biso   1.000  C
  C129     1.0000 0.92330  0.04850  0.66730  Biso   1.000  C
  H113     1.0000 0.94110  0.07680  0.70110  Biso   1.000  H
  C130     1.0000 0.94570  0.05780  0.62750  Biso   1.000  C
  H114     1.0000 0.97650  0.09440  0.63300  Biso   1.000  H
  C131     1.0000 0.65540  0.74810  0.56980  Biso   1.000  C
  C132     1.0000 0.70540  0.80450  0.58050  Biso   1.000  C
  C133     1.0000 0.72990  0.84690  0.62800  Biso   1.000  C
  H115     1.0000 0.71400  0.84180  0.65460  Biso   1.000  H
  C134     1.0000 0.77690  0.89740  0.63990  Biso   1.000  C
  C135     1.0000 0.80120  0.90290  0.59960  Biso   1.000  C
  C136     1.0000 0.77420  0.85900  0.55010  Biso   1.000  C
  H116     1.0000 0.78840  0.86410  0.52210  Biso   1.000  H
  C137     1.0000 0.72910  0.81050  0.54140  Biso   1.000  C
  H117     1.0000 0.71300  0.77980  0.50830  Biso   1.000  H
  O33      1.0000 0.86290  0.06660  0.88090  Biso   1.000  O
  O34      1.0000 0.92440  0.11950  0.85240  Biso   1.000  O
  O35      1.0000 0.98120  0.07140  0.54140  Biso   1.000  O
  O36      1.0000 0.92680  0.96880  0.49690  Biso   1.000  O
  O37      1.0000 0.64270  0.69560  0.53190  Biso   1.000  O
  O38      1.0000 0.62950  0.75410  0.60200  Biso   1.000  O
  Tb5      1.0000 0.93706  0.14390  0.94706  Biso   1.000  Tb
  O39      1.0000 0.98280  0.19220  0.03520  Biso   1.000  O
  C138     1.0000 0.00240  0.16730  0.08800  Biso   1.000  C
  C139     1.0000 0.05350  0.11210  0.11050  Biso   1.000  C
  H118     1.0000 0.07450  0.12440  0.14940  Biso   1.000  H
  H119     1.0000 0.04130  0.05420  0.10620  Biso   1.000  H
  H120     1.0000 0.07790  0.12190  0.09060  Biso   1.000  H
  C140     1.0000 0.92620  0.24630  0.09610  Biso   1.000  C
  H121     1.0000 0.93660  0.28990  0.07620  Biso   1.000  H
  H122     1.0000 0.89490  0.21350  0.07030  Biso   1.000  H
  H123     1.0000 0.91440  0.27130  0.12350  Biso   1.000  H
  N9       1.0000 0.97670  0.19070  0.12440  Biso   1.000  N
  C141     1.0000 0.00580  0.15630  0.18150  Biso   1.000  C
  H124     1.0000 0.04690  0.15720  0.19210  Biso   1.000  H
  H125     1.0000 0.99600  0.19010  0.20710  Biso   1.000  H
  H126     1.0000 0.99330  0.09920  0.18240  Biso   1.000  H
  H127     1.0000 0.09010  0.74400  0.60450  Biso   1.000  H
  H128     1.0000 0.04440  0.67450  0.60110  Biso   1.000  H
  H129     1.0000 0.06820  0.73510  0.65280  Biso   1.000  H
  H130     1.0000 0.93520  0.88320  0.54550  Biso   1.000  H
  H131     1.0000 0.94680  0.96030  0.58630  Biso   1.000  H
  H132     1.0000 0.91840  0.87790  0.59730  Biso   1.000  H
  H133     1.0000 0.02780  0.88250  0.69700  Biso   1.000  H
  H134     1.0000 0.06360  0.81040  0.68420  Biso   1.000  H
  H135     1.0000 0.00580  0.78890  0.69070  Biso   1.000  H
  O40      1.0000 0.98650  0.79300  0.52920  Biso   1.000  O
  C142     1.0000 0.01040  0.79080  0.58450  Biso   1.000  C
  C143     1.0000 0.05740  0.73100  0.61320  Biso   1.000  C
  C144     1.0000 0.94610  0.90000  0.58400  Biso   1.000  C
  N10      1.0000 0.99360  0.84300  0.61830  Biso   1.000  N
  C145     1.0000 0.02540  0.83000  0.67760  Biso   1.000  C
  C146     1.0000 0.38210  0.57510  0.84410  Biso   1.000  C
  C147     1.0000 0.35480  0.52920  0.79120  Biso   1.000  C
  C148     1.0000 0.37640  0.53520  0.75090  Biso   1.000  C
  H136     1.0000 0.40880  0.56890  0.75730  Biso   1.000  H
  C149     1.0000 0.35120  0.49220  0.70040  Biso   1.000  C
  C150     1.0000 0.30450  0.44360  0.69100  Biso   1.000  C
  C151     1.0000 0.28260  0.43470  0.73300  Biso   1.000  C
  H137     1.0000 0.25220  0.39770  0.72820  Biso   1.000  H
  C152     1.0000 0.30670  0.48080  0.78010  Biso   1.000  C
  H138     1.0000 0.28970  0.47960  0.80610  Biso   1.000  H
  C153     1.0000 0.44570  0.51650  0.53600  Biso   1.000  C
  C154     1.0000 0.42140  0.51150  0.57930  Biso   1.000  C
  C155     1.0000 0.37490  0.46270  0.56990  Biso   1.000  C
  H139     1.0000 0.35860  0.43320  0.53630  Biso   1.000  H
  C156     1.0000 0.35050  0.45520  0.60970  Biso   1.000  C
  C157     1.0000 0.37640  0.50000  0.65970  Biso   1.000  C
  C158     1.0000 0.42330  0.54850  0.66730  Biso   1.000  C
  H140     1.0000 0.44110  0.57680  0.70110  Biso   1.000  H
  C159     1.0000 0.44570  0.55780  0.62750  Biso   1.000  C
  H141     1.0000 0.47650  0.59440  0.63300  Biso   1.000  H
  C160     1.0000 0.15540  0.24810  0.56980  Biso   1.000  C
  C161     1.0000 0.20540  0.30450  0.58050  Biso   1.000  C
  C162     1.0000 0.22990  0.34690  0.62800  Biso   1.000  C
  H142     1.0000 0.21400  0.34180  0.65460  Biso   1.000  H
  C163     1.0000 0.27690  0.39740  0.63990  Biso   1.000  C
  C164     1.0000 0.30120  0.40290  0.59960  Biso   1.000  C
  C165     1.0000 0.27420  0.35900  0.55010  Biso   1.000  C
  H143     1.0000 0.28840  0.36410  0.52210  Biso   1.000  H
  C166     1.0000 0.22910  0.31050  0.54140  Biso   1.000  C
  H144     1.0000 0.21300  0.27980  0.50830  Biso   1.000  H
  O41      1.0000 0.36290  0.56660  0.88090  Biso   1.000  O
  O42      1.0000 0.42440  0.61950  0.85240  Biso   1.000  O
  O43      1.0000 0.48120  0.57140  0.54140  Biso   1.000  O
  O44      1.0000 0.42680  0.46880  0.49690  Biso   1.000  O
  O45      1.0000 0.14270  0.19560  0.53190  Biso   1.000  O
  O46      1.0000 0.12950  0.25410  0.60200  Biso   1.000  O
  Tb6      1.0000 0.43706  0.64390  0.94706  Biso   1.000  Tb
  O47      1.0000 0.48280  0.69220  0.03520  Biso   1.000  O
  C167     1.0000 0.50240  0.66730  0.08800  Biso   1.000  C
  C168     1.0000 0.55350  0.61210  0.11050  Biso   1.000  C
  H145     1.0000 0.57450  0.62440  0.14940  Biso   1.000  H
  H146     1.0000 0.54130  0.55420  0.10620  Biso   1.000  H
  H147     1.0000 0.57790  0.62190  0.09060  Biso   1.000  H
  C169     1.0000 0.42620  0.74630  0.09610  Biso   1.000  C
  H148     1.0000 0.43660  0.78990  0.07620  Biso   1.000  H
  H149     1.0000 0.39490  0.71350  0.07030  Biso   1.000  H
  H150     1.0000 0.41440  0.77130  0.12350  Biso   1.000  H
  N11      1.0000 0.47670  0.69070  0.12440  Biso   1.000  N
  C170     1.0000 0.50580  0.65630  0.18150  Biso   1.000  C
  H151     1.0000 0.54690  0.65720  0.19210  Biso   1.000  H
  H152     1.0000 0.49600  0.69010  0.20710  Biso   1.000  H
  H153     1.0000 0.49330  0.59920  0.18240  Biso   1.000  H
  H154     1.0000 0.59010  0.24400  0.60450  Biso   1.000  H
  H155     1.0000 0.54440  0.17450  0.60110  Biso   1.000  H
  H156     1.0000 0.56820  0.23510  0.65280  Biso   1.000  H
  H157     1.0000 0.43520  0.38320  0.54550  Biso   1.000  H
  H158     1.0000 0.44680  0.46030  0.58630  Biso   1.000  H
  H159     1.0000 0.41840  0.37790  0.59730  Biso   1.000  H
  H160     1.0000 0.52780  0.38250  0.69700  Biso   1.000  H
  H161     1.0000 0.56360  0.31040  0.68420  Biso   1.000  H
  H162     1.0000 0.50580  0.28890  0.69070  Biso   1.000  H
  O48      1.0000 0.48650  0.29300  0.52920  Biso   1.000  O
  C171     1.0000 0.51040  0.29080  0.58450  Biso   1.000  C
  C172     1.0000 0.55740  0.23100  0.61320  Biso   1.000  C
  C173     1.0000 0.44610  0.40000  0.58400  Biso   1.000  C
  N12      1.0000 0.49360  0.34300  0.61830  Biso   1.000  N
  C174     1.0000 0.52540  0.33000  0.67760  Biso   1.000  C
  C175     1.0000 0.11790  0.07510  0.65590  Biso   1.000  C
  C176     1.0000 0.14520  0.02920  0.70880  Biso   1.000  C
  C177     1.0000 0.12360  0.03520  0.74910  Biso   1.000  C
  H163     1.0000 0.09120  0.06890  0.74270  Biso   1.000  H
  C178     1.0000 0.14880  0.99220  0.79960  Biso   1.000  C
  C179     1.0000 0.19550  0.94360  0.80900  Biso   1.000  C
  C180     1.0000 0.21740  0.93470  0.76700  Biso   1.000  C
  H164     1.0000 0.24780  0.89770  0.77180  Biso   1.000  H
  C181     1.0000 0.19330  0.98080  0.71990  Biso   1.000  C
  H165     1.0000 0.21030  0.97960  0.69390  Biso   1.000  H
  C182     1.0000 0.05430  0.01650  0.96400  Biso   1.000  C
  C183     1.0000 0.07860  0.01150  0.92070  Biso   1.000  C
  C184     1.0000 0.12510  0.96270  0.93010  Biso   1.000  C
  H166     1.0000 0.14140  0.93320  0.96370  Biso   1.000  H
  C185     1.0000 0.14950  0.95520  0.89030  Biso   1.000  C
  C186     1.0000 0.12360  0.00000  0.84030  Biso   1.000  C
  C187     1.0000 0.07670  0.04850  0.83270  Biso   1.000  C
  H167     1.0000 0.05890  0.07680  0.79890  Biso   1.000  H
  C188     1.0000 0.05430  0.05780  0.87250  Biso   1.000  C
  H168     1.0000 0.02350  0.09440  0.86700  Biso   1.000  H
  C189     1.0000 0.34460  0.74810  0.93020  Biso   1.000  C
  C190     1.0000 0.29460  0.80450  0.91950  Biso   1.000  C
  C191     1.0000 0.27010  0.84690  0.87200  Biso   1.000  C
  H169     1.0000 0.28600  0.84180  0.84540  Biso   1.000  H
  C192     1.0000 0.22310  0.89740  0.86010  Biso   1.000  C
  C193     1.0000 0.19880  0.90290  0.90040  Biso   1.000  C
  C194     1.0000 0.22580  0.85900  0.94990  Biso   1.000  C
  H170     1.0000 0.21160  0.86410  0.97790  Biso   1.000  H
  C195     1.0000 0.27090  0.81050  0.95860  Biso   1.000  C
  H171     1.0000 0.28700  0.77980  0.99170  Biso   1.000  H
  O49      1.0000 0.13710  0.06660  0.61910  Biso   1.000  O
  O50      1.0000 0.07560  0.11950  0.64760  Biso   1.000  O
  O51      1.0000 0.01880  0.07140  0.95860  Biso   1.000  O
  O52      1.0000 0.07320  0.96880  0.00310  Biso   1.000  O
  O53      1.0000 0.35730  0.69560  0.96810  Biso   1.000  O
  O54      1.0000 0.37050  0.75410  0.89800  Biso   1.000  O
  Tb7      1.0000 0.06294  0.14390  0.55294  Biso   1.000  Tb
  O55      1.0000 0.01720  0.19220  0.46480  Biso   1.000  O
  C196     1.0000 0.99760  0.16730  0.41200  Biso   1.000  C
  C197     1.0000 0.94650  0.11210  0.38950  Biso   1.000  C
  H172     1.0000 0.92550  0.12440  0.35060  Biso   1.000  H
  H173     1.0000 0.95870  0.05420  0.39380  Biso   1.000  H
  H174     1.0000 0.92210  0.12190  0.40940  Biso   1.000  H
  C198     1.0000 0.07380  0.24630  0.40390  Biso   1.000  C
  H175     1.0000 0.06340  0.28990  0.42380  Biso   1.000  H
  H176     1.0000 0.10510  0.21350  0.42970  Biso   1.000  H
  H177     1.0000 0.08560  0.27130  0.37650  Biso   1.000  H
  N13      1.0000 0.02330  0.19070  0.37560  Biso   1.000  N
  C199     1.0000 0.99420  0.15630  0.31850  Biso   1.000  C
  H178     1.0000 0.95310  0.15720  0.30790  Biso   1.000  H
  H179     1.0000 0.00400  0.19010  0.29290  Biso   1.000  H
  H180     1.0000 0.00670  0.09920  0.31760  Biso   1.000  H
  H181     1.0000 0.90990  0.74400  0.89550  Biso   1.000  H
  H182     1.0000 0.95560  0.67450  0.89890  Biso   1.000  H
  H183     1.0000 0.93180  0.73510  0.84720  Biso   1.000  H
  H184     1.0000 0.06480  0.88320  0.95450  Biso   1.000  H
  H185     1.0000 0.05320  0.96030  0.91370  Biso   1.000  H
  H186     1.0000 0.08160  0.87790  0.90270  Biso   1.000  H
  H187     1.0000 0.97220  0.88250  0.80300  Biso   1.000  H
  H188     1.0000 0.93640  0.81040  0.81580  Biso   1.000  H
  H189     1.0000 0.99420  0.78890  0.80930  Biso   1.000  H
  O56      1.0000 0.01350  0.79300  0.97080  Biso   1.000  O
  C200     1.0000 0.98960  0.79080  0.91550  Biso   1.000  C
  C201     1.0000 0.94260  0.73100  0.88680  Biso   1.000  C
  C202     1.0000 0.05390  0.90000  0.91600  Biso   1.000  C
  N14      1.0000 0.00640  0.84300  0.88170  Biso   1.000  N
  C203     1.0000 0.97460  0.83000  0.82240  Biso   1.000  C
  C204     1.0000 0.61790  0.57510  0.65590  Biso   1.000  C
  C205     1.0000 0.64520  0.52920  0.70880  Biso   1.000  C
  C206     1.0000 0.62360  0.53520  0.74910  Biso   1.000  C
  H190     1.0000 0.59120  0.56890  0.74270  Biso   1.000  H
  C207     1.0000 0.64880  0.49220  0.79960  Biso   1.000  C
  C208     1.0000 0.69550  0.44360  0.80900  Biso   1.000  C
  C209     1.0000 0.71740  0.43470  0.76700  Biso   1.000  C
  H191     1.0000 0.74780  0.39770  0.77180  Biso   1.000  H
  C210     1.0000 0.69330  0.48080  0.71990  Biso   1.000  C
  H192     1.0000 0.71030  0.47960  0.69390  Biso   1.000  H
  C211     1.0000 0.55430  0.51650  0.96400  Biso   1.000  C
  C212     1.0000 0.57860  0.51150  0.92070  Biso   1.000  C
  C213     1.0000 0.62510  0.46270  0.93010  Biso   1.000  C
  H193     1.0000 0.64140  0.43320  0.96370  Biso   1.000  H
  C214     1.0000 0.64950  0.45520  0.89030  Biso   1.000  C
  C215     1.0000 0.62360  0.50000  0.84030  Biso   1.000  C
  C216     1.0000 0.57670  0.54850  0.83270  Biso   1.000  C
  H194     1.0000 0.55890  0.57680  0.79890  Biso   1.000  H
  C217     1.0000 0.55430  0.55780  0.87250  Biso   1.000  C
  H195     1.0000 0.52350  0.59440  0.86700  Biso   1.000  H
  C218     1.0000 0.84460  0.24810  0.93020  Biso   1.000  C
  C219     1.0000 0.79460  0.30450  0.91950  Biso   1.000  C
  C220     1.0000 0.77010  0.34690  0.87200  Biso   1.000  C
  H196     1.0000 0.78600  0.34180  0.84540  Biso   1.000  H
  C221     1.0000 0.72310  0.39740  0.86010  Biso   1.000  C
  C222     1.0000 0.69880  0.40290  0.90040  Biso   1.000  C
  C223     1.0000 0.72580  0.35900  0.94990  Biso   1.000  C
  H197     1.0000 0.71160  0.36410  0.97790  Biso   1.000  H
  C224     1.0000 0.77090  0.31050  0.95860  Biso   1.000  C
  H198     1.0000 0.78700  0.27980  0.99170  Biso   1.000  H
  O57      1.0000 0.63710  0.56660  0.61910  Biso   1.000  O
  O58      1.0000 0.57560  0.61950  0.64760  Biso   1.000  O
  O59      1.0000 0.51880  0.57140  0.95860  Biso   1.000  O
  O60      1.0000 0.57320  0.46880  0.00310  Biso   1.000  O
  O61      1.0000 0.85730  0.19560  0.96810  Biso   1.000  O
  O62      1.0000 0.87050  0.25410  0.89800  Biso   1.000  O
  Tb8      1.0000 0.56294  0.64390  0.55294  Biso   1.000  Tb
  O63      1.0000 0.51720  0.69220  0.46480  Biso   1.000  O
  C225     1.0000 0.49760  0.66730  0.41200  Biso   1.000  C
  C226     1.0000 0.44650  0.61210  0.38950  Biso   1.000  C
  H199     1.0000 0.42550  0.62440  0.35060  Biso   1.000  H
  H200     1.0000 0.45870  0.55420  0.39380  Biso   1.000  H
  H201     1.0000 0.42210  0.62190  0.40940  Biso   1.000  H
  C227     1.0000 0.57380  0.74630  0.40390  Biso   1.000  C
  H202     1.0000 0.56340  0.78990  0.42380  Biso   1.000  H
  H203     1.0000 0.60510  0.71350  0.42970  Biso   1.000  H
  H204     1.0000 0.58560  0.77130  0.37650  Biso   1.000  H
  N15      1.0000 0.52330  0.69070  0.37560  Biso   1.000  N
  C228     1.0000 0.49420  0.65630  0.31850  Biso   1.000  C
  H205     1.0000 0.45310  0.65720  0.30790  Biso   1.000  H
  H206     1.0000 0.50400  0.69010  0.29290  Biso   1.000  H
  H207     1.0000 0.50670  0.59920  0.31760  Biso   1.000  H
  H208     1.0000 0.40990  0.24400  0.89550  Biso   1.000  H
  H209     1.0000 0.45560  0.17450  0.89890  Biso   1.000  H
  H210     1.0000 0.43180  0.23510  0.84720  Biso   1.000  H
  H211     1.0000 0.56480  0.38320  0.95450  Biso   1.000  H
  H212     1.0000 0.55320  0.46030  0.91370  Biso   1.000  H
  H213     1.0000 0.58160  0.37790  0.90270  Biso   1.000  H
  H214     1.0000 0.47220  0.38250  0.80300  Biso   1.000  H
  H215     1.0000 0.43640  0.31040  0.81580  Biso   1.000  H
  H216     1.0000 0.49420  0.28890  0.80930  Biso   1.000  H
  O64      1.0000 0.51350  0.29300  0.97080  Biso   1.000  O
  C229     1.0000 0.48960  0.29080  0.91550  Biso   1.000  C
  C230     1.0000 0.44260  0.23100  0.88680  Biso   1.000  C
  C231     1.0000 0.55390  0.40000  0.91600  Biso   1.000  C
  N16      1.0000 0.50640  0.34300  0.88170  Biso   1.000  N
  C232     1.0000 0.47460  0.33000  0.82240  Biso   1.000  C
