data_image0
_cell_length_a       18.8285
_cell_length_b       18.8285
_cell_length_c       18.8285
_cell_angle_alpha    90
_cell_angle_beta     90
_cell_angle_gamma    90

_symmetry_space_group_name_H-M    "P 1"
_symmetry_int_tables_number       1

loop_
  _symmetry_equiv_pos_as_xyz
  'x, y, z'

loop_
  _atom_site_label
  _atom_site_occupancy
  _atom_site_fract_x
  _atom_site_fract_y
  _atom_site_fract_z
  _atom_site_thermal_displace_type
  _atom_site_B_iso_or_equiv
  _atom_site_type_symbol
  N1       1.0000 0.07880  0.37020  0.41880  Biso   1.000  N
  N2       1.0000 0.13390  0.32630  0.40890  Biso   1.000  N
  N3       1.0000 0.92120  0.62980  0.41880  Biso   1.000  N
  N4       1.0000 0.86610  0.67370  0.40890  Biso   1.000  N
  N5       1.0000 0.92120  0.37020  0.58120  Biso   1.000  N
  N6       1.0000 0.86610  0.32630  0.59110  Biso   1.000  N
  N7       1.0000 0.07880  0.62980  0.58120  Biso   1.000  N
  N8       1.0000 0.13390  0.67370  0.59110  Biso   1.000  N
  N9       1.0000 0.41880  0.07880  0.37020  Biso   1.000  N
  N10      1.0000 0.40890  0.13390  0.32630  Biso   1.000  N
  N11      1.0000 0.41880  0.92120  0.62980  Biso   1.000  N
  N12      1.0000 0.40890  0.86610  0.67370  Biso   1.000  N
  N13      1.0000 0.58120  0.92120  0.37020  Biso   1.000  N
  N14      1.0000 0.59110  0.86610  0.32630  Biso   1.000  N
  N15      1.0000 0.58120  0.07880  0.62980  Biso   1.000  N
  N16      1.0000 0.59110  0.13390  0.67370  Biso   1.000  N
  N17      1.0000 0.37020  0.41880  0.07880  Biso   1.000  N
  N18      1.0000 0.32630  0.40890  0.13390  Biso   1.000  N
  N19      1.0000 0.62980  0.41880  0.92120  Biso   1.000  N
  N20      1.0000 0.67370  0.40890  0.86610  Biso   1.000  N
  N21      1.0000 0.37020  0.58120  0.92120  Biso   1.000  N
  N22      1.0000 0.32630  0.59110  0.86610  Biso   1.000  N
  N23      1.0000 0.62980  0.58120  0.07880  Biso   1.000  N
  N24      1.0000 0.67370  0.59110  0.13390  Biso   1.000  N
  N25      1.0000 0.37020  0.07880  0.58120  Biso   1.000  N
  N26      1.0000 0.32630  0.13390  0.59110  Biso   1.000  N
  N27      1.0000 0.62980  0.92120  0.58120  Biso   1.000  N
  N28      1.0000 0.67370  0.86610  0.59110  Biso   1.000  N
  N29      1.0000 0.37020  0.92120  0.41880  Biso   1.000  N
  N30      1.0000 0.32630  0.86610  0.40890  Biso   1.000  N
  N31      1.0000 0.62980  0.07880  0.41880  Biso   1.000  N
  N32      1.0000 0.67370  0.13390  0.40890  Biso   1.000  N
  N33      1.0000 0.07880  0.41880  0.62980  Biso   1.000  N
  N34      1.0000 0.13390  0.40890  0.67370  Biso   1.000  N
  N35      1.0000 0.92120  0.41880  0.37020  Biso   1.000  N
  N36      1.0000 0.86610  0.40890  0.32630  Biso   1.000  N
  N37      1.0000 0.92120  0.58120  0.62980  Biso   1.000  N
  N38      1.0000 0.86610  0.59110  0.67370  Biso   1.000  N
  N39      1.0000 0.07880  0.58120  0.37020  Biso   1.000  N
  N40      1.0000 0.13390  0.59110  0.32630  Biso   1.000  N
  N41      1.0000 0.41880  0.37020  0.92120  Biso   1.000  N
  N42      1.0000 0.40890  0.32630  0.86610  Biso   1.000  N
  N43      1.0000 0.41880  0.62980  0.07880  Biso   1.000  N
  N44      1.0000 0.40890  0.67370  0.13390  Biso   1.000  N
  N45      1.0000 0.58120  0.37020  0.07880  Biso   1.000  N
  N46      1.0000 0.59110  0.32630  0.13390  Biso   1.000  N
  N47      1.0000 0.58120  0.62980  0.92120  Biso   1.000  N
  N48      1.0000 0.59110  0.67370  0.86610  Biso   1.000  N
  N49      1.0000 0.92120  0.62980  0.58120  Biso   1.000  N
  N50      1.0000 0.86610  0.67370  0.59110  Biso   1.000  N
  N51      1.0000 0.07880  0.37020  0.58120  Biso   1.000  N
  N52      1.0000 0.13390  0.32630  0.59110  Biso   1.000  N
  N53      1.0000 0.07880  0.62980  0.41880  Biso   1.000  N
  N54      1.0000 0.13390  0.67370  0.40890  Biso   1.000  N
  N55      1.0000 0.92120  0.37020  0.41880  Biso   1.000  N
  N56      1.0000 0.86610  0.32630  0.40890  Biso   1.000  N
  N57      1.0000 0.58120  0.92120  0.62980  Biso   1.000  N
  N58      1.0000 0.59110  0.86610  0.67370  Biso   1.000  N
  N59      1.0000 0.58120  0.07880  0.37020  Biso   1.000  N
  N60      1.0000 0.59110  0.13390  0.32630  Biso   1.000  N
  N61      1.0000 0.41880  0.07880  0.62980  Biso   1.000  N
  N62      1.0000 0.40890  0.13390  0.67370  Biso   1.000  N
  N63      1.0000 0.41880  0.92120  0.37020  Biso   1.000  N
  N64      1.0000 0.40890  0.86610  0.32630  Biso   1.000  N
  N65      1.0000 0.62980  0.58120  0.92120  Biso   1.000  N
  N66      1.0000 0.67370  0.59110  0.86610  Biso   1.000  N
  N67      1.0000 0.37020  0.58120  0.07880  Biso   1.000  N
  N68      1.0000 0.32630  0.59110  0.13390  Biso   1.000  N
  N69      1.0000 0.62980  0.41880  0.07880  Biso   1.000  N
  N70      1.0000 0.67370  0.40890  0.13390  Biso   1.000  N
  N71      1.0000 0.37020  0.41880  0.92120  Biso   1.000  N
  N72      1.0000 0.32630  0.40890  0.86610  Biso   1.000  N
  N73      1.0000 0.62980  0.92120  0.41880  Biso   1.000  N
  N74      1.0000 0.67370  0.86610  0.40890  Biso   1.000  N
  N75      1.0000 0.37020  0.07880  0.41880  Biso   1.000  N
  N76      1.0000 0.32630  0.13390  0.40890  Biso   1.000  N
  N77      1.0000 0.62980  0.07880  0.58120  Biso   1.000  N
  N78      1.0000 0.67370  0.13390  0.59110  Biso   1.000  N
  N79      1.0000 0.37020  0.92120  0.58120  Biso   1.000  N
  N80      1.0000 0.32630  0.86610  0.59110  Biso   1.000  N
  N81      1.0000 0.92120  0.58120  0.37020  Biso   1.000  N
  N82      1.0000 0.86610  0.59110  0.32630  Biso   1.000  N
  N83      1.0000 0.07880  0.58120  0.62980  Biso   1.000  N
  N84      1.0000 0.13390  0.59110  0.67370  Biso   1.000  N
  N85      1.0000 0.07880  0.41880  0.37020  Biso   1.000  N
  N86      1.0000 0.13390  0.40890  0.32630  Biso   1.000  N
  N87      1.0000 0.92120  0.41880  0.62980  Biso   1.000  N
  N88      1.0000 0.86610  0.40890  0.67370  Biso   1.000  N
  N89      1.0000 0.58120  0.62980  0.07880  Biso   1.000  N
  N90      1.0000 0.59110  0.67370  0.13390  Biso   1.000  N
  N91      1.0000 0.58120  0.37020  0.92120  Biso   1.000  N
  N92      1.0000 0.59110  0.32630  0.86610  Biso   1.000  N
  N93      1.0000 0.41880  0.62980  0.92120  Biso   1.000  N
  N94      1.0000 0.40890  0.67370  0.86610  Biso   1.000  N
  N95      1.0000 0.41880  0.37020  0.07880  Biso   1.000  N
  N96      1.0000 0.40890  0.32630  0.13390  Biso   1.000  N
  Zn1      1.0000 0.00000  0.35900  0.50000  Biso   1.000  Zn
  O1       1.0000 0.00000  0.24840  0.50000  Biso   1.000  O
  Mn1      1.0000 0.00000  0.35800  0.50000  Biso   1.000  Mn
  Zn2      1.0000 0.00000  0.64100  0.50000  Biso   1.000  Zn
  O2       1.0000 0.00000  0.75160  0.50000  Biso   1.000  O
  Mn2      1.0000 0.00000  0.64200  0.50000  Biso   1.000  Mn
  Zn3      1.0000 0.50000  0.00000  0.35900  Biso   1.000  Zn
  O3       1.0000 0.50000  0.00000  0.24840  Biso   1.000  O
  Mn3      1.0000 0.50000  0.00000  0.35800  Biso   1.000  Mn
  Zn4      1.0000 0.50000  0.00000  0.64100  Biso   1.000  Zn
  O4       1.0000 0.50000  0.00000  0.75160  Biso   1.000  O
  Mn4      1.0000 0.50000  0.00000  0.64200  Biso   1.000  Mn
  Zn5      1.0000 0.35900  0.50000  0.00000  Biso   1.000  Zn
  O5       1.0000 0.24840  0.50000  0.00000  Biso   1.000  O
  Mn5      1.0000 0.35800  0.50000  0.00000  Biso   1.000  Mn
  Zn6      1.0000 0.64100  0.50000  0.00000  Biso   1.000  Zn
  O6       1.0000 0.75160  0.50000  0.00000  Biso   1.000  O
  Mn6      1.0000 0.64200  0.50000  0.00000  Biso   1.000  Mn
  Zn7      1.0000 0.35900  0.00000  0.50000  Biso   1.000  Zn
  O7       1.0000 0.24840  0.00000  0.50000  Biso   1.000  O
  Mn7      1.0000 0.35800  0.00000  0.50000  Biso   1.000  Mn
  Zn8      1.0000 0.64100  0.00000  0.50000  Biso   1.000  Zn
  O8       1.0000 0.75160  0.00000  0.50000  Biso   1.000  O
  Mn8      1.0000 0.64200  0.00000  0.50000  Biso   1.000  Mn
  Zn9      1.0000 0.00000  0.50000  0.64100  Biso   1.000  Zn
  O9       1.0000 0.00000  0.50000  0.75160  Biso   1.000  O
  Mn9      1.0000 0.00000  0.50000  0.64200  Biso   1.000  Mn
  Zn10     1.0000 0.00000  0.50000  0.35900  Biso   1.000  Zn
  O10      1.0000 0.00000  0.50000  0.24840  Biso   1.000  O
  Mn10     1.0000 0.00000  0.50000  0.35800  Biso   1.000  Mn
  Zn11     1.0000 0.50000  0.35900  0.00000  Biso   1.000  Zn
  O11      1.0000 0.50000  0.24840  0.00000  Biso   1.000  O
  Mn11     1.0000 0.50000  0.35800  0.00000  Biso   1.000  Mn
  Zn12     1.0000 0.50000  0.64100  0.00000  Biso   1.000  Zn
  O12      1.0000 0.50000  0.75160  0.00000  Biso   1.000  O
  Mn12     1.0000 0.50000  0.64200  0.00000  Biso   1.000  Mn
  Cl1      1.0000 0.00000  0.50000  0.50000  Biso   1.000  Cl
  Cl2      1.0000 0.50000  0.00000  0.50000  Biso   1.000  Cl
  Cl3      1.0000 0.50000  0.50000  0.00000  Biso   1.000  Cl
  C1       1.0000 0.16660  0.35110  0.35110  Biso   1.000  C
  C2       1.0000 0.23020  0.32060  0.32060  Biso   1.000  C
  C3       1.0000 0.83340  0.64890  0.35110  Biso   1.000  C
  C4       1.0000 0.76980  0.67940  0.32060  Biso   1.000  C
  C5       1.0000 0.83340  0.35110  0.64890  Biso   1.000  C
  C6       1.0000 0.76980  0.32060  0.67940  Biso   1.000  C
  C7       1.0000 0.16660  0.64890  0.64890  Biso   1.000  C
  C8       1.0000 0.23020  0.67940  0.67940  Biso   1.000  C
  C9       1.0000 0.35110  0.16660  0.35110  Biso   1.000  C
  C10      1.0000 0.32060  0.23020  0.32060  Biso   1.000  C
  C11      1.0000 0.35110  0.83340  0.64890  Biso   1.000  C
  C12      1.0000 0.32060  0.76980  0.67940  Biso   1.000  C
  C13      1.0000 0.64890  0.83340  0.35110  Biso   1.000  C
  C14      1.0000 0.67940  0.76980  0.32060  Biso   1.000  C
  C15      1.0000 0.64890  0.16660  0.64890  Biso   1.000  C
  C16      1.0000 0.67940  0.23020  0.67940  Biso   1.000  C
  C17      1.0000 0.35110  0.35110  0.16660  Biso   1.000  C
  C18      1.0000 0.32060  0.32060  0.23020  Biso   1.000  C
  C19      1.0000 0.64890  0.35110  0.83340  Biso   1.000  C
  C20      1.0000 0.67940  0.32060  0.76980  Biso   1.000  C
  C21      1.0000 0.35110  0.64890  0.83340  Biso   1.000  C
  C22      1.0000 0.32060  0.67940  0.76980  Biso   1.000  C
  C23      1.0000 0.64890  0.64890  0.16660  Biso   1.000  C
  C24      1.0000 0.67940  0.67940  0.23020  Biso   1.000  C
  C25      1.0000 0.35110  0.16660  0.64890  Biso   1.000  C
  C26      1.0000 0.32060  0.23020  0.67940  Biso   1.000  C
  C27      1.0000 0.64890  0.83340  0.64890  Biso   1.000  C
  C28      1.0000 0.67940  0.76980  0.67940  Biso   1.000  C
  C29      1.0000 0.35110  0.83340  0.35110  Biso   1.000  C
  C30      1.0000 0.32060  0.76980  0.32060  Biso   1.000  C
  C31      1.0000 0.64890  0.16660  0.35110  Biso   1.000  C
  C32      1.0000 0.67940  0.23020  0.32060  Biso   1.000  C
  C33      1.0000 0.16660  0.35110  0.64890  Biso   1.000  C
  C34      1.0000 0.23020  0.32060  0.67940  Biso   1.000  C
  C35      1.0000 0.83340  0.35110  0.35110  Biso   1.000  C
  C36      1.0000 0.76980  0.32060  0.32060  Biso   1.000  C
  C37      1.0000 0.83340  0.64890  0.64890  Biso   1.000  C
  C38      1.0000 0.76980  0.67940  0.67940  Biso   1.000  C
  C39      1.0000 0.16660  0.64890  0.35110  Biso   1.000  C
  C40      1.0000 0.23020  0.67940  0.32060  Biso   1.000  C
  C41      1.0000 0.35110  0.35110  0.83340  Biso   1.000  C
  C42      1.0000 0.32060  0.32060  0.76980  Biso   1.000  C
  C43      1.0000 0.35110  0.64890  0.16660  Biso   1.000  C
  C44      1.0000 0.32060  0.67940  0.23020  Biso   1.000  C
  C45      1.0000 0.64890  0.35110  0.16660  Biso   1.000  C
  C46      1.0000 0.67940  0.32060  0.23020  Biso   1.000  C
  C47      1.0000 0.64890  0.64890  0.83340  Biso   1.000  C
  C48      1.0000 0.67940  0.67940  0.76980  Biso   1.000  C
  C49      1.0000 0.26050  0.35000  0.26050  Biso   1.000  C
  H1       1.0000 0.24010  0.39010  0.24010  Biso   1.000  H
  C50      1.0000 0.73950  0.65000  0.26050  Biso   1.000  C
  H2       1.0000 0.75990  0.60990  0.24010  Biso   1.000  H
  C51      1.0000 0.73950  0.35000  0.73950  Biso   1.000  C
  H3       1.0000 0.75990  0.39010  0.75990  Biso   1.000  H
  C52      1.0000 0.26050  0.65000  0.73950  Biso   1.000  C
  H4       1.0000 0.24010  0.60990  0.75990  Biso   1.000  H
  C53      1.0000 0.26050  0.26050  0.35000  Biso   1.000  C
  H5       1.0000 0.24010  0.24010  0.39010  Biso   1.000  H
  C54      1.0000 0.26050  0.73950  0.65000  Biso   1.000  C
  H6       1.0000 0.24010  0.75990  0.60990  Biso   1.000  H
  C55      1.0000 0.73950  0.73950  0.35000  Biso   1.000  C
  H7       1.0000 0.75990  0.75990  0.39010  Biso   1.000  H
  C56      1.0000 0.73950  0.26050  0.65000  Biso   1.000  C
  H8       1.0000 0.75990  0.24010  0.60990  Biso   1.000  H
  C57      1.0000 0.35000  0.26050  0.26050  Biso   1.000  C
  H9       1.0000 0.39010  0.24010  0.24010  Biso   1.000  H
  C58      1.0000 0.65000  0.26050  0.73950  Biso   1.000  C
  H10      1.0000 0.60990  0.24010  0.75990  Biso   1.000  H
  C59      1.0000 0.35000  0.73950  0.73950  Biso   1.000  C
  H11      1.0000 0.39010  0.75990  0.75990  Biso   1.000  H
  C60      1.0000 0.65000  0.73950  0.26050  Biso   1.000  C
  H12      1.0000 0.60990  0.75990  0.24010  Biso   1.000  H
  C61      1.0000 0.35000  0.26050  0.73950  Biso   1.000  C
  H13      1.0000 0.39010  0.24010  0.75990  Biso   1.000  H
  C62      1.0000 0.65000  0.73950  0.73950  Biso   1.000  C
  H14      1.0000 0.60990  0.75990  0.75990  Biso   1.000  H
  C63      1.0000 0.35000  0.73950  0.26050  Biso   1.000  C
  H15      1.0000 0.39010  0.75990  0.24010  Biso   1.000  H
  C64      1.0000 0.65000  0.26050  0.26050  Biso   1.000  C
  H16      1.0000 0.60990  0.24010  0.24010  Biso   1.000  H
  C65      1.0000 0.26050  0.26050  0.65000  Biso   1.000  C
  H17      1.0000 0.24010  0.24010  0.60990  Biso   1.000  H
  C66      1.0000 0.73950  0.26050  0.35000  Biso   1.000  C
  H18      1.0000 0.75990  0.24010  0.39010  Biso   1.000  H
  C67      1.0000 0.73950  0.73950  0.65000  Biso   1.000  C
  H19      1.0000 0.75990  0.75990  0.60990  Biso   1.000  H
  C68      1.0000 0.26050  0.73950  0.35000  Biso   1.000  C
  H20      1.0000 0.24010  0.75990  0.39010  Biso   1.000  H
  C69      1.0000 0.26050  0.35000  0.73950  Biso   1.000  C
  H21      1.0000 0.24010  0.39010  0.75990  Biso   1.000  H
  C70      1.0000 0.26050  0.65000  0.26050  Biso   1.000  C
  H22      1.0000 0.24010  0.60990  0.24010  Biso   1.000  H
  C71      1.0000 0.73950  0.35000  0.26050  Biso   1.000  C
  H23      1.0000 0.75990  0.39010  0.24010  Biso   1.000  H
  C72      1.0000 0.73950  0.65000  0.73950  Biso   1.000  C
  H24      1.0000 0.75990  0.60990  0.75990  Biso   1.000  H
  Zn13     1.0000 0.12720  0.26240  0.50000  Biso   1.000  Zn
  Zn14     1.0000 0.87280  0.73760  0.50000  Biso   1.000  Zn
  Zn15     1.0000 0.87280  0.26240  0.50000  Biso   1.000  Zn
  Zn16     1.0000 0.12720  0.73760  0.50000  Biso   1.000  Zn
  Zn17     1.0000 0.50000  0.12720  0.26240  Biso   1.000  Zn
  Zn18     1.0000 0.50000  0.87280  0.73760  Biso   1.000  Zn
  Zn19     1.0000 0.50000  0.87280  0.26240  Biso   1.000  Zn
  Zn20     1.0000 0.50000  0.12720  0.73760  Biso   1.000  Zn
  Zn21     1.0000 0.26240  0.50000  0.12720  Biso   1.000  Zn
  Zn22     1.0000 0.73760  0.50000  0.87280  Biso   1.000  Zn
  Zn23     1.0000 0.26240  0.50000  0.87280  Biso   1.000  Zn
  Zn24     1.0000 0.73760  0.50000  0.12720  Biso   1.000  Zn
  Zn25     1.0000 0.26240  0.12720  0.50000  Biso   1.000  Zn
  Zn26     1.0000 0.73760  0.87280  0.50000  Biso   1.000  Zn
  Zn27     1.0000 0.26240  0.87280  0.50000  Biso   1.000  Zn
  Zn28     1.0000 0.73760  0.12720  0.50000  Biso   1.000  Zn
  Zn29     1.0000 0.12720  0.50000  0.73760  Biso   1.000  Zn
  Zn30     1.0000 0.87280  0.50000  0.26240  Biso   1.000  Zn
  Zn31     1.0000 0.87280  0.50000  0.73760  Biso   1.000  Zn
  Zn32     1.0000 0.12720  0.50000  0.26240  Biso   1.000  Zn
  Zn33     1.0000 0.50000  0.26240  0.87280  Biso   1.000  Zn
  Zn34     1.0000 0.50000  0.73760  0.12720  Biso   1.000  Zn
  Zn35     1.0000 0.50000  0.26240  0.12720  Biso   1.000  Zn
  Zn36     1.0000 0.50000  0.73760  0.87280  Biso   1.000  Zn
