data_image0
_cell_length_a       10.996
_cell_length_b       14.0189
_cell_length_c       14.0271
_cell_angle_alpha    61.9
_cell_angle_beta     80.585
_cell_angle_gamma    85.441

_symmetry_space_group_name_H-M    "P 1"
_symmetry_int_tables_number       1

loop_
  _symmetry_equiv_pos_as_xyz
  'x, y, z'

loop_
  _atom_site_label
  _atom_site_occupancy
  _atom_site_fract_x
  _atom_site_fract_y
  _atom_site_fract_z
  _atom_site_thermal_displace_type
  _atom_site_B_iso_or_equiv
  _atom_site_type_symbol
  Cd1      1.0000 0.25080  0.47396  0.27573  Biso   1.000  Cd
  N1       1.0000 0.33610  0.45500  0.58890  Biso   1.000  N
  N2       1.0000 0.29550  0.48880  0.42770  Biso   1.000  N
  N3       1.0000 0.16850  0.49540  0.95990  Biso   1.000  N
  N4       1.0000 0.20870  0.45790  0.12270  Biso   1.000  N
  N5       1.0000 0.01720  0.18460  0.51100  Biso   1.000  N
  N6       1.0000 0.10570  0.33870  0.39060  Biso   1.000  N
  N7       1.0000 0.53860  0.20800  0.36040  Biso   1.000  N
  N8       1.0000 0.40500  0.34050  0.30020  Biso   1.000  N
  N9       1.0000 0.99130  0.75810  0.17570  Biso   1.000  N
  N10      1.0000 0.09800  0.60920  0.25180  Biso   1.000  N
  N11      1.0000 0.46640  0.77660  0.04720  Biso   1.000  N
  N12      1.0000 0.38530  0.61540  0.14830  Biso   1.000  N
  C1       1.0000 0.29600  0.41510  0.53000  Biso   1.000  C
  H1       1.0000 0.27140  0.34380  0.55790  Biso   1.000  H
  C2       1.0000 0.33670  0.58110  0.42180  Biso   1.000  C
  H2       1.0000 0.34520  0.64780  0.35940  Biso   1.000  H
  C3       1.0000 0.36320  0.56130  0.51990  Biso   1.000  C
  H3       1.0000 0.39380  0.61030  0.53730  Biso   1.000  H
  C4       1.0000 0.21560  0.53190  0.01880  Biso   1.000  C
  H4       1.0000 0.24890  0.60050  0.99040  Biso   1.000  H
  C5       1.0000 0.15400  0.37000  0.12830  Biso   1.000  C
  H5       1.0000 0.13680  0.30470  0.19130  Biso   1.000  H
  C6       1.0000 0.12960  0.39240  0.02980  Biso   1.000  C
  H6       1.0000 0.09290  0.34640  0.01210  Biso   1.000  H
  C7       1.0000 0.34940  0.39510  0.70570  Biso   1.000  C
  H7       1.0000 0.42930  0.41130  0.71520  Biso   1.000  H
  H8       1.0000 0.34720  0.31820  0.72870  Biso   1.000  H
  C8       1.0000 0.25060  0.42140  0.77850  Biso   1.000  C
  H9       1.0000 0.25470  0.36800  0.85370  Biso   1.000  H
  H10      1.0000 0.17080  0.41420  0.76160  Biso   1.000  H
  C9       1.0000 0.25830  0.53300  0.76940  Biso   1.000  C
  H11      1.0000 0.33790  0.54020  0.78660  Biso   1.000  H
  H12      1.0000 0.25430  0.58640  0.69420  Biso   1.000  H
  C10      1.0000 0.15870  0.55830  0.84240  Biso   1.000  C
  H13      1.0000 0.16220  0.63470  0.82140  Biso   1.000  H
  H14      1.0000 0.07900  0.54430  0.83050  Biso   1.000  H
  C11      1.0000 0.12220  0.23490  0.45350  Biso   1.000  C
  H15      1.0000 0.19850  0.20060  0.45730  Biso   1.000  H
  C12      1.0000 0.98060  0.35330  0.41090  Biso   1.000  C
  H16      1.0000 0.93980  0.41910  0.37880  Biso   1.000  H
  C13      1.0000 0.92610  0.25910  0.48370  Biso   1.000  C
  H17      1.0000 0.84240  0.24740  0.51000  Biso   1.000  H
  C14      1.0000 0.00200  0.06940  0.59130  Biso   1.000  C
  H18      1.0000 0.94290  0.06300  0.65350  Biso   1.000  H
  H19      1.0000 0.08020  0.04090  0.61710  Biso   1.000  H
  C15      1.0000 0.95850  0.00220  0.54480  Biso   1.000  C
  H20      1.0000 0.94430  0.92900  0.60310  Biso   1.000  H
  H21      1.0000 0.88000  0.03090  0.51980  Biso   1.000  H
  C16      1.0000 0.46000  0.27360  0.38460  Biso   1.000  C
  H22      1.0000 0.44570  0.27230  0.45240  Biso   1.000  H
  C17      1.0000 0.45330  0.31560  0.21830  Biso   1.000  C
  H23      1.0000 0.43270  0.35000  0.14790  Biso   1.000  H
  C18      1.0000 0.53510  0.23400  0.25420  Biso   1.000  C
  H24      1.0000 0.58010  0.20190  0.21470  Biso   1.000  H
  C19      1.0000 0.61320  0.12160  0.43530  Biso   1.000  C
  H25      1.0000 0.61320  0.13070  0.49960  Biso   1.000  H
  H26      1.0000 0.69770  0.12760  0.39960  Biso   1.000  H
  C20      1.0000 0.56450  0.00990  0.46970  Biso   1.000  C
  H27      1.0000 0.56650  0.00080  0.40510  Biso   1.000  H
  H28      1.0000 0.61890  0.95600  0.51580  Biso   1.000  H
  C21      1.0000 0.06510  0.68480  0.15990  Biso   1.000  C
  H29      1.0000 0.09000  0.68710  0.09220  Biso   1.000  H
  C22      1.0000 0.04200  0.63540  0.33120  Biso   1.000  C
  H30      1.0000 0.04860  0.59660  0.40520  Biso   1.000  H
  C23      1.0000 0.97550  0.72680  0.28410  Biso   1.000  C
  H31      1.0000 0.92780  0.76180  0.31950  Biso   1.000  H
  C24      1.0000 0.94010  0.85510  0.09030  Biso   1.000  C
  H32      1.0000 0.86140  0.87310  0.12080  Biso   1.000  H
  H33      1.0000 0.92610  0.84020  0.03210  Biso   1.000  H
  C25      1.0000 0.02650  0.95000  0.04420  Biso   1.000  C
  H34      1.0000 0.10520  0.93200  0.01370  Biso   1.000  H
  H35      1.0000 0.04040  0.96490  0.10230  Biso   1.000  H
  C26      1.0000 0.37630  0.71730  0.12580  Biso   1.000  C
  H36      1.0000 0.31500  0.74520  0.15990  Biso   1.000  H
  C27      1.0000 0.48650  0.61020  0.07920  Biso   1.000  C
  H37      1.0000 0.51550  0.54770  0.07550  Biso   1.000  H
  C28      1.0000 0.53760  0.70830  0.01790  Biso   1.000  C
  H38      1.0000 0.60770  0.72600  0.96580  Biso   1.000  H
  C29      1.0000 0.49160  0.89230  0.00170  Biso   1.000  C
  H39      1.0000 0.52440  0.92000  0.92500  Biso   1.000  H
  H40      1.0000 0.41410  0.92910  0.00630  Biso   1.000  H
  C30      1.0000 0.57550  0.91930  0.05380  Biso   1.000  C
  H41      1.0000 0.64890  0.87480  0.05920  Biso   1.000  H
  H42      1.0000 0.53720  0.90180  0.12750  Biso   1.000  H
  C31      1.0000 0.61360  0.03730  0.99470  Biso   1.000  C
  H43      1.0000 0.67830  0.04760  0.02840  Biso   1.000  H
  H44      1.0000 0.64620  0.05710  0.91920  Biso   1.000  H
  Cd2      1.0000 0.74920  0.52604  0.72427  Biso   1.000  Cd
  N13      1.0000 0.66390  0.54500  0.41110  Biso   1.000  N
  N14      1.0000 0.70450  0.51120  0.57230  Biso   1.000  N
  N15      1.0000 0.83150  0.50460  0.04010  Biso   1.000  N
  N16      1.0000 0.79130  0.54210  0.87730  Biso   1.000  N
  N17      1.0000 0.98280  0.81540  0.48900  Biso   1.000  N
  N18      1.0000 0.89430  0.66130  0.60940  Biso   1.000  N
  N19      1.0000 0.46140  0.79200  0.63960  Biso   1.000  N
  N20      1.0000 0.59500  0.65950  0.69980  Biso   1.000  N
  N21      1.0000 0.00870  0.24190  0.82430  Biso   1.000  N
  N22      1.0000 0.90200  0.39080  0.74820  Biso   1.000  N
  N23      1.0000 0.53360  0.22340  0.95280  Biso   1.000  N
  N24      1.0000 0.61470  0.38460  0.85170  Biso   1.000  N
  C32      1.0000 0.70400  0.58490  0.47000  Biso   1.000  C
  H45      1.0000 0.72860  0.65620  0.44210  Biso   1.000  H
  C33      1.0000 0.66330  0.41890  0.57820  Biso   1.000  C
  H46      1.0000 0.65480  0.35220  0.64060  Biso   1.000  H
  C34      1.0000 0.63680  0.43870  0.48010  Biso   1.000  C
  H47      1.0000 0.60620  0.38970  0.46270  Biso   1.000  H
  C35      1.0000 0.78440  0.46810  0.98120  Biso   1.000  C
  H48      1.0000 0.75110  0.39950  0.00960  Biso   1.000  H
  C36      1.0000 0.84600  0.63000  0.87170  Biso   1.000  C
  H49      1.0000 0.86320  0.69530  0.80870  Biso   1.000  H
  C37      1.0000 0.87040  0.60760  0.97020  Biso   1.000  C
  H50      1.0000 0.90710  0.65360  0.98790  Biso   1.000  H
  C38      1.0000 0.65060  0.60490  0.29430  Biso   1.000  C
  H51      1.0000 0.57070  0.58870  0.28480  Biso   1.000  H
  H52      1.0000 0.65280  0.68180  0.27130  Biso   1.000  H
  C39      1.0000 0.74940  0.57860  0.22150  Biso   1.000  C
  H53      1.0000 0.74530  0.63200  0.14630  Biso   1.000  H
  H54      1.0000 0.82920  0.58580  0.23840  Biso   1.000  H
  C40      1.0000 0.74170  0.46700  0.23060  Biso   1.000  C
  H55      1.0000 0.66210  0.45980  0.21340  Biso   1.000  H
  H56      1.0000 0.74570  0.41360  0.30580  Biso   1.000  H
  C41      1.0000 0.84130  0.44170  0.15760  Biso   1.000  C
  H57      1.0000 0.83780  0.36530  0.17860  Biso   1.000  H
  H58      1.0000 0.92100  0.45570  0.16950  Biso   1.000  H
  C42      1.0000 0.87780  0.76510  0.54650  Biso   1.000  C
  H59      1.0000 0.80150  0.79940  0.54270  Biso   1.000  H
  C43      1.0000 0.01940  0.64670  0.58910  Biso   1.000  C
  H60      1.0000 0.06020  0.58090  0.62120  Biso   1.000  H
  C44      1.0000 0.07390  0.74090  0.51630  Biso   1.000  C
  H61      1.0000 0.15760  0.75260  0.49000  Biso   1.000  H
  C45      1.0000 0.99800  0.93060  0.40870  Biso   1.000  C
  H62      1.0000 0.05710  0.93700  0.34650  Biso   1.000  H
  H63      1.0000 0.91980  0.95910  0.38290  Biso   1.000  H
  C46      1.0000 0.04150  0.99780  0.45520  Biso   1.000  C
  H64      1.0000 0.05570  0.07100  0.39690  Biso   1.000  H
  H65      1.0000 0.12000  0.96910  0.48020  Biso   1.000  H
  C47      1.0000 0.54000  0.72640  0.61540  Biso   1.000  C
  H66      1.0000 0.55430  0.72770  0.54760  Biso   1.000  H
  C48      1.0000 0.54670  0.68440  0.78170  Biso   1.000  C
  H67      1.0000 0.56730  0.65000  0.85210  Biso   1.000  H
  C49      1.0000 0.46490  0.76600  0.74580  Biso   1.000  C
  H68      1.0000 0.41990  0.79810  0.78530  Biso   1.000  H
  C50      1.0000 0.38680  0.87840  0.56470  Biso   1.000  C
  H69      1.0000 0.38680  0.86930  0.50040  Biso   1.000  H
  H70      1.0000 0.30230  0.87240  0.60040  Biso   1.000  H
  C51      1.0000 0.43550  0.99010  0.53030  Biso   1.000  C
  H71      1.0000 0.43350  0.99920  0.59490  Biso   1.000  H
  H72      1.0000 0.38110  0.04400  0.48420  Biso   1.000  H
  C52      1.0000 0.93490  0.31520  0.84010  Biso   1.000  C
  H73      1.0000 0.91000  0.31290  0.90780  Biso   1.000  H
  C53      1.0000 0.95800  0.36460  0.66880  Biso   1.000  C
  H74      1.0000 0.95140  0.40340  0.59480  Biso   1.000  H
  C54      1.0000 0.02450  0.27320  0.71590  Biso   1.000  C
  H75      1.0000 0.07220  0.23820  0.68050  Biso   1.000  H
  C55      1.0000 0.05990  0.14490  0.90970  Biso   1.000  C
  H76      1.0000 0.13860  0.12690  0.87920  Biso   1.000  H
  H77      1.0000 0.07390  0.15980  0.96790  Biso   1.000  H
  C56      1.0000 0.97350  0.05000  0.95580  Biso   1.000  C
  H78      1.0000 0.89480  0.06800  0.98630  Biso   1.000  H
  H79      1.0000 0.95960  0.03510  0.89770  Biso   1.000  H
  C57      1.0000 0.62370  0.28270  0.87420  Biso   1.000  C
  H80      1.0000 0.68500  0.25480  0.84010  Biso   1.000  H
  C58      1.0000 0.51350  0.38980  0.92080  Biso   1.000  C
  H81      1.0000 0.48450  0.45230  0.92450  Biso   1.000  H
  C59      1.0000 0.46240  0.29170  0.98210  Biso   1.000  C
  H82      1.0000 0.39230  0.27400  0.03420  Biso   1.000  H
  C60      1.0000 0.50840  0.10770  0.99830  Biso   1.000  C
  H83      1.0000 0.47560  0.08000  0.07500  Biso   1.000  H
  H84      1.0000 0.58590  0.07090  0.99370  Biso   1.000  H
  C61      1.0000 0.42450  0.08070  0.94620  Biso   1.000  C
  H85      1.0000 0.35110  0.12520  0.94080  Biso   1.000  H
  H86      1.0000 0.46280  0.09820  0.87250  Biso   1.000  H
  C62      1.0000 0.38640  0.96270  0.00530  Biso   1.000  C
  H87      1.0000 0.32170  0.95240  0.97160  Biso   1.000  H
  H88      1.0000 0.35380  0.94290  0.08080  Biso   1.000  H
