data_image0
_cell_length_a       16.586
_cell_length_b       16.586
_cell_length_c       18.124
_cell_angle_alpha    90
_cell_angle_beta     90
_cell_angle_gamma    120

_symmetry_space_group_name_H-M    "P 1"
_symmetry_int_tables_number       1

loop_
  _symmetry_equiv_pos_as_xyz
  'x, y, z'

loop_
  _atom_site_label
  _atom_site_occupancy
  _atom_site_fract_x
  _atom_site_fract_y
  _atom_site_fract_z
  _atom_site_thermal_displace_type
  _atom_site_B_iso_or_equiv
  _atom_site_type_symbol
  Ni1      1.0000 0.01190  0.66692  0.69581  Biso   1.000  Ni
  Ni2      1.0000 0.01163  0.66657  0.31637  Biso   1.000  Ni
  O1       1.0000 0.88430  0.55250  0.69500  Biso   1.000  O
  O2       1.0000 0.77380  0.58930  0.70750  Biso   1.000  O
  O3       1.0000 0.85420  0.74810  0.70410  Biso   1.000  O
  O4       1.0000 0.00180  0.78280  0.69590  Biso   1.000  O
  O5       1.0000 0.15880  0.74200  0.70040  Biso   1.000  O
  O6       1.0000 0.08340  0.59210  0.70410  Biso   1.000  O
  C1       1.0000 0.80320  0.53070  0.70380  Biso   1.000  C
  C2       1.0000 0.72940  0.42440  0.70470  Biso   1.000  C
  C3       1.0000 0.75700  0.35730  0.70720  Biso   1.000  C
  H1       1.0000 0.82110  0.37580  0.71070  Biso   1.000  H
  C4       1.0000 0.94410  0.80550  0.69810  Biso   1.000  C
  C5       1.0000 0.97070  0.90960  0.70190  Biso   1.000  C
  C6       1.0000 0.90740  0.93480  0.70290  Biso   1.000  C
  H2       1.0000 0.84290  0.89020  0.70410  Biso   1.000  H
  C7       1.0000 0.15970  0.66700  0.70160  Biso   1.000  C
  C8       1.0000 0.24630  0.66590  0.70430  Biso   1.000  C
  C9       1.0000 0.33260  0.74860  0.70440  Biso   1.000  C
  H3       1.0000 0.33210  0.80570  0.70470  Biso   1.000  H
  O7       1.0000 0.88590  0.55160  0.31760  Biso   1.000  O
  O8       1.0000 0.77360  0.58620  0.30720  Biso   1.000  O
  O9       1.0000 0.85280  0.74820  0.30870  Biso   1.000  O
  O10      1.0000 0.00030  0.78110  0.31660  Biso   1.000  O
  O11      1.0000 0.15920  0.74270  0.31070  Biso   1.000  O
  O12      1.0000 0.08240  0.59100  0.31030  Biso   1.000  O
  C10      1.0000 0.80160  0.52910  0.31530  Biso   1.000  C
  C11      1.0000 0.73040  0.42720  0.30650  Biso   1.000  C
  C12      1.0000 0.64120  0.40070  0.30930  Biso   1.000  C
  H4       1.0000 0.62210  0.44580  0.31310  Biso   1.000  H
  C13      1.0000 0.94040  0.80340  0.31300  Biso   1.000  C
  C14      1.0000 0.97040  0.90660  0.31200  Biso   1.000  C
  C15      1.0000 0.06500  0.97310  0.31380  Biso   1.000  C
  H5       1.0000 0.10980  0.95350  0.31640  Biso   1.000  H
  C16      1.0000 0.15880  0.66480  0.31130  Biso   1.000  C
  C17      1.0000 0.24960  0.66780  0.30680  Biso   1.000  C
  C18      1.0000 0.25090  0.58460  0.30630  Biso   1.000  C
  H6       1.0000 0.19330  0.52760  0.30550  Biso   1.000  H
  N1       1.0000 0.01320  0.66740  0.58150  Biso   1.000  N
  N2       1.0000 0.01330  0.66740  0.42850  Biso   1.000  N
  C19      1.0000 0.93230  0.66660  0.54820  Biso   1.000  C
  H7       1.0000 0.93150  0.72330  0.56410  Biso   1.000  H
  H8       1.0000 0.87500  0.61220  0.56730  Biso   1.000  H
  C20      1.0000 0.92990  0.66260  0.46280  Biso   1.000  C
  H9       1.0000 0.87420  0.60410  0.44710  Biso   1.000  H
  H10      1.0000 0.92310  0.71500  0.44390  Biso   1.000  H
  C21      1.0000 0.01240  0.58600  0.54680  Biso   1.000  C
  H11      1.0000 0.95630  0.52880  0.56400  Biso   1.000  H
  H12      1.0000 0.06740  0.58320  0.56460  Biso   1.000  H
  C22      1.0000 0.01300  0.58510  0.46330  Biso   1.000  C
  H13      1.0000 0.06880  0.58310  0.44630  Biso   1.000  H
  H14      1.0000 0.95750  0.52750  0.44580  Biso   1.000  H
  C23      1.0000 0.09790  0.74680  0.54810  Biso   1.000  C
  H15      1.0000 0.15310  0.74450  0.56580  Biso   1.000  H
  H16      1.0000 0.10330  0.80550  0.56650  Biso   1.000  H
  C24      1.0000 0.10040  0.74990  0.46340  Biso   1.000  C
  H17      1.0000 0.15660  0.74900  0.44610  Biso   1.000  H
  H18      1.0000 0.10510  0.80890  0.44660  Biso   1.000  H
  N3       1.0000 0.00650  0.66950  0.81420  Biso   1.000  N
  C25      1.0000 0.95400  0.58480  0.85010  Biso   1.000  C
  H19      1.0000 0.91910  0.52940  0.82220  Biso   1.000  H
  C26      1.0000 0.95260  0.58110  0.92670  Biso   1.000  C
  H20      1.0000 0.91670  0.52320  0.95120  Biso   1.000  H
  C27      1.0000 0.00360  0.66220  0.96750  Biso   1.000  C
  C28      1.0000 0.05610  0.74690  0.93160  Biso   1.000  C
  H21      1.0000 0.09100  0.80230  0.95950  Biso   1.000  H
  C29      1.0000 0.05750  0.75060  0.85500  Biso   1.000  C
  H22      1.0000 0.09340  0.80850  0.83050  Biso   1.000  H
  N4       1.0000 0.00550  0.66650  0.19620  Biso   1.000  N
  C30      1.0000 0.06240  0.74880  0.15850  Biso   1.000  C
  H23      1.0000 0.10190  0.80410  0.18510  Biso   1.000  H
  C31      1.0000 0.06130  0.75020  0.08180  Biso   1.000  C
  H24      1.0000 0.10020  0.80650  0.05600  Biso   1.000  H
  C32      1.0000 0.00340  0.66930  0.04280  Biso   1.000  C
  C33      1.0000 0.94660  0.58710  0.08050  Biso   1.000  C
  H25      1.0000 0.90700  0.53180  0.05390  Biso   1.000  H
  C34      1.0000 0.94760  0.58560  0.15720  Biso   1.000  C
  H26      1.0000 0.90870  0.52940  0.18300  Biso   1.000  H
  C35      1.0000 0.98900  0.57960  0.84190  Biso   1.000  C
  H27      1.0000 0.03480  0.56490  0.81920  Biso   1.000  H
  H28      1.0000 0.92630  0.53080  0.82660  Biso   1.000  H
  C36      1.0000 0.99700  0.57740  0.92730  Biso   1.000  C
  H29      1.0000 0.94080  0.52560  0.95020  Biso   1.000  H
  H30      1.0000 0.05320  0.57560  0.94340  Biso   1.000  H
  C37      1.0000 0.09900  0.74000  0.83520  Biso   1.000  C
  H31      1.0000 0.11570  0.80020  0.81130  Biso   1.000  H
  H32      1.0000 0.14510  0.72190  0.82090  Biso   1.000  H
  C38      1.0000 0.09500  0.74800  0.92040  Biso   1.000  C
  H33      1.0000 0.14650  0.74350  0.94440  Biso   1.000  H
  H34      1.0000 0.09930  0.80750  0.93490  Biso   1.000  H
  C39      1.0000 0.93800  0.69500  0.83880  Biso   1.000  C
  H35      1.0000 0.87690  0.65400  0.81520  Biso   1.000  H
  H36      1.0000 0.95840  0.76020  0.82430  Biso   1.000  H
  C40      1.0000 0.92900  0.68500  0.92340  Biso   1.000  C
  H37      1.0000 0.93730  0.74290  0.94710  Biso   1.000  H
  H38      1.0000 0.86770  0.63210  0.93840  Biso   1.000  H
  N5       1.0000 0.00480  0.66870  0.94020  Biso   1.000  N
  C41      1.0000 0.93100  0.68000  0.16950  Biso   1.000  C
  H39      1.0000 0.93540  0.73670  0.19220  Biso   1.000  H
  H40      1.0000 0.86980  0.62620  0.18260  Biso   1.000  H
  C42      1.0000 0.94100  0.69100  0.08580  Biso   1.000  C
  H41      1.0000 0.88180  0.64790  0.06020  Biso   1.000  H
  H42      1.0000 0.96100  0.75600  0.07020  Biso   1.000  H
  C43      1.0000 0.10000  0.73600  0.17900  Biso   1.000  C
  H43      1.0000 0.14370  0.71630  0.19660  Biso   1.000  H
  H44      1.0000 0.11560  0.79610  0.20240  Biso   1.000  H
  C44      1.0000 0.10310  0.74500  0.09290  Biso   1.000  C
  H45      1.0000 0.11160  0.80560  0.07670  Biso   1.000  H
  H46      1.0000 0.15310  0.73580  0.07150  Biso   1.000  H
  C45      1.0000 0.98800  0.57630  0.17220  Biso   1.000  C
  H47      1.0000 0.92610  0.52750  0.18970  Biso   1.000  H
  H48      1.0000 0.03560  0.56350  0.19320  Biso   1.000  H
  C46      1.0000 0.99100  0.57440  0.08780  Biso   1.000  C
  H49      1.0000 0.04210  0.56440  0.06970  Biso   1.000  H
  H50      1.0000 0.93130  0.52710  0.06620  Biso   1.000  H
  N6       1.0000 0.01040  0.66780  0.07410  Biso   1.000  N
  Ni3      1.0000 0.33308  0.34498  0.69581  Biso   1.000  Ni
  Ni4      1.0000 0.33343  0.34506  0.31637  Biso   1.000  Ni
  O13      1.0000 0.44750  0.33180  0.69500  Biso   1.000  O
  O14      1.0000 0.41070  0.18450  0.70750  Biso   1.000  O
  O15      1.0000 0.25190  0.10610  0.70410  Biso   1.000  O
  O16      1.0000 0.21720  0.21900  0.69590  Biso   1.000  O
  O17      1.0000 0.25800  0.41680  0.70040  Biso   1.000  O
  O18      1.0000 0.40790  0.49130  0.70410  Biso   1.000  O
  C47      1.0000 0.46930  0.27250  0.70380  Biso   1.000  C
  C48      1.0000 0.57560  0.30500  0.70470  Biso   1.000  C
  C49      1.0000 0.64270  0.39970  0.70720  Biso   1.000  C
  H51      1.0000 0.62420  0.44530  0.71070  Biso   1.000  H
  C50      1.0000 0.19450  0.13860  0.69810  Biso   1.000  C
  C51      1.0000 0.09040  0.06110  0.70190  Biso   1.000  C
  C52      1.0000 0.06520  0.97260  0.70290  Biso   1.000  C
  H52      1.0000 0.10980  0.95270  0.70410  Biso   1.000  H
  C53      1.0000 0.33300  0.49270  0.70160  Biso   1.000  C
  C54      1.0000 0.33410  0.58040  0.70430  Biso   1.000  C
  C55      1.0000 0.25140  0.58400  0.70440  Biso   1.000  C
  H53      1.0000 0.19430  0.52640  0.70470  Biso   1.000  H
  O19      1.0000 0.44840  0.33430  0.31760  Biso   1.000  O
  O20      1.0000 0.41380  0.18740  0.30720  Biso   1.000  O
  O21      1.0000 0.25180  0.10460  0.30870  Biso   1.000  O
  O22      1.0000 0.21890  0.21920  0.31660  Biso   1.000  O
  O23      1.0000 0.25730  0.41650  0.31070  Biso   1.000  O
  O24      1.0000 0.40900  0.49140  0.31030  Biso   1.000  O
  C56      1.0000 0.47090  0.27250  0.31530  Biso   1.000  C
  C57      1.0000 0.57280  0.30320  0.30650  Biso   1.000  C
  C58      1.0000 0.59930  0.24050  0.30930  Biso   1.000  C
  H54      1.0000 0.55420  0.17630  0.31310  Biso   1.000  H
  C59      1.0000 0.19660  0.13700  0.31300  Biso   1.000  C
  C60      1.0000 0.09340  0.06380  0.31200  Biso   1.000  C
  C61      1.0000 0.02690  0.09190  0.31380  Biso   1.000  C
  H55      1.0000 0.04650  0.15630  0.31640  Biso   1.000  H
  C62      1.0000 0.33520  0.49400  0.31130  Biso   1.000  C
  C63      1.0000 0.33220  0.58180  0.30680  Biso   1.000  C
  C64      1.0000 0.41540  0.66630  0.30630  Biso   1.000  C
  H56      1.0000 0.47240  0.66570  0.30550  Biso   1.000  H
  N7       1.0000 0.33260  0.34580  0.58150  Biso   1.000  N
  N8       1.0000 0.33260  0.34590  0.42850  Biso   1.000  N
  C65      1.0000 0.33340  0.26570  0.54820  Biso   1.000  C
  H57      1.0000 0.27670  0.20820  0.56410  Biso   1.000  H
  H58      1.0000 0.38780  0.26280  0.56730  Biso   1.000  H
  C66      1.0000 0.33740  0.26730  0.46280  Biso   1.000  C
  H59      1.0000 0.39590  0.27010  0.44710  Biso   1.000  H
  H60      1.0000 0.28500  0.20810  0.44390  Biso   1.000  H
  C67      1.0000 0.41400  0.42640  0.54680  Biso   1.000  C
  H61      1.0000 0.47120  0.42750  0.56400  Biso   1.000  H
  H62      1.0000 0.41680  0.48420  0.56460  Biso   1.000  H
  C68      1.0000 0.41490  0.42790  0.46330  Biso   1.000  C
  H63      1.0000 0.41690  0.48570  0.44630  Biso   1.000  H
  H64      1.0000 0.47250  0.43000  0.44580  Biso   1.000  H
  C69      1.0000 0.25320  0.35110  0.54810  Biso   1.000  C
  H65      1.0000 0.25550  0.40860  0.56580  Biso   1.000  H
  H66      1.0000 0.19450  0.29780  0.56650  Biso   1.000  H
  C70      1.0000 0.25010  0.35050  0.46340  Biso   1.000  C
  H67      1.0000 0.25100  0.40760  0.44610  Biso   1.000  H
  H68      1.0000 0.19110  0.29620  0.44660  Biso   1.000  H
  N9       1.0000 0.33050  0.33700  0.81420  Biso   1.000  N
  C71      1.0000 0.41520  0.36920  0.85010  Biso   1.000  C
  H69      1.0000 0.47060  0.38970  0.82220  Biso   1.000  H
  C72      1.0000 0.41890  0.37150  0.92670  Biso   1.000  C
  H70      1.0000 0.47680  0.39350  0.95120  Biso   1.000  H
  C73      1.0000 0.33780  0.34140  0.96750  Biso   1.000  C
  C74      1.0000 0.25310  0.30920  0.93160  Biso   1.000  C
  H71      1.0000 0.19770  0.28870  0.95950  Biso   1.000  H
  C75      1.0000 0.24940  0.30690  0.85500  Biso   1.000  C
  H72      1.0000 0.19150  0.28490  0.83050  Biso   1.000  H
  N10      1.0000 0.33350  0.33900  0.19620  Biso   1.000  N
  C76      1.0000 0.25120  0.31360  0.15850  Biso   1.000  C
  H73      1.0000 0.19590  0.29780  0.18510  Biso   1.000  H
  C77      1.0000 0.24980  0.31110  0.08180  Biso   1.000  C
  H74      1.0000 0.19350  0.29370  0.05600  Biso   1.000  H
  C78      1.0000 0.33070  0.33410  0.04280  Biso   1.000  C
  C79      1.0000 0.41290  0.35950  0.08050  Biso   1.000  C
  H75      1.0000 0.46820  0.37520  0.05390  Biso   1.000  H
  C80      1.0000 0.41440  0.36200  0.15720  Biso   1.000  C
  H76      1.0000 0.47060  0.37930  0.18300  Biso   1.000  H
  C81      1.0000 0.42040  0.40940  0.84190  Biso   1.000  C
  H77      1.0000 0.43510  0.46990  0.81920  Biso   1.000  H
  H78      1.0000 0.46920  0.39550  0.82660  Biso   1.000  H
  C82      1.0000 0.42260  0.41960  0.92730  Biso   1.000  C
  H79      1.0000 0.47440  0.41520  0.95020  Biso   1.000  H
  H80      1.0000 0.42440  0.47760  0.94340  Biso   1.000  H
  C83      1.0000 0.26000  0.35900  0.83520  Biso   1.000  C
  H81      1.0000 0.19980  0.31550  0.81130  Biso   1.000  H
  H82      1.0000 0.27810  0.42320  0.82090  Biso   1.000  H
  C84      1.0000 0.25200  0.34700  0.92040  Biso   1.000  C
  H83      1.0000 0.25650  0.40300  0.94440  Biso   1.000  H
  H84      1.0000 0.19250  0.29180  0.93490  Biso   1.000  H
  C85      1.0000 0.30500  0.24300  0.83880  Biso   1.000  C
  H85      1.0000 0.34600  0.22290  0.81520  Biso   1.000  H
  H86      1.0000 0.23980  0.19820  0.82430  Biso   1.000  H
  C86      1.0000 0.31500  0.24400  0.92340  Biso   1.000  C
  H87      1.0000 0.25710  0.19440  0.94710  Biso   1.000  H
  H88      1.0000 0.36790  0.23560  0.93840  Biso   1.000  H
  N11      1.0000 0.33130  0.33610  0.94020  Biso   1.000  N
  C87      1.0000 0.32000  0.25100  0.16950  Biso   1.000  C
  H89      1.0000 0.26330  0.19870  0.19220  Biso   1.000  H
  H90      1.0000 0.37380  0.24360  0.18260  Biso   1.000  H
  C88      1.0000 0.30900  0.25000  0.08580  Biso   1.000  C
  H91      1.0000 0.35210  0.23390  0.06020  Biso   1.000  H
  H92      1.0000 0.24400  0.20500  0.07020  Biso   1.000  H
  C89      1.0000 0.26400  0.36400  0.17900  Biso   1.000  C
  H93      1.0000 0.28370  0.42740  0.19660  Biso   1.000  H
  H94      1.0000 0.20390  0.31950  0.20240  Biso   1.000  H
  C90      1.0000 0.25500  0.35810  0.09290  Biso   1.000  C
  H95      1.0000 0.19440  0.30600  0.07670  Biso   1.000  H
  H96      1.0000 0.26420  0.41730  0.07150  Biso   1.000  H
  C91      1.0000 0.42370  0.41170  0.17220  Biso   1.000  C
  H97      1.0000 0.47250  0.39860  0.18970  Biso   1.000  H
  H98      1.0000 0.43650  0.47210  0.19320  Biso   1.000  H
  C92      1.0000 0.42560  0.41660  0.08780  Biso   1.000  C
  H99      1.0000 0.43560  0.47770  0.06970  Biso   1.000  H
  H100     1.0000 0.47290  0.40420  0.06620  Biso   1.000  H
  N12      1.0000 0.33220  0.34260  0.07410  Biso   1.000  N
  Ni5      1.0000 0.65502  0.98810  0.69581  Biso   1.000  Ni
  Ni6      1.0000 0.65494  0.98837  0.31637  Biso   1.000  Ni
  O25      1.0000 0.66820  0.11570  0.69500  Biso   1.000  O
  O26      1.0000 0.81550  0.22620  0.70750  Biso   1.000  O
  O27      1.0000 0.89390  0.14580  0.70410  Biso   1.000  O
  O28      1.0000 0.78100  0.99820  0.69590  Biso   1.000  O
  O29      1.0000 0.58320  0.84120  0.70040  Biso   1.000  O
  O30      1.0000 0.50870  0.91660  0.70410  Biso   1.000  O
  C93      1.0000 0.72750  0.19680  0.70380  Biso   1.000  C
  C94      1.0000 0.69500  0.27060  0.70470  Biso   1.000  C
  C95      1.0000 0.60030  0.24300  0.70720  Biso   1.000  C
  H101     1.0000 0.55470  0.17890  0.71070  Biso   1.000  H
  C96      1.0000 0.86140  0.05590  0.69810  Biso   1.000  C
  C97      1.0000 0.93890  0.02930  0.70190  Biso   1.000  C
  C98      1.0000 0.02740  0.09260  0.70290  Biso   1.000  C
  H102     1.0000 0.04730  0.15710  0.70410  Biso   1.000  H
  C99      1.0000 0.50730  0.84030  0.70160  Biso   1.000  C
  C100     1.0000 0.41960  0.75370  0.70430  Biso   1.000  C
  C101     1.0000 0.41600  0.66740  0.70440  Biso   1.000  C
  H103     1.0000 0.47360  0.66790  0.70470  Biso   1.000  H
  O31      1.0000 0.66570  0.11410  0.31760  Biso   1.000  O
  O32      1.0000 0.81260  0.22640  0.30720  Biso   1.000  O
  O33      1.0000 0.89540  0.14720  0.30870  Biso   1.000  O
  O34      1.0000 0.78080  0.99970  0.31660  Biso   1.000  O
  O35      1.0000 0.58350  0.84080  0.31070  Biso   1.000  O
  O36      1.0000 0.50860  0.91760  0.31030  Biso   1.000  O
  C102     1.0000 0.72750  0.19840  0.31530  Biso   1.000  C
  C103     1.0000 0.69680  0.26960  0.30650  Biso   1.000  C
  C104     1.0000 0.75950  0.35880  0.30930  Biso   1.000  C
  H104     1.0000 0.82370  0.37790  0.31310  Biso   1.000  H
  C105     1.0000 0.86300  0.05960  0.31300  Biso   1.000  C
  C106     1.0000 0.93620  0.02960  0.31200  Biso   1.000  C
  C107     1.0000 0.90810  0.93500  0.31380  Biso   1.000  C
  H105     1.0000 0.84370  0.89020  0.31640  Biso   1.000  H
  C108     1.0000 0.50600  0.84120  0.31130  Biso   1.000  C
  C109     1.0000 0.41820  0.75040  0.30680  Biso   1.000  C
  C110     1.0000 0.33370  0.74910  0.30630  Biso   1.000  C
  H106     1.0000 0.33430  0.80670  0.30550  Biso   1.000  H
  N13      1.0000 0.65420  0.98680  0.58150  Biso   1.000  N
  N14      1.0000 0.65410  0.98670  0.42850  Biso   1.000  N
  C111     1.0000 0.73430  0.06770  0.54820  Biso   1.000  C
  H107     1.0000 0.79180  0.06850  0.56410  Biso   1.000  H
  H108     1.0000 0.73720  0.12500  0.56730  Biso   1.000  H
  C112     1.0000 0.73270  0.07010  0.46280  Biso   1.000  C
  H109     1.0000 0.72990  0.12580  0.44710  Biso   1.000  H
  H110     1.0000 0.79190  0.07690  0.44390  Biso   1.000  H
  C113     1.0000 0.57360  0.98760  0.54680  Biso   1.000  C
  H111     1.0000 0.57250  0.04370  0.56400  Biso   1.000  H
  H112     1.0000 0.51580  0.93260  0.56460  Biso   1.000  H
  C114     1.0000 0.57210  0.98700  0.46330  Biso   1.000  C
  H113     1.0000 0.51430  0.93120  0.44630  Biso   1.000  H
  H114     1.0000 0.57000  0.04250  0.44580  Biso   1.000  H
  C115     1.0000 0.64890  0.90210  0.54810  Biso   1.000  C
  H115     1.0000 0.59140  0.84690  0.56580  Biso   1.000  H
  H116     1.0000 0.70220  0.89670  0.56650  Biso   1.000  H
  C116     1.0000 0.64950  0.89960  0.46340  Biso   1.000  C
  H117     1.0000 0.59240  0.84340  0.44610  Biso   1.000  H
  H118     1.0000 0.70380  0.89490  0.44660  Biso   1.000  H
  N15      1.0000 0.66300  0.99350  0.81420  Biso   1.000  N
  C117     1.0000 0.63080  0.04600  0.85010  Biso   1.000  C
  H119     1.0000 0.61030  0.08090  0.82220  Biso   1.000  H
  C118     1.0000 0.62850  0.04740  0.92670  Biso   1.000  C
  H120     1.0000 0.60650  0.08330  0.95120  Biso   1.000  H
  C119     1.0000 0.65860  0.99640  0.96750  Biso   1.000  C
  C120     1.0000 0.69080  0.94390  0.93160  Biso   1.000  C
  H121     1.0000 0.71130  0.90900  0.95950  Biso   1.000  H
  C121     1.0000 0.69310  0.94250  0.85500  Biso   1.000  C
  H122     1.0000 0.71510  0.90660  0.83050  Biso   1.000  H
  N16      1.0000 0.66100  0.99450  0.19620  Biso   1.000  N
  C122     1.0000 0.68640  0.93760  0.15850  Biso   1.000  C
  H123     1.0000 0.70220  0.89810  0.18510  Biso   1.000  H
  C123     1.0000 0.68890  0.93870  0.08180  Biso   1.000  C
  H124     1.0000 0.70630  0.89980  0.05600  Biso   1.000  H
  C124     1.0000 0.66590  0.99660  0.04280  Biso   1.000  C
  C125     1.0000 0.64050  0.05340  0.08050  Biso   1.000  C
  H125     1.0000 0.62480  0.09300  0.05390  Biso   1.000  H
  C126     1.0000 0.63800  0.05240  0.15720  Biso   1.000  C
  H126     1.0000 0.62070  0.09130  0.18300  Biso   1.000  H
  C127     1.0000 0.59060  0.01100  0.84190  Biso   1.000  C
  H127     1.0000 0.53010  0.96520  0.81920  Biso   1.000  H
  H128     1.0000 0.60450  0.07370  0.82660  Biso   1.000  H
  C128     1.0000 0.58040  0.00300  0.92730  Biso   1.000  C
  H129     1.0000 0.58480  0.05920  0.95020  Biso   1.000  H
  H130     1.0000 0.52240  0.94680  0.94340  Biso   1.000  H
  C129     1.0000 0.64100  0.90100  0.83520  Biso   1.000  C
  H131     1.0000 0.68450  0.88430  0.81130  Biso   1.000  H
  H132     1.0000 0.57680  0.85490  0.82090  Biso   1.000  H
  C130     1.0000 0.65300  0.90500  0.92040  Biso   1.000  C
  H133     1.0000 0.59700  0.85350  0.94440  Biso   1.000  H
  H134     1.0000 0.70820  0.90070  0.93490  Biso   1.000  H
  C131     1.0000 0.75700  0.06200  0.83880  Biso   1.000  C
  H135     1.0000 0.77710  0.12310  0.81520  Biso   1.000  H
  H136     1.0000 0.80180  0.04160  0.82430  Biso   1.000  H
  C132     1.0000 0.75600  0.07100  0.92340  Biso   1.000  C
  H137     1.0000 0.80560  0.06270  0.94710  Biso   1.000  H
  H138     1.0000 0.76440  0.13230  0.93840  Biso   1.000  H
  N17      1.0000 0.66390  0.99520  0.94020  Biso   1.000  N
  C133     1.0000 0.74900  0.06900  0.16950  Biso   1.000  C
  H139     1.0000 0.80130  0.06460  0.19220  Biso   1.000  H
  H140     1.0000 0.75640  0.13020  0.18260  Biso   1.000  H
  C134     1.0000 0.75000  0.05900  0.08580  Biso   1.000  C
  H141     1.0000 0.76610  0.11820  0.06020  Biso   1.000  H
  H142     1.0000 0.79500  0.03900  0.07020  Biso   1.000  H
  C135     1.0000 0.63600  0.90000  0.17900  Biso   1.000  C
  H143     1.0000 0.57260  0.85630  0.19660  Biso   1.000  H
  H144     1.0000 0.68050  0.88440  0.20240  Biso   1.000  H
  C136     1.0000 0.64190  0.89690  0.09290  Biso   1.000  C
  H145     1.0000 0.69400  0.88840  0.07670  Biso   1.000  H
  H146     1.0000 0.58270  0.84690  0.07150  Biso   1.000  H
  C137     1.0000 0.58830  0.01200  0.17220  Biso   1.000  C
  H147     1.0000 0.60140  0.07390  0.18970  Biso   1.000  H
  H148     1.0000 0.52790  0.96440  0.19320  Biso   1.000  H
  C138     1.0000 0.58340  0.00900  0.08780  Biso   1.000  C
  H149     1.0000 0.52230  0.95790  0.06970  Biso   1.000  H
  H150     1.0000 0.59580  0.06870  0.06620  Biso   1.000  H
  N18      1.0000 0.65740  0.98960  0.07410  Biso   1.000  N
