data_image0
_cell_length_a       34.622
_cell_length_b       10.432
_cell_length_c       18.032
_cell_angle_alpha    90
_cell_angle_beta     100.95
_cell_angle_gamma    90

_symmetry_space_group_name_H-M    "P 1"
_symmetry_int_tables_number       1

loop_
  _symmetry_equiv_pos_as_xyz
  'x, y, z'

loop_
  _atom_site_label
  _atom_site_occupancy
  _atom_site_fract_x
  _atom_site_fract_y
  _atom_site_fract_z
  _atom_site_thermal_displace_type
  _atom_site_B_iso_or_equiv
  _atom_site_type_symbol
  Cd1      1.0000 0.14854  0.32777  0.46249  Biso   1.000  Cd
  O1       1.0000 0.15555  0.20590  0.56380  Biso   1.000  O
  O2       1.0000 0.21347  0.12310  0.55390  Biso   1.000  O
  O3       1.0000 0.14966  0.80800  0.86920  Biso   1.000  O
  O4       1.0000 0.21320  0.77160  0.88380  Biso   1.000  O
  O5       1.0000 0.17244  0.52080  0.41820  Biso   1.000  O
  O6       1.0000 0.20975  0.42730  0.51610  Biso   1.000  O
  C1       1.0000 0.18393  0.05410  0.65520  Biso   1.000  C
  C2       1.0000 0.15240  0.05920  0.69220  Biso   1.000  C
  C3       1.0000 0.15320  0.98410  0.75560  Biso   1.000  C
  H1       1.0000 0.13130  0.98740  0.78100  Biso   1.000  H
  C4       1.0000 0.18326  0.90340  0.78260  Biso   1.000  C
  C5       1.0000 0.21550  0.90090  0.74560  Biso   1.000  C
  C6       1.0000 0.21488  0.97410  0.68240  Biso   1.000  C
  H2       1.0000 0.23650  0.96860  0.65610  Biso   1.000  H
  C7       1.0000 0.18400  0.13360  0.58590  Biso   1.000  C
  C8       1.0000 0.18240  0.82350  0.85100  Biso   1.000  C
  C9       1.0000 0.22701  0.63960  0.48300  Biso   1.000  C
  C10      1.0000 0.22117  0.74480  0.43420  Biso   1.000  C
  H3       1.0000 0.20170  0.74100  0.38860  Biso   1.000  H
  C11      1.0000 0.25681  0.64750  0.54910  Biso   1.000  C
  H4       1.0000 0.26110  0.57550  0.58280  Biso   1.000  H
  C12      1.0000 0.20192  0.52120  0.47090  Biso   1.000  C
  C13      1.0000 0.03680  0.46190  0.48980  Biso   1.000  C
  C14      1.0000 0.07830  0.41800  0.48280  Biso   1.000  C
  N1       1.0000 0.12070  0.14900  0.66970  Biso   1.000  N
  H5       1.0000 0.11450  0.21080  0.62360  Biso   1.000  H
  H6       1.0000 0.09630  0.16720  0.69220  Biso   1.000  H
  H7       1.0000 0.23690  0.84150  0.76400  Biso   1.000  H
  N2       1.0000 0.24670  0.81190  0.76320  Biso   1.000  N
  H8       1.0000 0.24750  0.75610  0.80150  Biso   1.000  H
  H9       1.0000 0.26650  0.81400  0.73730  Biso   1.000  H
  H10      1.0000 0.13070  0.11530  0.67610  Biso   1.000  H
  C15      1.0000 0.00360  0.38940  0.45940  Biso   1.000  C
  H11      1.0000 0.00630  0.31150  0.43250  Biso   1.000  H
  C16      1.0000 0.03330  0.57290  0.52870  Biso   1.000  C
  H12      1.0000 0.05620  0.62270  0.54930  Biso   1.000  H
  O7       1.0000 0.08060  0.32540  0.43990  Biso   1.000  O
  O8       1.0000 0.10740  0.47810  0.51590  Biso   1.000  O
  N3       1.0000 0.00060  0.28400  0.40400  Biso   1.000  N
  H13      1.0000 0.97790  0.25370  0.38380  Biso   1.000  H
  H14      1.0000 0.02150  0.25210  0.39200  Biso   1.000  H
  C17      1.0000 0.00480  0.43690  0.43120  Biso   1.000  C
  H15      1.0000 0.00780  0.39320  0.38580  Biso   1.000  H
  C18      1.0000 0.03130  0.52760  0.55380  Biso   1.000  C
  H16      1.0000 0.05410  0.54790  0.59110  Biso   1.000  H
  O9       1.0000 0.08220  0.36710  0.41940  Biso   1.000  O
  O10      1.0000 0.10640  0.43910  0.53710  Biso   1.000  O
  N4       1.0000 0.00150  0.34900  0.36650  Biso   1.000  N
  H17      1.0000 0.97870  0.32490  0.34270  Biso   1.000  H
  H18      1.0000 0.02230  0.32080  0.35250  Biso   1.000  H
  N5       1.0000 0.19410  0.74000  0.36340  Biso   1.000  N
  H19      1.0000 0.18030  0.66790  0.34980  Biso   1.000  H
  H20      1.0000 0.19080  0.80870  0.33260  Biso   1.000  H
  Cd2      1.0000 0.64854  0.82777  0.46249  Biso   1.000  Cd
  O11      1.0000 0.65555  0.70590  0.56380  Biso   1.000  O
  O12      1.0000 0.71347  0.62310  0.55390  Biso   1.000  O
  O13      1.0000 0.64966  0.30800  0.86920  Biso   1.000  O
  O14      1.0000 0.71320  0.27160  0.88380  Biso   1.000  O
  O15      1.0000 0.67244  0.02080  0.41820  Biso   1.000  O
  O16      1.0000 0.70975  0.92730  0.51610  Biso   1.000  O
  C19      1.0000 0.68393  0.55410  0.65520  Biso   1.000  C
  C20      1.0000 0.65240  0.55920  0.69220  Biso   1.000  C
  C21      1.0000 0.65320  0.48410  0.75560  Biso   1.000  C
  H21      1.0000 0.63130  0.48740  0.78100  Biso   1.000  H
  C22      1.0000 0.68326  0.40340  0.78260  Biso   1.000  C
  C23      1.0000 0.71550  0.40090  0.74560  Biso   1.000  C
  C24      1.0000 0.71488  0.47410  0.68240  Biso   1.000  C
  H22      1.0000 0.73650  0.46860  0.65610  Biso   1.000  H
  C25      1.0000 0.68400  0.63360  0.58590  Biso   1.000  C
  C26      1.0000 0.68240  0.32350  0.85100  Biso   1.000  C
  C27      1.0000 0.72701  0.13960  0.48300  Biso   1.000  C
  C28      1.0000 0.72117  0.24480  0.43420  Biso   1.000  C
  H23      1.0000 0.70170  0.24100  0.38860  Biso   1.000  H
  C29      1.0000 0.75681  0.14750  0.54910  Biso   1.000  C
  H24      1.0000 0.76110  0.07550  0.58280  Biso   1.000  H
  C30      1.0000 0.70192  0.02120  0.47090  Biso   1.000  C
  C31      1.0000 0.53680  0.96190  0.48980  Biso   1.000  C
  C32      1.0000 0.57830  0.91800  0.48280  Biso   1.000  C
  N6       1.0000 0.62070  0.64900  0.66970  Biso   1.000  N
  H25      1.0000 0.61450  0.71080  0.62360  Biso   1.000  H
  H26      1.0000 0.59630  0.66720  0.69220  Biso   1.000  H
  H27      1.0000 0.73690  0.34150  0.76400  Biso   1.000  H
  N7       1.0000 0.74670  0.31190  0.76320  Biso   1.000  N
  H28      1.0000 0.74750  0.25610  0.80150  Biso   1.000  H
  H29      1.0000 0.76650  0.31400  0.73730  Biso   1.000  H
  H30      1.0000 0.63070  0.61530  0.67610  Biso   1.000  H
  C33      1.0000 0.50360  0.88940  0.45940  Biso   1.000  C
  H31      1.0000 0.50630  0.81150  0.43250  Biso   1.000  H
  C34      1.0000 0.53330  0.07290  0.52870  Biso   1.000  C
  H32      1.0000 0.55620  0.12270  0.54930  Biso   1.000  H
  O17      1.0000 0.58060  0.82540  0.43990  Biso   1.000  O
  O18      1.0000 0.60740  0.97810  0.51590  Biso   1.000  O
  N8       1.0000 0.50060  0.78400  0.40400  Biso   1.000  N
  H33      1.0000 0.47790  0.75370  0.38380  Biso   1.000  H
  H34      1.0000 0.52150  0.75210  0.39200  Biso   1.000  H
  C35      1.0000 0.50480  0.93690  0.43120  Biso   1.000  C
  H35      1.0000 0.50780  0.89320  0.38580  Biso   1.000  H
  C36      1.0000 0.53130  0.02760  0.55380  Biso   1.000  C
  H36      1.0000 0.55410  0.04790  0.59110  Biso   1.000  H
  O19      1.0000 0.58220  0.86710  0.41940  Biso   1.000  O
  O20      1.0000 0.60640  0.93910  0.53710  Biso   1.000  O
  N9       1.0000 0.50150  0.84900  0.36650  Biso   1.000  N
  H37      1.0000 0.47870  0.82490  0.34270  Biso   1.000  H
  H38      1.0000 0.52230  0.82080  0.35250  Biso   1.000  H
  N10      1.0000 0.69410  0.24000  0.36340  Biso   1.000  N
  H39      1.0000 0.68030  0.16790  0.34980  Biso   1.000  H
  H40      1.0000 0.69080  0.30870  0.33260  Biso   1.000  H
  Cd3      1.0000 0.85146  0.32777  0.03751  Biso   1.000  Cd
  O21      1.0000 0.84445  0.20590  0.93620  Biso   1.000  O
  O22      1.0000 0.78653  0.12310  0.94610  Biso   1.000  O
  O23      1.0000 0.85034  0.80800  0.63080  Biso   1.000  O
  O24      1.0000 0.78680  0.77160  0.61620  Biso   1.000  O
  O25      1.0000 0.82756  0.52080  0.08180  Biso   1.000  O
  O26      1.0000 0.79025  0.42730  0.98390  Biso   1.000  O
  C37      1.0000 0.81607  0.05410  0.84480  Biso   1.000  C
  C38      1.0000 0.84760  0.05920  0.80780  Biso   1.000  C
  C39      1.0000 0.84680  0.98410  0.74440  Biso   1.000  C
  H41      1.0000 0.86870  0.98740  0.71900  Biso   1.000  H
  C40      1.0000 0.81674  0.90340  0.71740  Biso   1.000  C
  C41      1.0000 0.78450  0.90090  0.75440  Biso   1.000  C
  C42      1.0000 0.78512  0.97410  0.81760  Biso   1.000  C
  H42      1.0000 0.76350  0.96860  0.84390  Biso   1.000  H
  C43      1.0000 0.81600  0.13360  0.91410  Biso   1.000  C
  C44      1.0000 0.81760  0.82350  0.64900  Biso   1.000  C
  C45      1.0000 0.77299  0.63960  0.01700  Biso   1.000  C
  C46      1.0000 0.77883  0.74480  0.06580  Biso   1.000  C
  H43      1.0000 0.79830  0.74100  0.11140  Biso   1.000  H
  C47      1.0000 0.74319  0.64750  0.95090  Biso   1.000  C
  H44      1.0000 0.73890  0.57550  0.91720  Biso   1.000  H
  C48      1.0000 0.79808  0.52120  0.02910  Biso   1.000  C
  C49      1.0000 0.96320  0.46190  0.01020  Biso   1.000  C
  C50      1.0000 0.92170  0.41800  0.01720  Biso   1.000  C
  N11      1.0000 0.87930  0.14900  0.83030  Biso   1.000  N
  H45      1.0000 0.88550  0.21080  0.87640  Biso   1.000  H
  H46      1.0000 0.90370  0.16720  0.80780  Biso   1.000  H
  H47      1.0000 0.76310  0.84150  0.73600  Biso   1.000  H
  N12      1.0000 0.75330  0.81190  0.73680  Biso   1.000  N
  H48      1.0000 0.75250  0.75610  0.69850  Biso   1.000  H
  H49      1.0000 0.73350  0.81400  0.76270  Biso   1.000  H
  H50      1.0000 0.86930  0.11530  0.82390  Biso   1.000  H
  C51      1.0000 0.99640  0.38940  0.04060  Biso   1.000  C
  H51      1.0000 0.99370  0.31150  0.06750  Biso   1.000  H
  C52      1.0000 0.96670  0.57290  0.97130  Biso   1.000  C
  H52      1.0000 0.94380  0.62270  0.95070  Biso   1.000  H
  O27      1.0000 0.91940  0.32540  0.06010  Biso   1.000  O
  O28      1.0000 0.89260  0.47810  0.98410  Biso   1.000  O
  N13      1.0000 0.99940  0.28400  0.09600  Biso   1.000  N
  H53      1.0000 0.02210  0.25370  0.11620  Biso   1.000  H
  H54      1.0000 0.97850  0.25210  0.10800  Biso   1.000  H
  C53      1.0000 0.99520  0.43690  0.06880  Biso   1.000  C
  H55      1.0000 0.99220  0.39320  0.11420  Biso   1.000  H
  C54      1.0000 0.96870  0.52760  0.94620  Biso   1.000  C
  H56      1.0000 0.94590  0.54790  0.90890  Biso   1.000  H
  O29      1.0000 0.91780  0.36710  0.08060  Biso   1.000  O
  O30      1.0000 0.89360  0.43910  0.96290  Biso   1.000  O
  N14      1.0000 0.99850  0.34900  0.13350  Biso   1.000  N
  H57      1.0000 0.02130  0.32490  0.15730  Biso   1.000  H
  H58      1.0000 0.97770  0.32080  0.14750  Biso   1.000  H
  N15      1.0000 0.80590  0.74000  0.13660  Biso   1.000  N
  H59      1.0000 0.81970  0.66790  0.15020  Biso   1.000  H
  H60      1.0000 0.80920  0.80870  0.16740  Biso   1.000  H
  Cd4      1.0000 0.35146  0.82777  0.03751  Biso   1.000  Cd
  O31      1.0000 0.34445  0.70590  0.93620  Biso   1.000  O
  O32      1.0000 0.28653  0.62310  0.94610  Biso   1.000  O
  O33      1.0000 0.35034  0.30800  0.63080  Biso   1.000  O
  O34      1.0000 0.28680  0.27160  0.61620  Biso   1.000  O
  O35      1.0000 0.32756  0.02080  0.08180  Biso   1.000  O
  O36      1.0000 0.29025  0.92730  0.98390  Biso   1.000  O
  C55      1.0000 0.31607  0.55410  0.84480  Biso   1.000  C
  C56      1.0000 0.34760  0.55920  0.80780  Biso   1.000  C
  C57      1.0000 0.34680  0.48410  0.74440  Biso   1.000  C
  H61      1.0000 0.36870  0.48740  0.71900  Biso   1.000  H
  C58      1.0000 0.31674  0.40340  0.71740  Biso   1.000  C
  C59      1.0000 0.28450  0.40090  0.75440  Biso   1.000  C
  C60      1.0000 0.28512  0.47410  0.81760  Biso   1.000  C
  H62      1.0000 0.26350  0.46860  0.84390  Biso   1.000  H
  C61      1.0000 0.31600  0.63360  0.91410  Biso   1.000  C
  C62      1.0000 0.31760  0.32350  0.64900  Biso   1.000  C
  C63      1.0000 0.27299  0.13960  0.01700  Biso   1.000  C
  C64      1.0000 0.27883  0.24480  0.06580  Biso   1.000  C
  H63      1.0000 0.29830  0.24100  0.11140  Biso   1.000  H
  C65      1.0000 0.24319  0.14750  0.95090  Biso   1.000  C
  H64      1.0000 0.23890  0.07550  0.91720  Biso   1.000  H
  C66      1.0000 0.29808  0.02120  0.02910  Biso   1.000  C
  C67      1.0000 0.46320  0.96190  0.01020  Biso   1.000  C
  C68      1.0000 0.42170  0.91800  0.01720  Biso   1.000  C
  N16      1.0000 0.37930  0.64900  0.83030  Biso   1.000  N
  H65      1.0000 0.38550  0.71080  0.87640  Biso   1.000  H
  H66      1.0000 0.40370  0.66720  0.80780  Biso   1.000  H
  H67      1.0000 0.26310  0.34150  0.73600  Biso   1.000  H
  N17      1.0000 0.25330  0.31190  0.73680  Biso   1.000  N
  H68      1.0000 0.25250  0.25610  0.69850  Biso   1.000  H
  H69      1.0000 0.23350  0.31400  0.76270  Biso   1.000  H
  H70      1.0000 0.36930  0.61530  0.82390  Biso   1.000  H
  C69      1.0000 0.49640  0.88940  0.04060  Biso   1.000  C
  H71      1.0000 0.49370  0.81150  0.06750  Biso   1.000  H
  C70      1.0000 0.46670  0.07290  0.97130  Biso   1.000  C
  H72      1.0000 0.44380  0.12270  0.95070  Biso   1.000  H
  O37      1.0000 0.41940  0.82540  0.06010  Biso   1.000  O
  O38      1.0000 0.39260  0.97810  0.98410  Biso   1.000  O
  N18      1.0000 0.49940  0.78400  0.09600  Biso   1.000  N
  H73      1.0000 0.52210  0.75370  0.11620  Biso   1.000  H
  H74      1.0000 0.47850  0.75210  0.10800  Biso   1.000  H
  C71      1.0000 0.49520  0.93690  0.06880  Biso   1.000  C
  H75      1.0000 0.49220  0.89320  0.11420  Biso   1.000  H
  C72      1.0000 0.46870  0.02760  0.94620  Biso   1.000  C
  H76      1.0000 0.44590  0.04790  0.90890  Biso   1.000  H
  O39      1.0000 0.41780  0.86710  0.08060  Biso   1.000  O
  O40      1.0000 0.39360  0.93910  0.96290  Biso   1.000  O
  N19      1.0000 0.49850  0.84900  0.13350  Biso   1.000  N
  H77      1.0000 0.52130  0.82490  0.15730  Biso   1.000  H
  H78      1.0000 0.47770  0.82080  0.14750  Biso   1.000  H
  N20      1.0000 0.30590  0.24000  0.13660  Biso   1.000  N
  H79      1.0000 0.31970  0.16790  0.15020  Biso   1.000  H
  H80      1.0000 0.30920  0.30870  0.16740  Biso   1.000  H
  Cd5      1.0000 0.85146  0.67223  0.53751  Biso   1.000  Cd
  O41      1.0000 0.84445  0.79410  0.43620  Biso   1.000  O
  O42      1.0000 0.78653  0.87690  0.44610  Biso   1.000  O
  O43      1.0000 0.85034  0.19200  0.13080  Biso   1.000  O
  O44      1.0000 0.78680  0.22840  0.11620  Biso   1.000  O
  O45      1.0000 0.82756  0.47920  0.58180  Biso   1.000  O
  O46      1.0000 0.79025  0.57270  0.48390  Biso   1.000  O
  C73      1.0000 0.81607  0.94590  0.34480  Biso   1.000  C
  C74      1.0000 0.84760  0.94080  0.30780  Biso   1.000  C
  C75      1.0000 0.84680  0.01590  0.24440  Biso   1.000  C
  H81      1.0000 0.86870  0.01260  0.21900  Biso   1.000  H
  C76      1.0000 0.81674  0.09660  0.21740  Biso   1.000  C
  C77      1.0000 0.78450  0.09910  0.25440  Biso   1.000  C
  C78      1.0000 0.78512  0.02590  0.31760  Biso   1.000  C
  H82      1.0000 0.76350  0.03140  0.34390  Biso   1.000  H
  C79      1.0000 0.81600  0.86640  0.41410  Biso   1.000  C
  C80      1.0000 0.81760  0.17650  0.14900  Biso   1.000  C
  C81      1.0000 0.77299  0.36040  0.51700  Biso   1.000  C
  C82      1.0000 0.77883  0.25520  0.56580  Biso   1.000  C
  H83      1.0000 0.79830  0.25900  0.61140  Biso   1.000  H
  C83      1.0000 0.74319  0.35250  0.45090  Biso   1.000  C
  H84      1.0000 0.73890  0.42450  0.41720  Biso   1.000  H
  C84      1.0000 0.79808  0.47880  0.52910  Biso   1.000  C
  C85      1.0000 0.96320  0.53810  0.51020  Biso   1.000  C
  C86      1.0000 0.92170  0.58200  0.51720  Biso   1.000  C
  N21      1.0000 0.87930  0.85100  0.33030  Biso   1.000  N
  H85      1.0000 0.88550  0.78920  0.37640  Biso   1.000  H
  H86      1.0000 0.90370  0.83280  0.30780  Biso   1.000  H
  H87      1.0000 0.76310  0.15850  0.23600  Biso   1.000  H
  N22      1.0000 0.75330  0.18810  0.23680  Biso   1.000  N
  H88      1.0000 0.75250  0.24390  0.19850  Biso   1.000  H
  H89      1.0000 0.73350  0.18600  0.26270  Biso   1.000  H
  H90      1.0000 0.86930  0.88470  0.32390  Biso   1.000  H
  C87      1.0000 0.99640  0.61060  0.54060  Biso   1.000  C
  H91      1.0000 0.99370  0.68850  0.56750  Biso   1.000  H
  C88      1.0000 0.96670  0.42710  0.47130  Biso   1.000  C
  H92      1.0000 0.94380  0.37730  0.45070  Biso   1.000  H
  O47      1.0000 0.91940  0.67460  0.56010  Biso   1.000  O
  O48      1.0000 0.89260  0.52190  0.48410  Biso   1.000  O
  N23      1.0000 0.99940  0.71600  0.59600  Biso   1.000  N
  H93      1.0000 0.02210  0.74630  0.61620  Biso   1.000  H
  H94      1.0000 0.97850  0.74790  0.60800  Biso   1.000  H
  C89      1.0000 0.99520  0.56310  0.56880  Biso   1.000  C
  H95      1.0000 0.99220  0.60680  0.61420  Biso   1.000  H
  C90      1.0000 0.96870  0.47240  0.44620  Biso   1.000  C
  H96      1.0000 0.94590  0.45210  0.40890  Biso   1.000  H
  O49      1.0000 0.91780  0.63290  0.58060  Biso   1.000  O
  O50      1.0000 0.89360  0.56090  0.46290  Biso   1.000  O
  N24      1.0000 0.99850  0.65100  0.63350  Biso   1.000  N
  H97      1.0000 0.02130  0.67510  0.65730  Biso   1.000  H
  H98      1.0000 0.97770  0.67920  0.64750  Biso   1.000  H
  N25      1.0000 0.80590  0.26000  0.63660  Biso   1.000  N
  H99      1.0000 0.81970  0.33210  0.65020  Biso   1.000  H
  H100     1.0000 0.80920  0.19130  0.66740  Biso   1.000  H
  Cd6      1.0000 0.35146  0.17223  0.53751  Biso   1.000  Cd
  O51      1.0000 0.34445  0.29410  0.43620  Biso   1.000  O
  O52      1.0000 0.28653  0.37690  0.44610  Biso   1.000  O
  O53      1.0000 0.35034  0.69200  0.13080  Biso   1.000  O
  O54      1.0000 0.28680  0.72840  0.11620  Biso   1.000  O
  O55      1.0000 0.32756  0.97920  0.58180  Biso   1.000  O
  O56      1.0000 0.29025  0.07270  0.48390  Biso   1.000  O
  C91      1.0000 0.31607  0.44590  0.34480  Biso   1.000  C
  C92      1.0000 0.34760  0.44080  0.30780  Biso   1.000  C
  C93      1.0000 0.34680  0.51590  0.24440  Biso   1.000  C
  H101     1.0000 0.36870  0.51260  0.21900  Biso   1.000  H
  C94      1.0000 0.31674  0.59660  0.21740  Biso   1.000  C
  C95      1.0000 0.28450  0.59910  0.25440  Biso   1.000  C
  C96      1.0000 0.28512  0.52590  0.31760  Biso   1.000  C
  H102     1.0000 0.26350  0.53140  0.34390  Biso   1.000  H
  C97      1.0000 0.31600  0.36640  0.41410  Biso   1.000  C
  C98      1.0000 0.31760  0.67650  0.14900  Biso   1.000  C
  C99      1.0000 0.27299  0.86040  0.51700  Biso   1.000  C
  C100     1.0000 0.27883  0.75520  0.56580  Biso   1.000  C
  H103     1.0000 0.29830  0.75900  0.61140  Biso   1.000  H
  C101     1.0000 0.24319  0.85250  0.45090  Biso   1.000  C
  H104     1.0000 0.23890  0.92450  0.41720  Biso   1.000  H
  C102     1.0000 0.29808  0.97880  0.52910  Biso   1.000  C
  C103     1.0000 0.46320  0.03810  0.51020  Biso   1.000  C
  C104     1.0000 0.42170  0.08200  0.51720  Biso   1.000  C
  N26      1.0000 0.37930  0.35100  0.33030  Biso   1.000  N
  H105     1.0000 0.38550  0.28920  0.37640  Biso   1.000  H
  H106     1.0000 0.40370  0.33280  0.30780  Biso   1.000  H
  H107     1.0000 0.26310  0.65850  0.23600  Biso   1.000  H
  N27      1.0000 0.25330  0.68810  0.23680  Biso   1.000  N
  H108     1.0000 0.25250  0.74390  0.19850  Biso   1.000  H
  H109     1.0000 0.23350  0.68600  0.26270  Biso   1.000  H
  H110     1.0000 0.36930  0.38470  0.32390  Biso   1.000  H
  C105     1.0000 0.49640  0.11060  0.54060  Biso   1.000  C
  H111     1.0000 0.49370  0.18850  0.56750  Biso   1.000  H
  C106     1.0000 0.46670  0.92710  0.47130  Biso   1.000  C
  H112     1.0000 0.44380  0.87730  0.45070  Biso   1.000  H
  O57      1.0000 0.41940  0.17460  0.56010  Biso   1.000  O
  O58      1.0000 0.39260  0.02190  0.48410  Biso   1.000  O
  N28      1.0000 0.49940  0.21600  0.59600  Biso   1.000  N
  H113     1.0000 0.52210  0.24630  0.61620  Biso   1.000  H
  H114     1.0000 0.47850  0.24790  0.60800  Biso   1.000  H
  C107     1.0000 0.49520  0.06310  0.56880  Biso   1.000  C
  H115     1.0000 0.49220  0.10680  0.61420  Biso   1.000  H
  C108     1.0000 0.46870  0.97240  0.44620  Biso   1.000  C
  H116     1.0000 0.44590  0.95210  0.40890  Biso   1.000  H
  O59      1.0000 0.41780  0.13290  0.58060  Biso   1.000  O
  O60      1.0000 0.39360  0.06090  0.46290  Biso   1.000  O
  N29      1.0000 0.49850  0.15100  0.63350  Biso   1.000  N
  H117     1.0000 0.52130  0.17510  0.65730  Biso   1.000  H
  H118     1.0000 0.47770  0.17920  0.64750  Biso   1.000  H
  N30      1.0000 0.30590  0.76000  0.63660  Biso   1.000  N
  H119     1.0000 0.31970  0.83210  0.65020  Biso   1.000  H
  H120     1.0000 0.30920  0.69130  0.66740  Biso   1.000  H
  Cd7      1.0000 0.14854  0.67223  0.96249  Biso   1.000  Cd
  O61      1.0000 0.15555  0.79410  0.06380  Biso   1.000  O
  O62      1.0000 0.21347  0.87690  0.05390  Biso   1.000  O
  O63      1.0000 0.14966  0.19200  0.36920  Biso   1.000  O
  O64      1.0000 0.21320  0.22840  0.38380  Biso   1.000  O
  O65      1.0000 0.17244  0.47920  0.91820  Biso   1.000  O
  O66      1.0000 0.20975  0.57270  0.01610  Biso   1.000  O
  C109     1.0000 0.18393  0.94590  0.15520  Biso   1.000  C
  C110     1.0000 0.15240  0.94080  0.19220  Biso   1.000  C
  C111     1.0000 0.15320  0.01590  0.25560  Biso   1.000  C
  H121     1.0000 0.13130  0.01260  0.28100  Biso   1.000  H
  C112     1.0000 0.18326  0.09660  0.28260  Biso   1.000  C
  C113     1.0000 0.21550  0.09910  0.24560  Biso   1.000  C
  C114     1.0000 0.21488  0.02590  0.18240  Biso   1.000  C
  H122     1.0000 0.23650  0.03140  0.15610  Biso   1.000  H
  C115     1.0000 0.18400  0.86640  0.08590  Biso   1.000  C
  C116     1.0000 0.18240  0.17650  0.35100  Biso   1.000  C
  C117     1.0000 0.22701  0.36040  0.98300  Biso   1.000  C
  C118     1.0000 0.22117  0.25520  0.93420  Biso   1.000  C
  H123     1.0000 0.20170  0.25900  0.88860  Biso   1.000  H
  C119     1.0000 0.25681  0.35250  0.04910  Biso   1.000  C
  H124     1.0000 0.26110  0.42450  0.08280  Biso   1.000  H
  C120     1.0000 0.20192  0.47880  0.97090  Biso   1.000  C
  C121     1.0000 0.03680  0.53810  0.98980  Biso   1.000  C
  C122     1.0000 0.07830  0.58200  0.98280  Biso   1.000  C
  N31      1.0000 0.12070  0.85100  0.16970  Biso   1.000  N
  H125     1.0000 0.11450  0.78920  0.12360  Biso   1.000  H
  H126     1.0000 0.09630  0.83280  0.19220  Biso   1.000  H
  H127     1.0000 0.23690  0.15850  0.26400  Biso   1.000  H
  N32      1.0000 0.24670  0.18810  0.26320  Biso   1.000  N
  H128     1.0000 0.24750  0.24390  0.30150  Biso   1.000  H
  H129     1.0000 0.26650  0.18600  0.23730  Biso   1.000  H
  H130     1.0000 0.13070  0.88470  0.17610  Biso   1.000  H
  C123     1.0000 0.00360  0.61060  0.95940  Biso   1.000  C
  H131     1.0000 0.00630  0.68850  0.93250  Biso   1.000  H
  C124     1.0000 0.03330  0.42710  0.02870  Biso   1.000  C
  H132     1.0000 0.05620  0.37730  0.04930  Biso   1.000  H
  O67      1.0000 0.08060  0.67460  0.93990  Biso   1.000  O
  O68      1.0000 0.10740  0.52190  0.01590  Biso   1.000  O
  N33      1.0000 0.00060  0.71600  0.90400  Biso   1.000  N
  H133     1.0000 0.97790  0.74630  0.88380  Biso   1.000  H
  H134     1.0000 0.02150  0.74790  0.89200  Biso   1.000  H
  C125     1.0000 0.00480  0.56310  0.93120  Biso   1.000  C
  H135     1.0000 0.00780  0.60680  0.88580  Biso   1.000  H
  C126     1.0000 0.03130  0.47240  0.05380  Biso   1.000  C
  H136     1.0000 0.05410  0.45210  0.09110  Biso   1.000  H
  O69      1.0000 0.08220  0.63290  0.91940  Biso   1.000  O
  O70      1.0000 0.10640  0.56090  0.03710  Biso   1.000  O
  N34      1.0000 0.00150  0.65100  0.86650  Biso   1.000  N
  H137     1.0000 0.97870  0.67510  0.84270  Biso   1.000  H
  H138     1.0000 0.02230  0.67920  0.85250  Biso   1.000  H
  N35      1.0000 0.19410  0.26000  0.86340  Biso   1.000  N
  H139     1.0000 0.18030  0.33210  0.84980  Biso   1.000  H
  H140     1.0000 0.19080  0.19130  0.83260  Biso   1.000  H
  Cd8      1.0000 0.64854  0.17223  0.96249  Biso   1.000  Cd
  O71      1.0000 0.65555  0.29410  0.06380  Biso   1.000  O
  O72      1.0000 0.71347  0.37690  0.05390  Biso   1.000  O
  O73      1.0000 0.64966  0.69200  0.36920  Biso   1.000  O
  O74      1.0000 0.71320  0.72840  0.38380  Biso   1.000  O
  O75      1.0000 0.67244  0.97920  0.91820  Biso   1.000  O
  O76      1.0000 0.70975  0.07270  0.01610  Biso   1.000  O
  C127     1.0000 0.68393  0.44590  0.15520  Biso   1.000  C
  C128     1.0000 0.65240  0.44080  0.19220  Biso   1.000  C
  C129     1.0000 0.65320  0.51590  0.25560  Biso   1.000  C
  H141     1.0000 0.63130  0.51260  0.28100  Biso   1.000  H
  C130     1.0000 0.68326  0.59660  0.28260  Biso   1.000  C
  C131     1.0000 0.71550  0.59910  0.24560  Biso   1.000  C
  C132     1.0000 0.71488  0.52590  0.18240  Biso   1.000  C
  H142     1.0000 0.73650  0.53140  0.15610  Biso   1.000  H
  C133     1.0000 0.68400  0.36640  0.08590  Biso   1.000  C
  C134     1.0000 0.68240  0.67650  0.35100  Biso   1.000  C
  C135     1.0000 0.72701  0.86040  0.98300  Biso   1.000  C
  C136     1.0000 0.72117  0.75520  0.93420  Biso   1.000  C
  H143     1.0000 0.70170  0.75900  0.88860  Biso   1.000  H
  C137     1.0000 0.75681  0.85250  0.04910  Biso   1.000  C
  H144     1.0000 0.76110  0.92450  0.08280  Biso   1.000  H
  C138     1.0000 0.70192  0.97880  0.97090  Biso   1.000  C
  C139     1.0000 0.53680  0.03810  0.98980  Biso   1.000  C
  C140     1.0000 0.57830  0.08200  0.98280  Biso   1.000  C
  N36      1.0000 0.62070  0.35100  0.16970  Biso   1.000  N
  H145     1.0000 0.61450  0.28920  0.12360  Biso   1.000  H
  H146     1.0000 0.59630  0.33280  0.19220  Biso   1.000  H
  H147     1.0000 0.73690  0.65850  0.26400  Biso   1.000  H
  N37      1.0000 0.74670  0.68810  0.26320  Biso   1.000  N
  H148     1.0000 0.74750  0.74390  0.30150  Biso   1.000  H
  H149     1.0000 0.76650  0.68600  0.23730  Biso   1.000  H
  H150     1.0000 0.63070  0.38470  0.17610  Biso   1.000  H
  C141     1.0000 0.50360  0.11060  0.95940  Biso   1.000  C
  H151     1.0000 0.50630  0.18850  0.93250  Biso   1.000  H
  C142     1.0000 0.53330  0.92710  0.02870  Biso   1.000  C
  H152     1.0000 0.55620  0.87730  0.04930  Biso   1.000  H
  O77      1.0000 0.58060  0.17460  0.93990  Biso   1.000  O
  O78      1.0000 0.60740  0.02190  0.01590  Biso   1.000  O
  N38      1.0000 0.50060  0.21600  0.90400  Biso   1.000  N
  H153     1.0000 0.47790  0.24630  0.88380  Biso   1.000  H
  H154     1.0000 0.52150  0.24790  0.89200  Biso   1.000  H
  C143     1.0000 0.50480  0.06310  0.93120  Biso   1.000  C
  H155     1.0000 0.50780  0.10680  0.88580  Biso   1.000  H
  C144     1.0000 0.53130  0.97240  0.05380  Biso   1.000  C
  H156     1.0000 0.55410  0.95210  0.09110  Biso   1.000  H
  O79      1.0000 0.58220  0.13290  0.91940  Biso   1.000  O
  O80      1.0000 0.60640  0.06090  0.03710  Biso   1.000  O
  N39      1.0000 0.50150  0.15100  0.86650  Biso   1.000  N
  H157     1.0000 0.47870  0.17510  0.84270  Biso   1.000  H
  H158     1.0000 0.52230  0.17920  0.85250  Biso   1.000  H
  N40      1.0000 0.69410  0.76000  0.86340  Biso   1.000  N
  H159     1.0000 0.68030  0.83210  0.84980  Biso   1.000  H
  H160     1.0000 0.69080  0.69130  0.83260  Biso   1.000  H
  Cd9      1.0000 0.25000  0.25000  0.50000  Biso   1.000  Cd
  Cd10     1.0000 0.75000  0.25000  0.00000  Biso   1.000  Cd
  Cd11     1.0000 0.75000  0.75000  0.50000  Biso   1.000  Cd
  Cd12     1.0000 0.25000  0.75000  0.00000  Biso   1.000  Cd
