data_MIZPUI_clean
_audit_creation_date              2015-10-16
_audit_creation_method            'Materials Studio'
_symmetry_space_group_name_H-M    'P1'
_symmetry_Int_Tables_number       1
_symmetry_cell_setting            triclinic
loop_
_symmetry_equiv_pos_as_xyz
  x,y,z
_cell_length_a                    16.9323
_cell_length_b                    16.9323
_cell_length_c                    16.9323
_cell_angle_alpha                 67.0170
_cell_angle_beta                  67.0170
_cell_angle_gamma                 67.0170
loop_
_atom_site_label
_atom_site_type_symbol
_atom_site_fract_x
_atom_site_fract_y
_atom_site_fract_z
_atom_site_U_iso_or_equiv
_atom_site_adp_type
_atom_site_occupancy
Cu1    Cu    0.57464   0.00529   0.00529   0.01267  Uiso   1.00
Cu2    Cu    0.00529   0.57464   0.00529   0.01267  Uiso   1.00
Cu3    Cu    0.99471   0.99471   0.42536   0.01267  Uiso   1.00
Cu4    Cu    0.99471   0.42536   0.99471   0.01267  Uiso   1.00
Cu5    Cu    0.00529   0.00529   0.57464   0.01267  Uiso   1.00
Cu6    Cu    0.42536   0.99471   0.99471   0.01267  Uiso   1.00
B1     B     0.43980   0.03250   0.59050   0.01267  Uiso   1.00
B2     B     0.40330   0.07100   0.49470   0.01267  Uiso   1.00
B3     B     0.43980   0.59050   0.03250   0.01267  Uiso   1.00
B4     B     0.40950   0.56020   0.96750   0.01267  Uiso   1.00
B5     B     0.92900   0.59670   0.50530   0.01267  Uiso   1.00
B6     B     0.49470   0.40330   0.07100   0.01267  Uiso   1.00
B7     B     0.10110   0.49345   0.49345   0.01267  Uiso   1.00
B8     B     0.56020   0.40950   0.96750   0.01267  Uiso   1.00
B9     B     0.96750   0.56020   0.40950   0.01267  Uiso   1.00
B10    B     0.40330   0.49470   0.07100   0.01267  Uiso   1.00
B11    B     0.96750   0.40950   0.56020   0.01267  Uiso   1.00
B12    B     0.50530   0.59670   0.92900   0.01267  Uiso   1.00
B13    B     0.92900   0.50530   0.59670   0.01267  Uiso   1.00
B14    B     0.03250   0.43980   0.59050   0.01267  Uiso   1.00
B15    B     0.59670   0.50530   0.92900   0.01267  Uiso   1.00
B16    B     0.07100   0.49470   0.40330   0.01267  Uiso   1.00
B17    B     0.49345   0.10110   0.49345   0.01267  Uiso   1.00
B18    B     0.59050   0.43980   0.03250   0.01267  Uiso   1.00
B19    B     0.50530   0.92900   0.59670   0.01267  Uiso   1.00
B20    B     0.07100   0.40330   0.49470   0.01267  Uiso   1.00
B21    B     0.59670   0.92900   0.50530   0.01267  Uiso   1.00
B22    B     0.59050   0.03250   0.43980   0.01267  Uiso   1.00
B23    B     0.49345   0.49345   0.10110   0.01267  Uiso   1.00
B24    B     0.50655   0.50655   0.89890   0.01267  Uiso   1.00
B25    B     0.40950   0.96750   0.56020   0.01267  Uiso   1.00
B26    B     0.56020   0.96750   0.40950   0.01267  Uiso   1.00
B27    B     0.89890   0.50655   0.50655   0.01267  Uiso   1.00
B28    B     0.49470   0.07100   0.40330   0.01267  Uiso   1.00
B29    B     0.50655   0.89890   0.50655   0.01267  Uiso   1.00
B30    B     0.03250   0.59050   0.43980   0.01267  Uiso   1.00
H1     H     0.50990   0.87920   0.66290   0.01267  Uiso   1.00
H2     H     0.02980   0.73235   0.73235   0.01267  Uiso   1.00
H3     H     0.50550   0.71850   0.01820   0.01267  Uiso   1.00
H4     H     0.94490   0.60120   0.34790   0.01267  Uiso   1.00
H5     H     0.39880   0.05510   0.65210   0.01267  Uiso   1.00
H6     H     0.48915   0.48915   0.17030   0.01267  Uiso   1.00
H7     H     0.49010   0.12080   0.33710   0.01267  Uiso   1.00
H8     H     0.05510   0.65210   0.39880   0.01267  Uiso   1.00
H9     H     0.48915   0.17030   0.48915   0.01267  Uiso   1.00
H10    H     0.26765   0.97020   0.26765   0.01267  Uiso   1.00
H11    H     0.82970   0.51085   0.51085   0.01267  Uiso   1.00
H12    H     0.50990   0.66290   0.87920   0.01267  Uiso   1.00
H13    H     0.66290   0.87920   0.50990   0.01267  Uiso   1.00
H14    H     0.73235   0.02980   0.73235   0.01267  Uiso   1.00
H15    H     0.05510   0.39880   0.65210   0.01267  Uiso   1.00
H16    H     0.34790   0.94490   0.60120   0.01267  Uiso   1.00
H17    H     0.50550   0.01820   0.71850   0.01267  Uiso   1.00
H18    H     0.34790   0.60120   0.94490   0.01267  Uiso   1.00
H19    H     0.65210   0.39880   0.05510   0.01267  Uiso   1.00
H20    H     0.65210   0.05510   0.39880   0.01267  Uiso   1.00
H21    H     0.60120   0.34790   0.94490   0.01267  Uiso   1.00
H22    H     0.17030   0.48915   0.48915   0.01267  Uiso   1.00
H23    H     0.12080   0.49010   0.33710   0.01267  Uiso   1.00
H24    H     0.28150   0.49450   0.98180   0.01267  Uiso   1.00
H25    H     0.97020   0.26765   0.26765   0.01267  Uiso   1.00
H26    H     0.33710   0.12080   0.49010   0.01267  Uiso   1.00
H27    H     0.71850   0.50550   0.01820   0.01267  Uiso   1.00
H28    H     0.71850   0.01820   0.50550   0.01267  Uiso   1.00
H29    H     0.66290   0.50990   0.87920   0.01267  Uiso   1.00
H30    H     0.60120   0.94490   0.34790   0.01267  Uiso   1.00
H31    H     0.49450   0.98180   0.28150   0.01267  Uiso   1.00
H32    H     0.39880   0.65210   0.05510   0.01267  Uiso   1.00
H33    H     0.01820   0.71850   0.50550   0.01267  Uiso   1.00
H34    H     0.87920   0.50990   0.66290   0.01267  Uiso   1.00
H35    H     0.98180   0.49450   0.28150   0.01267  Uiso   1.00
H36    H     0.49450   0.28150   0.98180   0.01267  Uiso   1.00
H37    H     0.28150   0.98180   0.49450   0.01267  Uiso   1.00
H38    H     0.33710   0.49010   0.12080   0.01267  Uiso   1.00
H39    H     0.98180   0.28150   0.49450   0.01267  Uiso   1.00
H40    H     0.26765   0.26765   0.97020   0.01267  Uiso   1.00
H41    H     0.01820   0.50550   0.71850   0.01267  Uiso   1.00
H42    H     0.12080   0.33710   0.49010   0.01267  Uiso   1.00
H43    H     0.51085   0.51085   0.82970   0.01267  Uiso   1.00
H44    H     0.49010   0.33710   0.12080   0.01267  Uiso   1.00
H45    H     0.94490   0.34790   0.60120   0.01267  Uiso   1.00
H46    H     0.73235   0.73235   0.02980   0.01267  Uiso   1.00
H47    H     0.87920   0.66290   0.50990   0.01267  Uiso   1.00
H48    H     0.51085   0.82970   0.51085   0.01267  Uiso   1.00
C1     C     0.02604   0.73894   0.61144   0.01267  Uiso   1.00
C2     C     0.69939   0.02759   0.69939   0.01267  Uiso   1.00
C3     C     0.99120   0.44765   0.44765   0.01267  Uiso   1.00
C4     C     0.02042   0.56562   0.69042   0.01267  Uiso   1.00
C5     C     0.30061   0.30061   0.97241   0.01267  Uiso   1.00
C6     C     0.69939   0.69939   0.02759   0.01267  Uiso   1.00
C7     C     0.57021   0.83551   0.02131   0.01267  Uiso   1.00
C8     C     0.39655   0.39655   0.98210   0.01267  Uiso   1.00
C9     C     0.97869   0.16449   0.42979   0.01267  Uiso   1.00
C10    C     0.97958   0.43438   0.30958   0.01267  Uiso   1.00
C11    C     0.97396   0.38856   0.26106   0.01267  Uiso   1.00
C12    C     0.60345   0.01790   0.60345   0.01267  Uiso   1.00
C13    C     0.98210   0.39655   0.39655   0.01267  Uiso   1.00
C14    C     0.30958   0.43438   0.97958   0.01267  Uiso   1.00
C15    C     0.61144   0.02604   0.73894   0.01267  Uiso   1.00
C16    C     0.43438   0.30958   0.97958   0.01267  Uiso   1.00
C17    C     0.97869   0.42979   0.16449   0.01267  Uiso   1.00
C18    C     0.60345   0.60345   0.01790   0.01267  Uiso   1.00
C19    C     0.39655   0.98210   0.39655   0.01267  Uiso   1.00
C20    C     0.26106   0.97396   0.38856   0.01267  Uiso   1.00
C21    C     0.38856   0.97396   0.26106   0.01267  Uiso   1.00
C22    C     0.55235   0.00880   0.55235   0.01267  Uiso   1.00
C23    C     0.69042   0.02042   0.56562   0.01267  Uiso   1.00
C24    C     0.55235   0.55235   0.00880   0.01267  Uiso   1.00
C25    C     0.01790   0.60345   0.60345   0.01267  Uiso   1.00
C26    C     0.56562   0.69042   0.02042   0.01267  Uiso   1.00
C27    C     0.57021   0.02131   0.83551   0.01267  Uiso   1.00
C28    C     0.44765   0.99120   0.44765   0.01267  Uiso   1.00
C29    C     0.16449   0.97869   0.42979   0.01267  Uiso   1.00
C30    C     0.97241   0.30061   0.30061   0.01267  Uiso   1.00
C31    C     0.73894   0.61144   0.02604   0.01267  Uiso   1.00
C32    C     0.83551   0.57021   0.02131   0.01267  Uiso   1.00
C33    C     0.30061   0.97241   0.30061   0.01267  Uiso   1.00
C34    C     0.69042   0.56562   0.02042   0.01267  Uiso   1.00
C35    C     0.42979   0.97869   0.16449   0.01267  Uiso   1.00
C36    C     0.16449   0.42979   0.97869   0.01267  Uiso   1.00
C37    C     0.02131   0.83551   0.57021   0.01267  Uiso   1.00
C38    C     0.44765   0.44765   0.99120   0.01267  Uiso   1.00
C39    C     0.42979   0.16449   0.97869   0.01267  Uiso   1.00
C40    C     0.02759   0.69939   0.69939   0.01267  Uiso   1.00
C41    C     0.61144   0.73894   0.02604   0.01267  Uiso   1.00
C42    C     0.02042   0.69042   0.56562   0.01267  Uiso   1.00
C43    C     0.26106   0.38856   0.97396   0.01267  Uiso   1.00
C44    C     0.97396   0.26106   0.38856   0.01267  Uiso   1.00
C45    C     0.83551   0.02131   0.57021   0.01267  Uiso   1.00
C46    C     0.00880   0.55235   0.55235   0.01267  Uiso   1.00
C47    C     0.97958   0.30958   0.43438   0.01267  Uiso   1.00
C48    C     0.02604   0.61144   0.73894   0.01267  Uiso   1.00
C49    C     0.73894   0.02604   0.61144   0.01267  Uiso   1.00
C50    C     0.30958   0.97958   0.43438   0.01267  Uiso   1.00
C51    C     0.56562   0.02042   0.69042   0.01267  Uiso   1.00
C52    C     0.43438   0.97958   0.30958   0.01267  Uiso   1.00
C53    C     0.38856   0.26106   0.97396   0.01267  Uiso   1.00
C54    C     0.02131   0.57021   0.83551   0.01267  Uiso   1.00
O1     O     0.87682   0.61752   0.02272   0.01267  Uiso   1.00
O2     O     0.87682   0.02272   0.61752   0.01267  Uiso   1.00
O3     O     0.38248   0.12318   0.97728   0.01267  Uiso   1.00
O4     O     0.97728   0.12318   0.38248   0.01267  Uiso   1.00
O5     O     0.13267   0.98557   0.50867   0.01267  Uiso   1.00
O6     O     0.12318   0.38248   0.97728   0.01267  Uiso   1.00
O7     O     0.61752   0.02272   0.87682   0.01267  Uiso   1.00
O8     O     0.49133   0.86733   0.01443   0.01267  Uiso   1.00
O9     O     0.50867   0.98557   0.13267   0.01267  Uiso   1.00
O10    O     0.98557   0.13267   0.50867   0.01267  Uiso   1.00
O11    O     0.98557   0.50867   0.13267   0.01267  Uiso   1.00
O12    O     0.01443   0.86733   0.49133   0.01267  Uiso   1.00
O13    O     0.49133   0.01443   0.86733   0.01267  Uiso   1.00
O14    O     0.61752   0.87682   0.02272   0.01267  Uiso   1.00
O15    O     0.02272   0.87682   0.61752   0.01267  Uiso   1.00
O16    O     0.38248   0.97728   0.12318   0.01267  Uiso   1.00
O17    O     0.02272   0.61752   0.87682   0.01267  Uiso   1.00
O18    O     0.13267   0.50867   0.98557   0.01267  Uiso   1.00
O19    O     0.50867   0.13267   0.98557   0.01267  Uiso   1.00
O20    O     0.97728   0.38248   0.12318   0.01267  Uiso   1.00
O21    O     0.86733   0.01443   0.49133   0.01267  Uiso   1.00
O22    O     0.01443   0.49133   0.86733   0.01267  Uiso   1.00
O23    O     0.86733   0.49133   0.01443   0.01267  Uiso   1.00
O24    O     0.12318   0.97728   0.38248   0.01267  Uiso   1.00
