data_image0
_cell_length_a       9.5935
_cell_length_b       9.5935
_cell_length_c       13.836
_cell_angle_alpha    90
_cell_angle_beta     90
_cell_angle_gamma    120

_symmetry_space_group_name_H-M    "P 1"
_symmetry_int_tables_number       1

loop_
  _symmetry_equiv_pos_as_xyz
  'x, y, z'

loop_
  _atom_site_label
  _atom_site_occupancy
  _atom_site_fract_x
  _atom_site_fract_y
  _atom_site_fract_z
  _atom_site_thermal_displace_type
  _atom_site_B_iso_or_equiv
  _atom_site_type_symbol
  C1       1.0000 0.11380  0.11620  0.04910  Biso   1.000  C
  C2       1.0000 0.88380  0.99760  0.04910  Biso   1.000  C
  C3       1.0000 0.00240  0.88620  0.04910  Biso   1.000  C
  C4       1.0000 0.88620  0.88380  0.54910  Biso   1.000  C
  C5       1.0000 0.11620  0.00240  0.54910  Biso   1.000  C
  C6       1.0000 0.99760  0.11380  0.54910  Biso   1.000  C
  C7       1.0000 0.11620  0.11380  0.95090  Biso   1.000  C
  C8       1.0000 0.99760  0.88380  0.95090  Biso   1.000  C
  C9       1.0000 0.88620  0.00240  0.95090  Biso   1.000  C
  C10      1.0000 0.88380  0.88620  0.45090  Biso   1.000  C
  C11      1.0000 0.00240  0.11620  0.45090  Biso   1.000  C
  C12      1.0000 0.11380  0.99760  0.45090  Biso   1.000  C
  C13      1.0000 0.88620  0.88380  0.95090  Biso   1.000  C
  C14      1.0000 0.11620  0.00240  0.95090  Biso   1.000  C
  C15      1.0000 0.99760  0.11380  0.95090  Biso   1.000  C
  C16      1.0000 0.11380  0.11620  0.45090  Biso   1.000  C
  C17      1.0000 0.88380  0.99760  0.45090  Biso   1.000  C
  C18      1.0000 0.00240  0.88620  0.45090  Biso   1.000  C
  C19      1.0000 0.88380  0.88620  0.04910  Biso   1.000  C
  C20      1.0000 0.00240  0.11620  0.04910  Biso   1.000  C
  C21      1.0000 0.11380  0.99760  0.04910  Biso   1.000  C
  C22      1.0000 0.11620  0.11380  0.54910  Biso   1.000  C
  C23      1.0000 0.99760  0.88380  0.54910  Biso   1.000  C
  C24      1.0000 0.88620  0.00240  0.54910  Biso   1.000  C
  Ni1      1.0000 0.00000  0.00000  0.25000  Biso   1.000  Ni
  Ni2      1.0000 0.00000  0.00000  0.75000  Biso   1.000  Ni
  O1       1.0000 0.24850  0.23560  0.25000  Biso   1.000  O
  O2       1.0000 0.30330  0.36370  0.25000  Biso   1.000  O
  C25      1.0000 0.33970  0.25310  0.25000  Biso   1.000  C
  C26      1.0000 0.52430  0.33570  0.25000  Biso   1.000  C
  O3       1.0000 0.76440  0.01290  0.25000  Biso   1.000  O
  O4       1.0000 0.63630  0.93960  0.25000  Biso   1.000  O
  C27      1.0000 0.74690  0.08660  0.25000  Biso   1.000  C
  C28      1.0000 0.66430  0.18860  0.25000  Biso   1.000  C
  O5       1.0000 0.98710  0.75150  0.25000  Biso   1.000  O
  O6       1.0000 0.06040  0.69670  0.25000  Biso   1.000  O
  C29      1.0000 0.91340  0.66030  0.25000  Biso   1.000  C
  C30      1.0000 0.81140  0.47570  0.25000  Biso   1.000  C
  O7       1.0000 0.75150  0.76440  0.75000  Biso   1.000  O
  O8       1.0000 0.69670  0.63630  0.75000  Biso   1.000  O
  C31      1.0000 0.66030  0.74690  0.75000  Biso   1.000  C
  C32      1.0000 0.47570  0.66430  0.75000  Biso   1.000  C
  O9       1.0000 0.23560  0.98710  0.75000  Biso   1.000  O
  O10      1.0000 0.36370  0.06040  0.75000  Biso   1.000  O
  C33      1.0000 0.25310  0.91340  0.75000  Biso   1.000  C
  C34      1.0000 0.33570  0.81140  0.75000  Biso   1.000  C
  O11      1.0000 0.01290  0.24850  0.75000  Biso   1.000  O
  O12      1.0000 0.93960  0.30330  0.75000  Biso   1.000  O
  C35      1.0000 0.08660  0.33970  0.75000  Biso   1.000  C
  C36      1.0000 0.18860  0.52430  0.75000  Biso   1.000  C
  O13      1.0000 0.23560  0.24850  0.75000  Biso   1.000  O
  O14      1.0000 0.36370  0.30330  0.75000  Biso   1.000  O
  C37      1.0000 0.25310  0.33970  0.75000  Biso   1.000  C
  C38      1.0000 0.33570  0.52430  0.75000  Biso   1.000  C
  O15      1.0000 0.01290  0.76440  0.75000  Biso   1.000  O
  O16      1.0000 0.93960  0.63630  0.75000  Biso   1.000  O
  C39      1.0000 0.08660  0.74690  0.75000  Biso   1.000  C
  C40      1.0000 0.18860  0.66430  0.75000  Biso   1.000  C
  O17      1.0000 0.75150  0.98710  0.75000  Biso   1.000  O
  O18      1.0000 0.69670  0.06040  0.75000  Biso   1.000  O
  C41      1.0000 0.66030  0.91340  0.75000  Biso   1.000  C
  C42      1.0000 0.47570  0.81140  0.75000  Biso   1.000  C
  O19      1.0000 0.76440  0.75150  0.25000  Biso   1.000  O
  O20      1.0000 0.63630  0.69670  0.25000  Biso   1.000  O
  C43      1.0000 0.74690  0.66030  0.25000  Biso   1.000  C
  C44      1.0000 0.66430  0.47570  0.25000  Biso   1.000  C
  O21      1.0000 0.98710  0.23560  0.25000  Biso   1.000  O
  O22      1.0000 0.06040  0.36370  0.25000  Biso   1.000  O
  C45      1.0000 0.91340  0.25310  0.25000  Biso   1.000  C
  C46      1.0000 0.81140  0.33570  0.25000  Biso   1.000  C
  O23      1.0000 0.24850  0.01290  0.25000  Biso   1.000  O
  O24      1.0000 0.30330  0.93960  0.25000  Biso   1.000  O
  C47      1.0000 0.33970  0.08660  0.25000  Biso   1.000  C
  C48      1.0000 0.52430  0.18860  0.25000  Biso   1.000  C
  C49      1.0000 0.31000  0.15500  0.25000  Biso   1.000  C
  C50      1.0000 0.49970  0.24985  0.25000  Biso   1.000  C
  O25      1.0000 0.22620  0.11310  0.25000  Biso   1.000  O
  C51      1.0000 0.84500  0.15500  0.25000  Biso   1.000  C
  C52      1.0000 0.75015  0.24985  0.25000  Biso   1.000  C
  O26      1.0000 0.88690  0.11310  0.25000  Biso   1.000  O
  C53      1.0000 0.84500  0.69000  0.25000  Biso   1.000  C
  C54      1.0000 0.75015  0.50030  0.25000  Biso   1.000  C
  O27      1.0000 0.88690  0.77380  0.25000  Biso   1.000  O
  C55      1.0000 0.69000  0.84500  0.75000  Biso   1.000  C
  C56      1.0000 0.50030  0.75015  0.75000  Biso   1.000  C
  O28      1.0000 0.77380  0.88690  0.75000  Biso   1.000  O
  C57      1.0000 0.15500  0.84500  0.75000  Biso   1.000  C
  C58      1.0000 0.24985  0.75015  0.75000  Biso   1.000  C
  O29      1.0000 0.11310  0.88690  0.75000  Biso   1.000  O
  C59      1.0000 0.15500  0.31000  0.75000  Biso   1.000  C
  C60      1.0000 0.24985  0.49970  0.75000  Biso   1.000  C
  O30      1.0000 0.11310  0.22620  0.75000  Biso   1.000  O
  C61      1.0000 0.58390  0.41610  0.25000  Biso   1.000  C
  H1       1.0000 0.52670  0.47330  0.25000  Biso   1.000  H
  C62      1.0000 0.58390  0.16780  0.25000  Biso   1.000  C
  H2       1.0000 0.52670  0.05340  0.25000  Biso   1.000  H
  C63      1.0000 0.83220  0.41610  0.25000  Biso   1.000  C
  H3       1.0000 0.94660  0.47330  0.25000  Biso   1.000  H
  C64      1.0000 0.41610  0.58390  0.75000  Biso   1.000  C
  H4       1.0000 0.47330  0.52670  0.75000  Biso   1.000  H
  C65      1.0000 0.41610  0.83220  0.75000  Biso   1.000  C
  H5       1.0000 0.47330  0.94660  0.75000  Biso   1.000  H
  C66      1.0000 0.16780  0.58390  0.75000  Biso   1.000  C
  H6       1.0000 0.05340  0.52670  0.75000  Biso   1.000  H
  N1       1.0000 0.00000  0.00000  0.10020  Biso   1.000  N
  N2       1.0000 0.00000  0.00000  0.60020  Biso   1.000  N
  N3       1.0000 0.00000  0.00000  0.89980  Biso   1.000  N
  N4       1.0000 0.00000  0.00000  0.39980  Biso   1.000  N
