data_image0
_cell_length_a       9.469
_cell_length_b       9.469
_cell_length_c       22.233
_cell_angle_alpha    90
_cell_angle_beta     90
_cell_angle_gamma    120

_symmetry_space_group_name_H-M    "P 1"
_symmetry_int_tables_number       1

loop_
  _symmetry_equiv_pos_as_xyz
  'x, y, z'

loop_
  _atom_site_label
  _atom_site_occupancy
  _atom_site_fract_x
  _atom_site_fract_y
  _atom_site_fract_z
  _atom_site_thermal_displace_type
  _atom_site_B_iso_or_equiv
  _atom_site_type_symbol
  C1       1.0000 0.89600  0.85800  0.12510  Biso   1.000  C
  C2       1.0000 0.89500  0.85800  0.06260  Biso   1.000  C
  C3       1.0000 0.11100  0.14100  0.12700  Biso   1.000  C
  C4       1.0000 0.02600  0.88900  0.06460  Biso   1.000  C
  C5       1.0000 0.14200  0.03800  0.12510  Biso   1.000  C
  C6       1.0000 0.14200  0.03700  0.06260  Biso   1.000  C
  C7       1.0000 0.85900  0.97000  0.12700  Biso   1.000  C
  C8       1.0000 0.11100  0.13700  0.06460  Biso   1.000  C
  C9       1.0000 0.96200  0.10400  0.12510  Biso   1.000  C
  C10      1.0000 0.96300  0.10500  0.06260  Biso   1.000  C
  C11      1.0000 0.03000  0.88900  0.12700  Biso   1.000  C
  C12      1.0000 0.86300  0.97400  0.06460  Biso   1.000  C
  C13      1.0000 0.10400  0.14200  0.62510  Biso   1.000  C
  C14      1.0000 0.10500  0.14200  0.56260  Biso   1.000  C
  C15      1.0000 0.88900  0.85900  0.62700  Biso   1.000  C
  C16      1.0000 0.97400  0.11100  0.56460  Biso   1.000  C
  C17      1.0000 0.85800  0.96200  0.62510  Biso   1.000  C
  C18      1.0000 0.85800  0.96300  0.56260  Biso   1.000  C
  C19      1.0000 0.14100  0.03000  0.62700  Biso   1.000  C
  C20      1.0000 0.88900  0.86300  0.56460  Biso   1.000  C
  C21      1.0000 0.03800  0.89600  0.62510  Biso   1.000  C
  C22      1.0000 0.03700  0.89500  0.56260  Biso   1.000  C
  C23      1.0000 0.97000  0.11100  0.62700  Biso   1.000  C
  C24      1.0000 0.13700  0.02600  0.56460  Biso   1.000  C
  C25      1.0000 0.85800  0.89600  0.87490  Biso   1.000  C
  C26      1.0000 0.85800  0.89500  0.93740  Biso   1.000  C
  C27      1.0000 0.14100  0.11100  0.87300  Biso   1.000  C
  C28      1.0000 0.88900  0.02600  0.93540  Biso   1.000  C
  C29      1.0000 0.03800  0.14200  0.87490  Biso   1.000  C
  C30      1.0000 0.03700  0.14200  0.93740  Biso   1.000  C
  C31      1.0000 0.97000  0.85900  0.87300  Biso   1.000  C
  C32      1.0000 0.13700  0.11100  0.93540  Biso   1.000  C
  C33      1.0000 0.10400  0.96200  0.87490  Biso   1.000  C
  C34      1.0000 0.10500  0.96300  0.93740  Biso   1.000  C
  C35      1.0000 0.88900  0.03000  0.87300  Biso   1.000  C
  C36      1.0000 0.97400  0.86300  0.93540  Biso   1.000  C
  C37      1.0000 0.14200  0.10400  0.37490  Biso   1.000  C
  C38      1.0000 0.14200  0.10500  0.43740  Biso   1.000  C
  C39      1.0000 0.85900  0.88900  0.37300  Biso   1.000  C
  C40      1.0000 0.11100  0.97400  0.43540  Biso   1.000  C
  C41      1.0000 0.96200  0.85800  0.37490  Biso   1.000  C
  C42      1.0000 0.96300  0.85800  0.43740  Biso   1.000  C
  C43      1.0000 0.03000  0.14100  0.37300  Biso   1.000  C
  C44      1.0000 0.86300  0.88900  0.43540  Biso   1.000  C
  C45      1.0000 0.89600  0.03800  0.37490  Biso   1.000  C
  C46      1.0000 0.89500  0.03700  0.43740  Biso   1.000  C
  C47      1.0000 0.11100  0.97000  0.37300  Biso   1.000  C
  C48      1.0000 0.02600  0.13700  0.43540  Biso   1.000  C
  C49      1.0000 0.10400  0.14200  0.87490  Biso   1.000  C
  C50      1.0000 0.10500  0.14200  0.93740  Biso   1.000  C
  C51      1.0000 0.88900  0.85900  0.87300  Biso   1.000  C
  C52      1.0000 0.97400  0.11100  0.93540  Biso   1.000  C
  C53      1.0000 0.85800  0.96200  0.87490  Biso   1.000  C
  C54      1.0000 0.85800  0.96300  0.93740  Biso   1.000  C
  C55      1.0000 0.14100  0.03000  0.87300  Biso   1.000  C
  C56      1.0000 0.88900  0.86300  0.93540  Biso   1.000  C
  C57      1.0000 0.03800  0.89600  0.87490  Biso   1.000  C
  C58      1.0000 0.03700  0.89500  0.93740  Biso   1.000  C
  C59      1.0000 0.97000  0.11100  0.87300  Biso   1.000  C
  C60      1.0000 0.13700  0.02600  0.93540  Biso   1.000  C
  C61      1.0000 0.89600  0.85800  0.37490  Biso   1.000  C
  C62      1.0000 0.89500  0.85800  0.43740  Biso   1.000  C
  C63      1.0000 0.11100  0.14100  0.37300  Biso   1.000  C
  C64      1.0000 0.02600  0.88900  0.43540  Biso   1.000  C
  C65      1.0000 0.14200  0.03800  0.37490  Biso   1.000  C
  C66      1.0000 0.14200  0.03700  0.43740  Biso   1.000  C
  C67      1.0000 0.85900  0.97000  0.37300  Biso   1.000  C
  C68      1.0000 0.11100  0.13700  0.43540  Biso   1.000  C
  C69      1.0000 0.96200  0.10400  0.37490  Biso   1.000  C
  C70      1.0000 0.96300  0.10500  0.43740  Biso   1.000  C
  C71      1.0000 0.03000  0.88900  0.37300  Biso   1.000  C
  C72      1.0000 0.86300  0.97400  0.43540  Biso   1.000  C
  C73      1.0000 0.14200  0.10400  0.12510  Biso   1.000  C
  C74      1.0000 0.14200  0.10500  0.06260  Biso   1.000  C
  C75      1.0000 0.85900  0.88900  0.12700  Biso   1.000  C
  C76      1.0000 0.11100  0.97400  0.06460  Biso   1.000  C
  C77      1.0000 0.96200  0.85800  0.12510  Biso   1.000  C
  C78      1.0000 0.96300  0.85800  0.06260  Biso   1.000  C
  C79      1.0000 0.03000  0.14100  0.12700  Biso   1.000  C
  C80      1.0000 0.86300  0.88900  0.06460  Biso   1.000  C
  C81      1.0000 0.89600  0.03800  0.12510  Biso   1.000  C
  C82      1.0000 0.89500  0.03700  0.06260  Biso   1.000  C
  C83      1.0000 0.11100  0.97000  0.12700  Biso   1.000  C
  C84      1.0000 0.02600  0.13700  0.06460  Biso   1.000  C
  C85      1.0000 0.85800  0.89600  0.62510  Biso   1.000  C
  C86      1.0000 0.85800  0.89500  0.56260  Biso   1.000  C
  C87      1.0000 0.14100  0.11100  0.62700  Biso   1.000  C
  C88      1.0000 0.88900  0.02600  0.56460  Biso   1.000  C
  C89      1.0000 0.03800  0.14200  0.62510  Biso   1.000  C
  C90      1.0000 0.03700  0.14200  0.56260  Biso   1.000  C
  C91      1.0000 0.97000  0.85900  0.62700  Biso   1.000  C
  C92      1.0000 0.13700  0.11100  0.56460  Biso   1.000  C
  C93      1.0000 0.10400  0.96200  0.62510  Biso   1.000  C
  C94      1.0000 0.10500  0.96300  0.56260  Biso   1.000  C
  C95      1.0000 0.88900  0.03000  0.62700  Biso   1.000  C
  C96      1.0000 0.97400  0.86300  0.56460  Biso   1.000  C
  Ni1      1.0000 0.00000  0.00000  0.25000  Biso   1.000  Ni
  Ni2      1.0000 0.00000  0.00000  0.75000  Biso   1.000  Ni
  O1       1.0000 0.22100  0.22200  0.25000  Biso   1.000  O
  O2       1.0000 0.31900  0.40300  0.25000  Biso   1.000  O
  C97      1.0000 0.35100  0.29000  0.25000  Biso   1.000  C
  C98      1.0000 0.52250  0.33490  0.25000  Biso   1.000  C
  O3       1.0000 0.77800  0.99900  0.25000  Biso   1.000  O
  O4       1.0000 0.59700  0.91600  0.25000  Biso   1.000  O
  C99      1.0000 0.71000  0.06100  0.25000  Biso   1.000  C
  C100     1.0000 0.66510  0.18760  0.25000  Biso   1.000  C
  O5       1.0000 0.00100  0.77900  0.25000  Biso   1.000  O
  O6       1.0000 0.08400  0.68100  0.25000  Biso   1.000  O
  C101     1.0000 0.93900  0.64900  0.25000  Biso   1.000  C
  C102     1.0000 0.81240  0.47750  0.25000  Biso   1.000  C
  O7       1.0000 0.77900  0.77800  0.75000  Biso   1.000  O
  O8       1.0000 0.68100  0.59700  0.75000  Biso   1.000  O
  C103     1.0000 0.64900  0.71000  0.75000  Biso   1.000  C
  C104     1.0000 0.47750  0.66510  0.75000  Biso   1.000  C
  O9       1.0000 0.22200  0.00100  0.75000  Biso   1.000  O
  O10      1.0000 0.40300  0.08400  0.75000  Biso   1.000  O
  C105     1.0000 0.29000  0.93900  0.75000  Biso   1.000  C
  C106     1.0000 0.33490  0.81240  0.75000  Biso   1.000  C
  O11      1.0000 0.99900  0.22100  0.75000  Biso   1.000  O
  O12      1.0000 0.91600  0.31900  0.75000  Biso   1.000  O
  C107     1.0000 0.06100  0.35100  0.75000  Biso   1.000  C
  C108     1.0000 0.18760  0.52250  0.75000  Biso   1.000  C
  O13      1.0000 0.22200  0.22100  0.75000  Biso   1.000  O
  O14      1.0000 0.40300  0.31900  0.75000  Biso   1.000  O
  C109     1.0000 0.29000  0.35100  0.75000  Biso   1.000  C
  C110     1.0000 0.33490  0.52250  0.75000  Biso   1.000  C
  O15      1.0000 0.99900  0.77800  0.75000  Biso   1.000  O
  O16      1.0000 0.91600  0.59700  0.75000  Biso   1.000  O
  C111     1.0000 0.06100  0.71000  0.75000  Biso   1.000  C
  C112     1.0000 0.18760  0.66510  0.75000  Biso   1.000  C
  O17      1.0000 0.77900  0.00100  0.75000  Biso   1.000  O
  O18      1.0000 0.68100  0.08400  0.75000  Biso   1.000  O
  C113     1.0000 0.64900  0.93900  0.75000  Biso   1.000  C
  C114     1.0000 0.47750  0.81240  0.75000  Biso   1.000  C
  O19      1.0000 0.77800  0.77900  0.25000  Biso   1.000  O
  O20      1.0000 0.59700  0.68100  0.25000  Biso   1.000  O
  C115     1.0000 0.71000  0.64900  0.25000  Biso   1.000  C
  C116     1.0000 0.66510  0.47750  0.25000  Biso   1.000  C
  O21      1.0000 0.00100  0.22200  0.25000  Biso   1.000  O
  O22      1.0000 0.08400  0.40300  0.25000  Biso   1.000  O
  C117     1.0000 0.93900  0.29000  0.25000  Biso   1.000  C
  C118     1.0000 0.81240  0.33490  0.25000  Biso   1.000  C
  O23      1.0000 0.22100  0.99900  0.25000  Biso   1.000  O
  O24      1.0000 0.31900  0.91600  0.25000  Biso   1.000  O
  C119     1.0000 0.35100  0.06100  0.25000  Biso   1.000  C
  C120     1.0000 0.52250  0.18760  0.25000  Biso   1.000  C
  C121     1.0000 0.31700  0.15850  0.25000  Biso   1.000  C
  C122     1.0000 0.49200  0.24600  0.25000  Biso   1.000  C
  O25      1.0000 0.24500  0.12250  0.25000  Biso   1.000  O
  C123     1.0000 0.84150  0.15850  0.25000  Biso   1.000  C
  C124     1.0000 0.75400  0.24600  0.25000  Biso   1.000  C
  O26      1.0000 0.87750  0.12250  0.25000  Biso   1.000  O
  C125     1.0000 0.84150  0.68300  0.25000  Biso   1.000  C
  C126     1.0000 0.75400  0.50800  0.25000  Biso   1.000  C
  O27      1.0000 0.87750  0.75500  0.25000  Biso   1.000  O
  C127     1.0000 0.68300  0.84150  0.75000  Biso   1.000  C
  C128     1.0000 0.50800  0.75400  0.75000  Biso   1.000  C
  O28      1.0000 0.75500  0.87750  0.75000  Biso   1.000  O
  C129     1.0000 0.15850  0.84150  0.75000  Biso   1.000  C
  C130     1.0000 0.24600  0.75400  0.75000  Biso   1.000  C
  O29      1.0000 0.12250  0.87750  0.75000  Biso   1.000  O
  C131     1.0000 0.15850  0.31700  0.75000  Biso   1.000  C
  C132     1.0000 0.24600  0.49200  0.75000  Biso   1.000  C
  O30      1.0000 0.12250  0.24500  0.75000  Biso   1.000  O
  C133     1.0000 0.58300  0.41700  0.25000  Biso   1.000  C
  H1       1.0000 0.52510  0.47490  0.25000  Biso   1.000  H
  C134     1.0000 0.58300  0.16600  0.25000  Biso   1.000  C
  H2       1.0000 0.52510  0.05020  0.25000  Biso   1.000  H
  C135     1.0000 0.83400  0.41700  0.25000  Biso   1.000  C
  H3       1.0000 0.94980  0.47490  0.25000  Biso   1.000  H
  C136     1.0000 0.41700  0.58300  0.75000  Biso   1.000  C
  H4       1.0000 0.47490  0.52510  0.75000  Biso   1.000  H
  C137     1.0000 0.41700  0.83400  0.75000  Biso   1.000  C
  H5       1.0000 0.47490  0.94980  0.75000  Biso   1.000  H
  C138     1.0000 0.16600  0.58300  0.75000  Biso   1.000  C
  H6       1.0000 0.05020  0.52510  0.75000  Biso   1.000  H
  N1       1.0000 0.00000  0.00000  0.15650  Biso   1.000  N
  C139     1.0000 0.00000  0.00000  0.03230  Biso   1.000  C
  N2       1.0000 0.00000  0.00000  0.65650  Biso   1.000  N
  C140     1.0000 0.00000  0.00000  0.53230  Biso   1.000  C
  N3       1.0000 0.00000  0.00000  0.84350  Biso   1.000  N
  C141     1.0000 0.00000  0.00000  0.96770  Biso   1.000  C
  N4       1.0000 0.00000  0.00000  0.34350  Biso   1.000  N
  C142     1.0000 0.00000  0.00000  0.46770  Biso   1.000  C
