data_image0
_cell_length_a       11.405
_cell_length_b       13.0515
_cell_length_c       18.4855
_cell_angle_alpha    101.734
_cell_angle_beta     95.682
_cell_angle_gamma    115.79

_symmetry_space_group_name_H-M    "P 1"
_symmetry_int_tables_number       1

loop_
  _symmetry_equiv_pos_as_xyz
  'x, y, z'

loop_
  _atom_site_label
  _atom_site_occupancy
  _atom_site_fract_x
  _atom_site_fract_y
  _atom_site_fract_z
  _atom_site_thermal_displace_type
  _atom_site_B_iso_or_equiv
  _atom_site_type_symbol
  Cs1      1.0000 0.17270  0.63990  0.32379  Biso   1.000  Cs
  Cs2      1.0000 0.25470  0.67920  0.34700  Biso   1.000  Cs
  Cs3      1.0000 0.61551  0.74588  0.19017  Biso   1.000  Cs
  Co1      1.0000 0.34460  0.16291  0.14229  Biso   1.000  Co
  Co2      1.0000 0.56540  0.35317  0.28685  Biso   1.000  Co
  Co3      1.0000 0.52491  0.09151  0.24102  Biso   1.000  Co
  Co4      1.0000 0.29832  0.15377  0.30401  Biso   1.000  Co
  Co5      1.0000 0.25822  0.22362  0.58441  Biso   1.000  Co
  Co6      1.0000 0.73776  0.98208  0.08144  Biso   1.000  Co
  O1       1.0000 0.54530  0.22920  0.18780  Biso   1.000  O
  O2       1.0000 0.61990  0.06730  0.15100  Biso   1.000  O
  O3       1.0000 0.73530  0.14280  0.07190  Biso   1.000  O
  O4       1.0000 0.68450  0.48520  0.24250  Biso   1.000  O
  O5       1.0000 0.86490  0.55970  0.20030  Biso   1.000  O
  O6       1.0000 0.38200  0.09960  0.03670  Biso   1.000  O
  O7       1.0000 0.46380  0.16420  0.94390  Biso   1.000  O
  O8       1.0000 0.36410  0.28110  0.24510  Biso   1.000  O
  O9       1.0000 0.29970  0.26840  0.08980  Biso   1.000  O
  O10      1.0000 0.18430  0.36150  0.07060  Biso   1.000  O
  O11      1.0000 0.54440  0.49250  0.36020  Biso   1.000  O
  O12      1.0000 0.55920  0.66030  0.34140  Biso   1.000  O
  O13      1.0000 0.24670  0.28050  0.36000  Biso   1.000  O
  O14      1.0000 0.21350  0.43270  0.34810  Biso   1.000  O
  O15      1.0000 0.50790  0.20770  0.33100  Biso   1.000  O
  O16      1.0000 0.72970  0.40450  0.37150  Biso   1.000  O
  O17      1.0000 0.79660  0.37640  0.47990  Biso   1.000  O
  O18      1.0000 0.70510  0.12680  0.30780  Biso   1.000  O
  O19      1.0000 0.81480  0.12550  0.41180  Biso   1.000  O
  O20      1.0000 0.34340  0.13330  0.52170  Biso   1.000  O
  O21      1.0000 0.29020  0.09000  0.39790  Biso   1.000  O
  O22      1.0000 0.32250  0.04950  0.21010  Biso   1.000  O
  O23      1.0000 0.46100  0.91620  0.24170  Biso   1.000  O
  O24      1.0000 0.33130  0.72560  0.19150  Biso   1.000  O
  O25      1.0000 0.14670  0.02850  0.09860  Biso   1.000  O
  O26      1.0000 0.01580  0.83950  0.08570  Biso   1.000  O
  O27      1.0000 0.08980  0.03830  0.26550  Biso   1.000  O
  O28      1.0000 0.94470  0.86250  0.27020  Biso   1.000  O
  O29      1.0000 0.20970  0.09540  0.64440  Biso   1.000  O
  O30      1.0000 0.97380  0.57970  0.41430  Biso   1.000  O
  O31      1.0000 0.82700  0.02470  0.20030  Biso   1.000  O
  O32      1.0000 0.77500  0.83190  0.06380  Biso   1.000  O
  C1       1.0000 0.64040  0.25430  0.14200  Biso   1.000  C
  C2       1.0000 0.66650  0.14700  0.11970  Biso   1.000  C
  C3       1.0000 0.77540  0.36100  0.18800  Biso   1.000  C
  H1       1.0000 0.80120  0.34430  0.23400  Biso   1.000  H
  H2       1.0000 0.84310  0.36810  0.15860  Biso   1.000  H
  C4       1.0000 0.77340  0.47400  0.20800  Biso   1.000  C
  C5       1.0000 0.59340  0.27830  0.06950  Biso   1.000  C
  H3       1.0000 0.57160  0.34270  0.08390  Biso   1.000  H
  H4       1.0000 0.66740  0.30540  0.04430  Biso   1.000  H
  C6       1.0000 0.47720  0.17770  0.01430  Biso   1.000  C
  C7       1.0000 0.29970  0.35420  0.25120  Biso   1.000  C
  C8       1.0000 0.18100  0.30260  0.18400  Biso   1.000  C
  H5       1.0000 0.12540  0.21960  0.17990  Biso   1.000  H
  H6       1.0000 0.12760  0.34300  0.19360  Biso   1.000  H
  C9       1.0000 0.22300  0.31420  0.11150  Biso   1.000  C
  C10      1.0000 0.39830  0.48200  0.25250  Biso   1.000  C
  H7       1.0000 0.43900  0.47930  0.20900  Biso   1.000  H
  H8       1.0000 0.34910  0.52590  0.24800  Biso   1.000  H
  C11      1.0000 0.50810  0.54800  0.32390  Biso   1.000  C
  C12      1.0000 0.25120  0.35550  0.32740  Biso   1.000  C
  C13      1.0000 0.57790  0.23470  0.40480  Biso   1.000  C
  C14      1.0000 0.71270  0.34810  0.42010  Biso   1.000  C
  C15      1.0000 0.60870  0.13560  0.41660  Biso   1.000  C
  H9       1.0000 0.52750  0.06080  0.39890  Biso   1.000  H
  H10      1.0000 0.63870  0.14930  0.47030  Biso   1.000  H
  C16      1.0000 0.71530  0.12690  0.37520  Biso   1.000  C
  C17      1.0000 0.50050  0.25930  0.46210  Biso   1.000  C
  H11      1.0000 0.55610  0.28720  0.51230  Biso   1.000  H
  H12      1.0000 0.48260  0.32260  0.45380  Biso   1.000  H
  C18      1.0000 0.37020  0.15460  0.45990  Biso   1.000  C
  C19      1.0000 0.22220  0.93380  0.17660  Biso   1.000  C
  C20      1.0000 0.28080  0.85720  0.13790  Biso   1.000  C
  H13      1.0000 0.20870  0.78310  0.10570  Biso   1.000  H
  H14      1.0000 0.33650  0.89760  0.10590  Biso   1.000  H
  C21      1.0000 0.36280  0.83090  0.19370  Biso   1.000  C
  C22      1.0000 0.11800  0.93140  0.11530  Biso   1.000  C
  C23      1.0000 0.14700  0.88030  0.23740  Biso   1.000  C
  H15      1.0000 0.09570  0.79500  0.21730  Biso   1.000  H
  H16      1.0000 0.21180  0.89690  0.28210  Biso   1.000  H
  C24      1.0000 0.05420  0.93110  0.25950  Biso   1.000  C
  O33      1.0000 0.14790  0.85130  0.43250  Biso   1.000  O
  O34      1.0000 0.44100  0.83900  0.37280  Biso   1.000  O
  Cs4      1.0000 0.82730  0.36010  0.67621  Biso   1.000  Cs
  Cs5      1.0000 0.74530  0.32080  0.65300  Biso   1.000  Cs
  Cs6      1.0000 0.38449  0.25412  0.80983  Biso   1.000  Cs
  Co7      1.0000 0.65540  0.83709  0.85771  Biso   1.000  Co
  Co8      1.0000 0.43460  0.64683  0.71315  Biso   1.000  Co
  Co9      1.0000 0.47509  0.90849  0.75898  Biso   1.000  Co
  Co10     1.0000 0.70168  0.84623  0.69599  Biso   1.000  Co
  Co11     1.0000 0.74178  0.77638  0.41559  Biso   1.000  Co
  Co12     1.0000 0.26224  0.01792  0.91856  Biso   1.000  Co
  O35      1.0000 0.45470  0.77080  0.81220  Biso   1.000  O
  O36      1.0000 0.38010  0.93270  0.84900  Biso   1.000  O
  O37      1.0000 0.26470  0.85720  0.92810  Biso   1.000  O
  O38      1.0000 0.31550  0.51480  0.75750  Biso   1.000  O
  O39      1.0000 0.13510  0.44030  0.79970  Biso   1.000  O
  O40      1.0000 0.61800  0.90040  0.96330  Biso   1.000  O
  O41      1.0000 0.53620  0.83580  0.05610  Biso   1.000  O
  O42      1.0000 0.63590  0.71890  0.75490  Biso   1.000  O
  O43      1.0000 0.70030  0.73160  0.91020  Biso   1.000  O
  O44      1.0000 0.81570  0.63850  0.92940  Biso   1.000  O
  O45      1.0000 0.45560  0.50750  0.63980  Biso   1.000  O
  O46      1.0000 0.44080  0.33970  0.65860  Biso   1.000  O
  O47      1.0000 0.75330  0.71950  0.64000  Biso   1.000  O
  O48      1.0000 0.78650  0.56730  0.65190  Biso   1.000  O
  O49      1.0000 0.49210  0.79230  0.66900  Biso   1.000  O
  O50      1.0000 0.27030  0.59550  0.62850  Biso   1.000  O
  O51      1.0000 0.20340  0.62360  0.52010  Biso   1.000  O
  O52      1.0000 0.29490  0.87320  0.69220  Biso   1.000  O
  O53      1.0000 0.18520  0.87450  0.58820  Biso   1.000  O
  O54      1.0000 0.65660  0.86670  0.47830  Biso   1.000  O
  O55      1.0000 0.70980  0.91000  0.60210  Biso   1.000  O
  O56      1.0000 0.67750  0.95050  0.78990  Biso   1.000  O
  O57      1.0000 0.53900  0.08380  0.75830  Biso   1.000  O
  O58      1.0000 0.66870  0.27440  0.80850  Biso   1.000  O
  O59      1.0000 0.85330  0.97150  0.90140  Biso   1.000  O
  O60      1.0000 0.98420  0.16050  0.91430  Biso   1.000  O
  O61      1.0000 0.91020  0.96170  0.73450  Biso   1.000  O
  O62      1.0000 0.05530  0.13750  0.72980  Biso   1.000  O
  O63      1.0000 0.79030  0.90460  0.35560  Biso   1.000  O
  O64      1.0000 0.02620  0.42030  0.58570  Biso   1.000  O
  O65      1.0000 0.17300  0.97530  0.79970  Biso   1.000  O
  O66      1.0000 0.22500  0.16810  0.93620  Biso   1.000  O
  C25      1.0000 0.35960  0.74570  0.85800  Biso   1.000  C
  C26      1.0000 0.33350  0.85300  0.88030  Biso   1.000  C
  C27      1.0000 0.22460  0.63900  0.81200  Biso   1.000  C
  H17      1.0000 0.19880  0.65570  0.76600  Biso   1.000  H
  H18      1.0000 0.15690  0.63190  0.84140  Biso   1.000  H
  C28      1.0000 0.22660  0.52600  0.79200  Biso   1.000  C
  C29      1.0000 0.40660  0.72170  0.93050  Biso   1.000  C
  H19      1.0000 0.42840  0.65730  0.91610  Biso   1.000  H
  H20      1.0000 0.33260  0.69460  0.95570  Biso   1.000  H
  C30      1.0000 0.52280  0.82230  0.98570  Biso   1.000  C
  C31      1.0000 0.70030  0.64580  0.74880  Biso   1.000  C
  C32      1.0000 0.81900  0.69740  0.81600  Biso   1.000  C
  H21      1.0000 0.87460  0.78040  0.82010  Biso   1.000  H
  H22      1.0000 0.87240  0.65700  0.80640  Biso   1.000  H
  C33      1.0000 0.77700  0.68580  0.88850  Biso   1.000  C
  C34      1.0000 0.60170  0.51800  0.74750  Biso   1.000  C
  H23      1.0000 0.56100  0.52070  0.79100  Biso   1.000  H
  H24      1.0000 0.65090  0.47410  0.75200  Biso   1.000  H
  C35      1.0000 0.49190  0.45200  0.67610  Biso   1.000  C
  C36      1.0000 0.74880  0.64450  0.67260  Biso   1.000  C
  C37      1.0000 0.42210  0.76530  0.59520  Biso   1.000  C
  C38      1.0000 0.28730  0.65190  0.57990  Biso   1.000  C
  C39      1.0000 0.39130  0.86440  0.58340  Biso   1.000  C
  H25      1.0000 0.47250  0.93920  0.60110  Biso   1.000  H
  H26      1.0000 0.36130  0.85070  0.52970  Biso   1.000  H
  C40      1.0000 0.28470  0.87310  0.62480  Biso   1.000  C
  C41      1.0000 0.49950  0.74070  0.53790  Biso   1.000  C
  H27      1.0000 0.44390  0.71280  0.48770  Biso   1.000  H
  H28      1.0000 0.51740  0.67740  0.54620  Biso   1.000  H
  C42      1.0000 0.62980  0.84540  0.54010  Biso   1.000  C
  C43      1.0000 0.77780  0.06620  0.82340  Biso   1.000  C
  C44      1.0000 0.71920  0.14280  0.86210  Biso   1.000  C
  H29      1.0000 0.79130  0.21690  0.89430  Biso   1.000  H
  H30      1.0000 0.66350  0.10240  0.89410  Biso   1.000  H
  C45      1.0000 0.63720  0.16910  0.80630  Biso   1.000  C
  C46      1.0000 0.88200  0.06860  0.88470  Biso   1.000  C
  C47      1.0000 0.85300  0.11970  0.76260  Biso   1.000  C
  H31      1.0000 0.90430  0.20500  0.78270  Biso   1.000  H
  H32      1.0000 0.78820  0.10310  0.71790  Biso   1.000  H
  C48      1.0000 0.94580  0.06890  0.74050  Biso   1.000  C
  O67      1.0000 0.85210  0.14870  0.56750  Biso   1.000  O
  O68      1.0000 0.55900  0.16100  0.62720  Biso   1.000  O
  Co13     1.0000 0.00000  0.50000  0.50000  Biso   1.000  Co
