data_image0
_cell_length_a       18.3855
_cell_length_b       18.3855
_cell_length_c       52.2463
_cell_angle_alpha    90
_cell_angle_beta     90
_cell_angle_gamma    120

_symmetry_space_group_name_H-M    "P 1"
_symmetry_int_tables_number       1

loop_
  _symmetry_equiv_pos_as_xyz
  'x, y, z'

loop_
  _atom_site_label
  _atom_site_occupancy
  _atom_site_fract_x
  _atom_site_fract_y
  _atom_site_fract_z
  _atom_site_thermal_displace_type
  _atom_site_B_iso_or_equiv
  _atom_site_type_symbol
  O1       1.0000 0.77410  0.96040  0.33277  Biso   1.000  O
  O2       1.0000 0.70250  0.91810  0.30111  Biso   1.000  O
  C1       1.0000 0.75560  0.96120  0.31319  Biso   1.000  C
  C2       1.0000 0.81140  0.04520  0.29941  Biso   1.000  C
  C3       1.0000 0.80000  0.06800  0.27448  Biso   1.000  C
  H1       1.0000 0.75050  0.03150  0.26600  Biso   1.000  H
  C4       1.0000 0.75990  0.12710  0.22680  Biso   1.000  C
  C5       1.0000 0.91500  0.19670  0.21840  Biso   1.000  C
  C6       1.0000 0.76090  0.12920  0.19750  Biso   1.000  C
  C7       1.0000 0.91220  0.19630  0.19040  Biso   1.000  C
  O3       1.0000 0.44077  0.29373  0.66610  Biso   1.000  O
  O4       1.0000 0.36917  0.25143  0.63444  Biso   1.000  O
  C8       1.0000 0.42227  0.29453  0.64652  Biso   1.000  C
  C9       1.0000 0.47807  0.37853  0.63274  Biso   1.000  C
  C10      1.0000 0.46667  0.40133  0.60781  Biso   1.000  C
  H2       1.0000 0.41717  0.36483  0.59933  Biso   1.000  H
  C11      1.0000 0.42657  0.46043  0.56013  Biso   1.000  C
  C12      1.0000 0.58167  0.53003  0.55173  Biso   1.000  C
  C13      1.0000 0.42757  0.46253  0.53083  Biso   1.000  C
  C14      1.0000 0.57887  0.52963  0.52373  Biso   1.000  C
  O5       1.0000 0.10743  0.62707  0.99944  Biso   1.000  O
  O6       1.0000 0.03583  0.58477  0.96778  Biso   1.000  O
  C15      1.0000 0.08893  0.62787  0.97986  Biso   1.000  C
  C16      1.0000 0.14473  0.71187  0.96608  Biso   1.000  C
  C17      1.0000 0.13333  0.73467  0.94115  Biso   1.000  C
  H3       1.0000 0.08383  0.69817  0.93267  Biso   1.000  H
  C18      1.0000 0.09323  0.79377  0.89347  Biso   1.000  C
  C19      1.0000 0.24833  0.86337  0.88507  Biso   1.000  C
  C20      1.0000 0.09423  0.79587  0.86417  Biso   1.000  C
  C21      1.0000 0.24553  0.86297  0.85707  Biso   1.000  C
  O7       1.0000 0.03960  0.81370  0.33277  Biso   1.000  O
  O8       1.0000 0.08190  0.78440  0.30111  Biso   1.000  O
  C22      1.0000 0.03880  0.79440  0.31319  Biso   1.000  C
  C23      1.0000 0.95480  0.76620  0.29941  Biso   1.000  C
  C24      1.0000 0.93200  0.73200  0.27448  Biso   1.000  C
  H4       1.0000 0.96850  0.71900  0.26600  Biso   1.000  H
  C25      1.0000 0.87290  0.63280  0.22680  Biso   1.000  C
  C26      1.0000 0.80330  0.71830  0.21840  Biso   1.000  C
  C27      1.0000 0.87080  0.63170  0.19750  Biso   1.000  C
  C28      1.0000 0.80370  0.71590  0.19040  Biso   1.000  C
  O9       1.0000 0.70627  0.14703  0.66610  Biso   1.000  O
  O10      1.0000 0.74857  0.11773  0.63444  Biso   1.000  O
  C29      1.0000 0.70547  0.12773  0.64652  Biso   1.000  C
  C30      1.0000 0.62147  0.09953  0.63274  Biso   1.000  C
  C31      1.0000 0.59867  0.06533  0.60781  Biso   1.000  C
  H5       1.0000 0.63517  0.05233  0.59933  Biso   1.000  H
  C32      1.0000 0.53957  0.96613  0.56013  Biso   1.000  C
  C33      1.0000 0.46997  0.05163  0.55173  Biso   1.000  C
  C34      1.0000 0.53747  0.96503  0.53083  Biso   1.000  C
  C35      1.0000 0.47037  0.04923  0.52373  Biso   1.000  C
  O11      1.0000 0.37293  0.48037  0.99944  Biso   1.000  O
  O12      1.0000 0.41523  0.45107  0.96778  Biso   1.000  O
  C36      1.0000 0.37213  0.46107  0.97986  Biso   1.000  C
  C37      1.0000 0.28813  0.43287  0.96608  Biso   1.000  C
  C38      1.0000 0.26533  0.39867  0.94115  Biso   1.000  C
  H6       1.0000 0.30183  0.38567  0.93267  Biso   1.000  H
  C39      1.0000 0.20623  0.29947  0.89347  Biso   1.000  C
  C40      1.0000 0.13663  0.38497  0.88507  Biso   1.000  C
  C41      1.0000 0.20413  0.29837  0.86417  Biso   1.000  C
  C42      1.0000 0.13703  0.38257  0.85707  Biso   1.000  C
  O13      1.0000 0.18630  0.22590  0.33277  Biso   1.000  O
  O14      1.0000 0.21560  0.29750  0.30111  Biso   1.000  O
  C43      1.0000 0.20560  0.24440  0.31319  Biso   1.000  C
  C44      1.0000 0.23380  0.18860  0.29941  Biso   1.000  C
  C45      1.0000 0.26800  0.20000  0.27448  Biso   1.000  C
  H7       1.0000 0.28100  0.24950  0.26600  Biso   1.000  H
  C46      1.0000 0.36720  0.24010  0.22680  Biso   1.000  C
  C47      1.0000 0.28170  0.08500  0.21840  Biso   1.000  C
  C48      1.0000 0.36830  0.23910  0.19750  Biso   1.000  C
  C49      1.0000 0.28410  0.08780  0.19040  Biso   1.000  C
  O15      1.0000 0.85297  0.55923  0.66610  Biso   1.000  O
  O16      1.0000 0.88227  0.63083  0.63444  Biso   1.000  O
  C50      1.0000 0.87227  0.57773  0.64652  Biso   1.000  C
  C51      1.0000 0.90047  0.52193  0.63274  Biso   1.000  C
  C52      1.0000 0.93467  0.53333  0.60781  Biso   1.000  C
  H8       1.0000 0.94767  0.58283  0.59933  Biso   1.000  H
  C53      1.0000 0.03387  0.57343  0.56013  Biso   1.000  C
  C54      1.0000 0.94837  0.41833  0.55173  Biso   1.000  C
  C55      1.0000 0.03497  0.57243  0.53083  Biso   1.000  C
  C56      1.0000 0.95077  0.42113  0.52373  Biso   1.000  C
  O17      1.0000 0.51963  0.89257  0.99944  Biso   1.000  O
  O18      1.0000 0.54893  0.96417  0.96778  Biso   1.000  O
  C57      1.0000 0.53893  0.91107  0.97986  Biso   1.000  C
  C58      1.0000 0.56713  0.85527  0.96608  Biso   1.000  C
  C59      1.0000 0.60133  0.86667  0.94115  Biso   1.000  C
  H9       1.0000 0.61433  0.91617  0.93267  Biso   1.000  H
  C60      1.0000 0.70053  0.90677  0.89347  Biso   1.000  C
  C61      1.0000 0.61503  0.75167  0.88507  Biso   1.000  C
  C62      1.0000 0.70163  0.90577  0.86417  Biso   1.000  C
  C63      1.0000 0.61743  0.75447  0.85707  Biso   1.000  C
  O19      1.0000 0.96040  0.77410  0.66723  Biso   1.000  O
  O20      1.0000 0.91810  0.70250  0.69889  Biso   1.000  O
  C64      1.0000 0.96120  0.75560  0.68681  Biso   1.000  C
  C65      1.0000 0.04520  0.81140  0.70059  Biso   1.000  C
  C66      1.0000 0.06800  0.80000  0.72552  Biso   1.000  C
  H10      1.0000 0.03150  0.75050  0.73400  Biso   1.000  H
  C67      1.0000 0.12710  0.75990  0.77320  Biso   1.000  C
  C68      1.0000 0.19670  0.91500  0.78160  Biso   1.000  C
  C69      1.0000 0.12920  0.76090  0.80250  Biso   1.000  C
  C70      1.0000 0.19630  0.91220  0.80960  Biso   1.000  C
  O21      1.0000 0.62707  0.10743  0.00056  Biso   1.000  O
  O22      1.0000 0.58477  0.03583  0.03222  Biso   1.000  O
  C71      1.0000 0.62787  0.08893  0.02014  Biso   1.000  C
  C72      1.0000 0.71187  0.14473  0.03392  Biso   1.000  C
  C73      1.0000 0.73467  0.13333  0.05885  Biso   1.000  C
  H11      1.0000 0.69817  0.08383  0.06733  Biso   1.000  H
  C74      1.0000 0.79377  0.09323  0.10653  Biso   1.000  C
  C75      1.0000 0.86337  0.24833  0.11493  Biso   1.000  C
  C76      1.0000 0.79587  0.09423  0.13583  Biso   1.000  C
  C77      1.0000 0.86297  0.24553  0.14293  Biso   1.000  C
  O23      1.0000 0.29373  0.44077  0.33390  Biso   1.000  O
  O24      1.0000 0.25143  0.36917  0.36556  Biso   1.000  O
  C78      1.0000 0.29453  0.42227  0.35348  Biso   1.000  C
  C79      1.0000 0.37853  0.47807  0.36726  Biso   1.000  C
  C80      1.0000 0.40133  0.46667  0.39219  Biso   1.000  C
  H12      1.0000 0.36483  0.41717  0.40067  Biso   1.000  H
  C81      1.0000 0.46043  0.42657  0.43987  Biso   1.000  C
  C82      1.0000 0.53003  0.58167  0.44827  Biso   1.000  C
  C83      1.0000 0.46253  0.42757  0.46917  Biso   1.000  C
  C84      1.0000 0.52963  0.57887  0.47627  Biso   1.000  C
  O25      1.0000 0.81370  0.03960  0.66723  Biso   1.000  O
  O26      1.0000 0.78440  0.08190  0.69889  Biso   1.000  O
  C85      1.0000 0.79440  0.03880  0.68681  Biso   1.000  C
  C86      1.0000 0.76620  0.95480  0.70059  Biso   1.000  C
  C87      1.0000 0.73200  0.93200  0.72552  Biso   1.000  C
  H13      1.0000 0.71900  0.96850  0.73400  Biso   1.000  H
  C88      1.0000 0.63280  0.87290  0.77320  Biso   1.000  C
  C89      1.0000 0.71830  0.80330  0.78160  Biso   1.000  C
  C90      1.0000 0.63170  0.87080  0.80250  Biso   1.000  C
  C91      1.0000 0.71590  0.80370  0.80960  Biso   1.000  C
  O27      1.0000 0.48037  0.37293  0.00056  Biso   1.000  O
  O28      1.0000 0.45107  0.41523  0.03222  Biso   1.000  O
  C92      1.0000 0.46107  0.37213  0.02014  Biso   1.000  C
  C93      1.0000 0.43287  0.28813  0.03392  Biso   1.000  C
  C94      1.0000 0.39867  0.26533  0.05885  Biso   1.000  C
  H14      1.0000 0.38567  0.30183  0.06733  Biso   1.000  H
  C95      1.0000 0.29947  0.20623  0.10653  Biso   1.000  C
  C96      1.0000 0.38497  0.13663  0.11493  Biso   1.000  C
  C97      1.0000 0.29837  0.20413  0.13583  Biso   1.000  C
  C98      1.0000 0.38257  0.13703  0.14293  Biso   1.000  C
  O29      1.0000 0.14703  0.70627  0.33390  Biso   1.000  O
  O30      1.0000 0.11773  0.74857  0.36556  Biso   1.000  O
  C99      1.0000 0.12773  0.70547  0.35348  Biso   1.000  C
  C100     1.0000 0.09953  0.62147  0.36726  Biso   1.000  C
  C101     1.0000 0.06533  0.59867  0.39219  Biso   1.000  C
  H15      1.0000 0.05233  0.63517  0.40067  Biso   1.000  H
  C102     1.0000 0.96613  0.53957  0.43987  Biso   1.000  C
  C103     1.0000 0.05163  0.46997  0.44827  Biso   1.000  C
  C104     1.0000 0.96503  0.53747  0.46917  Biso   1.000  C
  C105     1.0000 0.04923  0.47037  0.47627  Biso   1.000  C
  O31      1.0000 0.22590  0.18630  0.66723  Biso   1.000  O
  O32      1.0000 0.29750  0.21560  0.69889  Biso   1.000  O
  C106     1.0000 0.24440  0.20560  0.68681  Biso   1.000  C
  C107     1.0000 0.18860  0.23380  0.70059  Biso   1.000  C
  C108     1.0000 0.20000  0.26800  0.72552  Biso   1.000  C
  H16      1.0000 0.24950  0.28100  0.73400  Biso   1.000  H
  C109     1.0000 0.24010  0.36720  0.77320  Biso   1.000  C
  C110     1.0000 0.08500  0.28170  0.78160  Biso   1.000  C
  C111     1.0000 0.23910  0.36830  0.80250  Biso   1.000  C
  C112     1.0000 0.08780  0.28410  0.80960  Biso   1.000  C
  O33      1.0000 0.89257  0.51963  0.00056  Biso   1.000  O
  O34      1.0000 0.96417  0.54893  0.03222  Biso   1.000  O
  C113     1.0000 0.91107  0.53893  0.02014  Biso   1.000  C
  C114     1.0000 0.85527  0.56713  0.03392  Biso   1.000  C
  C115     1.0000 0.86667  0.60133  0.05885  Biso   1.000  C
  H17      1.0000 0.91617  0.61433  0.06733  Biso   1.000  H
  C116     1.0000 0.90677  0.70053  0.10653  Biso   1.000  C
  C117     1.0000 0.75167  0.61503  0.11493  Biso   1.000  C
  C118     1.0000 0.90577  0.70163  0.13583  Biso   1.000  C
  C119     1.0000 0.75447  0.61743  0.14293  Biso   1.000  C
  O35      1.0000 0.55923  0.85297  0.33390  Biso   1.000  O
  O36      1.0000 0.63083  0.88227  0.36556  Biso   1.000  O
  C120     1.0000 0.57773  0.87227  0.35348  Biso   1.000  C
  C121     1.0000 0.52193  0.90047  0.36726  Biso   1.000  C
  C122     1.0000 0.53333  0.93467  0.39219  Biso   1.000  C
  H18      1.0000 0.58283  0.94767  0.40067  Biso   1.000  H
  C123     1.0000 0.57343  0.03387  0.43987  Biso   1.000  C
  C124     1.0000 0.41833  0.94837  0.44827  Biso   1.000  C
  C125     1.0000 0.57243  0.03497  0.46917  Biso   1.000  C
  C126     1.0000 0.42113  0.95077  0.47627  Biso   1.000  C
  O37      1.0000 0.22590  0.03960  0.66723  Biso   1.000  O
  O38      1.0000 0.29750  0.08190  0.69889  Biso   1.000  O
  C127     1.0000 0.24440  0.03880  0.68681  Biso   1.000  C
  C128     1.0000 0.18860  0.95480  0.70059  Biso   1.000  C
  C129     1.0000 0.20000  0.93200  0.72552  Biso   1.000  C
  H19      1.0000 0.24950  0.96850  0.73400  Biso   1.000  H
  C130     1.0000 0.24010  0.87290  0.77320  Biso   1.000  C
  C131     1.0000 0.08500  0.80330  0.78160  Biso   1.000  C
  C132     1.0000 0.23910  0.87080  0.80250  Biso   1.000  C
  C133     1.0000 0.08780  0.80370  0.80960  Biso   1.000  C
  O39      1.0000 0.89257  0.37293  0.00056  Biso   1.000  O
  O40      1.0000 0.96417  0.41523  0.03222  Biso   1.000  O
  C134     1.0000 0.91107  0.37213  0.02014  Biso   1.000  C
  C135     1.0000 0.85527  0.28813  0.03392  Biso   1.000  C
  C136     1.0000 0.86667  0.26533  0.05885  Biso   1.000  C
  H20      1.0000 0.91617  0.30183  0.06733  Biso   1.000  H
  C137     1.0000 0.90677  0.20623  0.10653  Biso   1.000  C
  C138     1.0000 0.75167  0.13663  0.11493  Biso   1.000  C
  C139     1.0000 0.90577  0.20413  0.13583  Biso   1.000  C
  C140     1.0000 0.75447  0.13703  0.14293  Biso   1.000  C
  O41      1.0000 0.55923  0.70627  0.33390  Biso   1.000  O
  O42      1.0000 0.63083  0.74857  0.36556  Biso   1.000  O
  C141     1.0000 0.57773  0.70547  0.35348  Biso   1.000  C
  C142     1.0000 0.52193  0.62147  0.36726  Biso   1.000  C
  C143     1.0000 0.53333  0.59867  0.39219  Biso   1.000  C
  H21      1.0000 0.58283  0.63517  0.40067  Biso   1.000  H
  C144     1.0000 0.57343  0.53957  0.43987  Biso   1.000  C
  C145     1.0000 0.41833  0.46997  0.44827  Biso   1.000  C
  C146     1.0000 0.57243  0.53747  0.46917  Biso   1.000  C
  C147     1.0000 0.42113  0.47037  0.47627  Biso   1.000  C
  O43      1.0000 0.96040  0.18630  0.66723  Biso   1.000  O
  O44      1.0000 0.91810  0.21560  0.69889  Biso   1.000  O
  C148     1.0000 0.96120  0.20560  0.68681  Biso   1.000  C
  C149     1.0000 0.04520  0.23380  0.70059  Biso   1.000  C
  C150     1.0000 0.06800  0.26800  0.72552  Biso   1.000  C
  H22      1.0000 0.03150  0.28100  0.73400  Biso   1.000  H
  C151     1.0000 0.12710  0.36720  0.77320  Biso   1.000  C
  C152     1.0000 0.19670  0.28170  0.78160  Biso   1.000  C
  C153     1.0000 0.12920  0.36830  0.80250  Biso   1.000  C
  C154     1.0000 0.19630  0.28410  0.80960  Biso   1.000  C
  O45      1.0000 0.62707  0.51963  0.00056  Biso   1.000  O
  O46      1.0000 0.58477  0.54893  0.03222  Biso   1.000  O
  C155     1.0000 0.62787  0.53893  0.02014  Biso   1.000  C
  C156     1.0000 0.71187  0.56713  0.03392  Biso   1.000  C
  C157     1.0000 0.73467  0.60133  0.05885  Biso   1.000  C
  H23      1.0000 0.69817  0.61433  0.06733  Biso   1.000  H
  C158     1.0000 0.79377  0.70053  0.10653  Biso   1.000  C
  C159     1.0000 0.86337  0.61503  0.11493  Biso   1.000  C
  C160     1.0000 0.79587  0.70163  0.13583  Biso   1.000  C
  C161     1.0000 0.86297  0.61743  0.14293  Biso   1.000  C
  O47      1.0000 0.29373  0.85297  0.33390  Biso   1.000  O
  O48      1.0000 0.25143  0.88227  0.36556  Biso   1.000  O
  C162     1.0000 0.29453  0.87227  0.35348  Biso   1.000  C
  C163     1.0000 0.37853  0.90047  0.36726  Biso   1.000  C
  C164     1.0000 0.40133  0.93467  0.39219  Biso   1.000  C
  H24      1.0000 0.36483  0.94767  0.40067  Biso   1.000  H
  C165     1.0000 0.46043  0.03387  0.43987  Biso   1.000  C
  C166     1.0000 0.53003  0.94837  0.44827  Biso   1.000  C
  C167     1.0000 0.46253  0.03497  0.46917  Biso   1.000  C
  C168     1.0000 0.52963  0.95077  0.47627  Biso   1.000  C
  O49      1.0000 0.81370  0.77410  0.66723  Biso   1.000  O
  O50      1.0000 0.78440  0.70250  0.69889  Biso   1.000  O
  C169     1.0000 0.79440  0.75560  0.68681  Biso   1.000  C
  C170     1.0000 0.76620  0.81140  0.70059  Biso   1.000  C
  C171     1.0000 0.73200  0.80000  0.72552  Biso   1.000  C
  H25      1.0000 0.71900  0.75050  0.73400  Biso   1.000  H
  C172     1.0000 0.63280  0.75990  0.77320  Biso   1.000  C
  C173     1.0000 0.71830  0.91500  0.78160  Biso   1.000  C
  C174     1.0000 0.63170  0.76090  0.80250  Biso   1.000  C
  C175     1.0000 0.71590  0.91220  0.80960  Biso   1.000  C
  O51      1.0000 0.48037  0.10743  0.00056  Biso   1.000  O
  O52      1.0000 0.45107  0.03583  0.03222  Biso   1.000  O
  C176     1.0000 0.46107  0.08893  0.02014  Biso   1.000  C
  C177     1.0000 0.43287  0.14473  0.03392  Biso   1.000  C
  C178     1.0000 0.39867  0.13333  0.05885  Biso   1.000  C
  H26      1.0000 0.38567  0.08383  0.06733  Biso   1.000  H
  C179     1.0000 0.29947  0.09323  0.10653  Biso   1.000  C
  C180     1.0000 0.38497  0.24833  0.11493  Biso   1.000  C
  C181     1.0000 0.29837  0.09423  0.13583  Biso   1.000  C
  C182     1.0000 0.38257  0.24553  0.14293  Biso   1.000  C
  O53      1.0000 0.14703  0.44077  0.33390  Biso   1.000  O
  O54      1.0000 0.11773  0.36917  0.36556  Biso   1.000  O
  C183     1.0000 0.12773  0.42227  0.35348  Biso   1.000  C
  C184     1.0000 0.09953  0.47807  0.36726  Biso   1.000  C
  C185     1.0000 0.06533  0.46667  0.39219  Biso   1.000  C
  H27      1.0000 0.05233  0.41717  0.40067  Biso   1.000  H
  C186     1.0000 0.96613  0.42657  0.43987  Biso   1.000  C
  C187     1.0000 0.05163  0.58167  0.44827  Biso   1.000  C
  C188     1.0000 0.96503  0.42757  0.46917  Biso   1.000  C
  C189     1.0000 0.04923  0.57887  0.47627  Biso   1.000  C
  O55      1.0000 0.03960  0.22590  0.33277  Biso   1.000  O
  O56      1.0000 0.08190  0.29750  0.30111  Biso   1.000  O
  C190     1.0000 0.03880  0.24440  0.31319  Biso   1.000  C
  C191     1.0000 0.95480  0.18860  0.29941  Biso   1.000  C
  C192     1.0000 0.93200  0.20000  0.27448  Biso   1.000  C
  H28      1.0000 0.96850  0.24950  0.26600  Biso   1.000  H
  C193     1.0000 0.87290  0.24010  0.22680  Biso   1.000  C
  C194     1.0000 0.80330  0.08500  0.21840  Biso   1.000  C
  C195     1.0000 0.87080  0.23910  0.19750  Biso   1.000  C
  C196     1.0000 0.80370  0.08780  0.19040  Biso   1.000  C
  O57      1.0000 0.70627  0.55923  0.66610  Biso   1.000  O
  O58      1.0000 0.74857  0.63083  0.63444  Biso   1.000  O
  C197     1.0000 0.70547  0.57773  0.64652  Biso   1.000  C
  C198     1.0000 0.62147  0.52193  0.63274  Biso   1.000  C
  C199     1.0000 0.59867  0.53333  0.60781  Biso   1.000  C
  H29      1.0000 0.63517  0.58283  0.59933  Biso   1.000  H
  C200     1.0000 0.53957  0.57343  0.56013  Biso   1.000  C
  C201     1.0000 0.46997  0.41833  0.55173  Biso   1.000  C
  C202     1.0000 0.53747  0.57243  0.53083  Biso   1.000  C
  C203     1.0000 0.47037  0.42113  0.52373  Biso   1.000  C
  O59      1.0000 0.37293  0.89257  0.99944  Biso   1.000  O
  O60      1.0000 0.41523  0.96417  0.96778  Biso   1.000  O
  C204     1.0000 0.37213  0.91107  0.97986  Biso   1.000  C
  C205     1.0000 0.28813  0.85527  0.96608  Biso   1.000  C
  C206     1.0000 0.26533  0.86667  0.94115  Biso   1.000  C
  H30      1.0000 0.30183  0.91617  0.93267  Biso   1.000  H
  C207     1.0000 0.20623  0.90677  0.89347  Biso   1.000  C
  C208     1.0000 0.13663  0.75167  0.88507  Biso   1.000  C
  C209     1.0000 0.20413  0.90577  0.86417  Biso   1.000  C
  C210     1.0000 0.13703  0.75447  0.85707  Biso   1.000  C
  O61      1.0000 0.18630  0.96040  0.33277  Biso   1.000  O
  O62      1.0000 0.21560  0.91810  0.30111  Biso   1.000  O
  C211     1.0000 0.20560  0.96120  0.31319  Biso   1.000  C
  C212     1.0000 0.23380  0.04520  0.29941  Biso   1.000  C
  C213     1.0000 0.26800  0.06800  0.27448  Biso   1.000  C
  H31      1.0000 0.28100  0.03150  0.26600  Biso   1.000  H
  C214     1.0000 0.36720  0.12710  0.22680  Biso   1.000  C
  C215     1.0000 0.28170  0.19670  0.21840  Biso   1.000  C
  C216     1.0000 0.36830  0.12920  0.19750  Biso   1.000  C
  C217     1.0000 0.28410  0.19630  0.19040  Biso   1.000  C
  O63      1.0000 0.85297  0.29373  0.66610  Biso   1.000  O
  O64      1.0000 0.88227  0.25143  0.63444  Biso   1.000  O
  C218     1.0000 0.87227  0.29453  0.64652  Biso   1.000  C
  C219     1.0000 0.90047  0.37853  0.63274  Biso   1.000  C
  C220     1.0000 0.93467  0.40133  0.60781  Biso   1.000  C
  H32      1.0000 0.94767  0.36483  0.59933  Biso   1.000  H
  C221     1.0000 0.03387  0.46043  0.56013  Biso   1.000  C
  C222     1.0000 0.94837  0.53003  0.55173  Biso   1.000  C
  C223     1.0000 0.03497  0.46253  0.53083  Biso   1.000  C
  C224     1.0000 0.95077  0.52963  0.52373  Biso   1.000  C
  O65      1.0000 0.51963  0.62707  0.99944  Biso   1.000  O
  O66      1.0000 0.54893  0.58477  0.96778  Biso   1.000  O
  C225     1.0000 0.53893  0.62787  0.97986  Biso   1.000  C
  C226     1.0000 0.56713  0.71187  0.96608  Biso   1.000  C
  C227     1.0000 0.60133  0.73467  0.94115  Biso   1.000  C
  H33      1.0000 0.61433  0.69817  0.93267  Biso   1.000  H
  C228     1.0000 0.70053  0.79377  0.89347  Biso   1.000  C
  C229     1.0000 0.61503  0.86337  0.88507  Biso   1.000  C
  C230     1.0000 0.70163  0.79587  0.86417  Biso   1.000  C
  C231     1.0000 0.61743  0.86297  0.85707  Biso   1.000  C
  O67      1.0000 0.77410  0.81370  0.33277  Biso   1.000  O
  O68      1.0000 0.70250  0.78440  0.30111  Biso   1.000  O
  C232     1.0000 0.75560  0.79440  0.31319  Biso   1.000  C
  C233     1.0000 0.81140  0.76620  0.29941  Biso   1.000  C
  C234     1.0000 0.80000  0.73200  0.27448  Biso   1.000  C
  H34      1.0000 0.75050  0.71900  0.26600  Biso   1.000  H
  C235     1.0000 0.75990  0.63280  0.22680  Biso   1.000  C
  C236     1.0000 0.91500  0.71830  0.21840  Biso   1.000  C
  C237     1.0000 0.76090  0.63170  0.19750  Biso   1.000  C
  C238     1.0000 0.91220  0.71590  0.19040  Biso   1.000  C
  O69      1.0000 0.44077  0.14703  0.66610  Biso   1.000  O
  O70      1.0000 0.36917  0.11773  0.63444  Biso   1.000  O
  C239     1.0000 0.42227  0.12773  0.64652  Biso   1.000  C
  C240     1.0000 0.47807  0.09953  0.63274  Biso   1.000  C
  C241     1.0000 0.46667  0.06533  0.60781  Biso   1.000  C
  H35      1.0000 0.41717  0.05233  0.59933  Biso   1.000  H
  C242     1.0000 0.42657  0.96613  0.56013  Biso   1.000  C
  C243     1.0000 0.58167  0.05163  0.55173  Biso   1.000  C
  C244     1.0000 0.42757  0.96503  0.53083  Biso   1.000  C
  C245     1.0000 0.57887  0.04923  0.52373  Biso   1.000  C
  O71      1.0000 0.10743  0.48037  0.99944  Biso   1.000  O
  O72      1.0000 0.03583  0.45107  0.96778  Biso   1.000  O
  C246     1.0000 0.08893  0.46107  0.97986  Biso   1.000  C
  C247     1.0000 0.14473  0.43287  0.96608  Biso   1.000  C
  C248     1.0000 0.13333  0.39867  0.94115  Biso   1.000  C
  H36      1.0000 0.08383  0.38567  0.93267  Biso   1.000  H
  C249     1.0000 0.09323  0.29947  0.89347  Biso   1.000  C
  C250     1.0000 0.24833  0.38497  0.88507  Biso   1.000  C
  C251     1.0000 0.09423  0.29837  0.86417  Biso   1.000  C
  C252     1.0000 0.24553  0.38257  0.85707  Biso   1.000  C
  Cu1      1.0000 0.71618  0.85809  0.35385  Biso   1.000  Cu
  Cu2      1.0000 0.38285  0.19142  0.68718  Biso   1.000  Cu
  Cu3      1.0000 0.04951  0.52476  0.02052  Biso   1.000  Cu
  Cu4      1.0000 0.14191  0.85809  0.35385  Biso   1.000  Cu
  Cu5      1.0000 0.80858  0.19142  0.68718  Biso   1.000  Cu
  Cu6      1.0000 0.47524  0.52476  0.02052  Biso   1.000  Cu
  Cu7      1.0000 0.14191  0.28382  0.35385  Biso   1.000  Cu
  Cu8      1.0000 0.80858  0.61715  0.68718  Biso   1.000  Cu
  Cu9      1.0000 0.47524  0.95049  0.02052  Biso   1.000  Cu
  Cu10     1.0000 0.85809  0.71618  0.64615  Biso   1.000  Cu
  Cu11     1.0000 0.52476  0.04951  0.97948  Biso   1.000  Cu
  Cu12     1.0000 0.19142  0.38285  0.31282  Biso   1.000  Cu
  Cu13     1.0000 0.85809  0.14191  0.64615  Biso   1.000  Cu
  Cu14     1.0000 0.52476  0.47524  0.97948  Biso   1.000  Cu
  Cu15     1.0000 0.19142  0.80858  0.31282  Biso   1.000  Cu
  Cu16     1.0000 0.28382  0.14191  0.64615  Biso   1.000  Cu
  Cu17     1.0000 0.95049  0.47524  0.97948  Biso   1.000  Cu
  Cu18     1.0000 0.61715  0.80858  0.31282  Biso   1.000  Cu
  C253     1.0000 0.89010  0.10990  0.31220  Biso   1.000  C
  H37      1.0000 0.89950  0.10050  0.32910  Biso   1.000  H
  C254     1.0000 0.85810  0.14190  0.26150  Biso   1.000  C
  C255     1.0000 0.84180  0.15820  0.23420  Biso   1.000  C
  C256     1.0000 0.80070  0.19930  0.18880  Biso   1.000  C
  C257     1.0000 0.83900  0.16100  0.18090  Biso   1.000  C
  C258     1.0000 0.88100  0.11900  0.17550  Biso   1.000  C
  C259     1.0000 0.55677  0.44323  0.64553  Biso   1.000  C
  H38      1.0000 0.56617  0.43383  0.66243  Biso   1.000  H
  C260     1.0000 0.52477  0.47523  0.59483  Biso   1.000  C
  C261     1.0000 0.50847  0.49153  0.56753  Biso   1.000  C
  C262     1.0000 0.46737  0.53263  0.52213  Biso   1.000  C
  C263     1.0000 0.50567  0.49433  0.51423  Biso   1.000  C
  C264     1.0000 0.54767  0.45233  0.50883  Biso   1.000  C
  C265     1.0000 0.22343  0.77657  0.97887  Biso   1.000  C
  H39      1.0000 0.23283  0.76717  0.99577  Biso   1.000  H
  C266     1.0000 0.19143  0.80857  0.92817  Biso   1.000  C
  C267     1.0000 0.17513  0.82487  0.90087  Biso   1.000  C
  C268     1.0000 0.13403  0.86597  0.85547  Biso   1.000  C
  C269     1.0000 0.17233  0.82767  0.84757  Biso   1.000  C
  C270     1.0000 0.21433  0.78567  0.84217  Biso   1.000  C
  C271     1.0000 0.89010  0.78020  0.31220  Biso   1.000  C
  H40      1.0000 0.89950  0.79900  0.32910  Biso   1.000  H
  C272     1.0000 0.85810  0.71620  0.26150  Biso   1.000  C
  C273     1.0000 0.84180  0.68360  0.23420  Biso   1.000  C
  C274     1.0000 0.80070  0.60140  0.18880  Biso   1.000  C
  C275     1.0000 0.83900  0.67800  0.18090  Biso   1.000  C
  C276     1.0000 0.88100  0.76200  0.17550  Biso   1.000  C
  C277     1.0000 0.55677  0.11353  0.64553  Biso   1.000  C
  H41      1.0000 0.56617  0.13233  0.66243  Biso   1.000  H
  C278     1.0000 0.52477  0.04953  0.59483  Biso   1.000  C
  C279     1.0000 0.50847  0.01693  0.56753  Biso   1.000  C
  C280     1.0000 0.46737  0.93473  0.52213  Biso   1.000  C
  C281     1.0000 0.50567  0.01133  0.51423  Biso   1.000  C
  C282     1.0000 0.54767  0.09533  0.50883  Biso   1.000  C
  C283     1.0000 0.22343  0.44687  0.97887  Biso   1.000  C
  H42      1.0000 0.23283  0.46567  0.99577  Biso   1.000  H
  C284     1.0000 0.19143  0.38287  0.92817  Biso   1.000  C
  C285     1.0000 0.17513  0.35027  0.90087  Biso   1.000  C
  C286     1.0000 0.13403  0.26807  0.85547  Biso   1.000  C
  C287     1.0000 0.17233  0.34467  0.84757  Biso   1.000  C
  C288     1.0000 0.21433  0.42867  0.84217  Biso   1.000  C
  C289     1.0000 0.21980  0.10990  0.31220  Biso   1.000  C
  H43      1.0000 0.20100  0.10050  0.32910  Biso   1.000  H
  C290     1.0000 0.28380  0.14190  0.26150  Biso   1.000  C
  C291     1.0000 0.31640  0.15820  0.23420  Biso   1.000  C
  C292     1.0000 0.39860  0.19930  0.18880  Biso   1.000  C
  C293     1.0000 0.32200  0.16100  0.18090  Biso   1.000  C
  C294     1.0000 0.23800  0.11900  0.17550  Biso   1.000  C
  C295     1.0000 0.88647  0.44323  0.64553  Biso   1.000  C
  H44      1.0000 0.86767  0.43383  0.66243  Biso   1.000  H
  C296     1.0000 0.95047  0.47523  0.59483  Biso   1.000  C
  C297     1.0000 0.98307  0.49153  0.56753  Biso   1.000  C
  C298     1.0000 0.06527  0.53263  0.52213  Biso   1.000  C
  C299     1.0000 0.98867  0.49433  0.51423  Biso   1.000  C
  C300     1.0000 0.90467  0.45233  0.50883  Biso   1.000  C
  C301     1.0000 0.55313  0.77657  0.97887  Biso   1.000  C
  H45      1.0000 0.53433  0.76717  0.99577  Biso   1.000  H
  C302     1.0000 0.61713  0.80857  0.92817  Biso   1.000  C
  C303     1.0000 0.64973  0.82487  0.90087  Biso   1.000  C
  C304     1.0000 0.73193  0.86597  0.85547  Biso   1.000  C
  C305     1.0000 0.65533  0.82767  0.84757  Biso   1.000  C
  C306     1.0000 0.57133  0.78567  0.84217  Biso   1.000  C
  C307     1.0000 0.10990  0.89010  0.68780  Biso   1.000  C
  H46      1.0000 0.10050  0.89950  0.67090  Biso   1.000  H
  C308     1.0000 0.14190  0.85810  0.73850  Biso   1.000  C
  C309     1.0000 0.15820  0.84180  0.76580  Biso   1.000  C
  C310     1.0000 0.19930  0.80070  0.81120  Biso   1.000  C
  C311     1.0000 0.16100  0.83900  0.81910  Biso   1.000  C
  C312     1.0000 0.11900  0.88100  0.82450  Biso   1.000  C
  C313     1.0000 0.77657  0.22343  0.02113  Biso   1.000  C
  H47      1.0000 0.76717  0.23283  0.00423  Biso   1.000  H
  C314     1.0000 0.80857  0.19143  0.07183  Biso   1.000  C
  C315     1.0000 0.82487  0.17513  0.09913  Biso   1.000  C
  C316     1.0000 0.86597  0.13403  0.14453  Biso   1.000  C
  C317     1.0000 0.82767  0.17233  0.15243  Biso   1.000  C
  C318     1.0000 0.78567  0.21433  0.15783  Biso   1.000  C
  C319     1.0000 0.44323  0.55677  0.35447  Biso   1.000  C
  H48      1.0000 0.43383  0.56617  0.33757  Biso   1.000  H
  C320     1.0000 0.47523  0.52477  0.40517  Biso   1.000  C
  C321     1.0000 0.49153  0.50847  0.43247  Biso   1.000  C
  C322     1.0000 0.53263  0.46737  0.47787  Biso   1.000  C
  C323     1.0000 0.49433  0.50567  0.48577  Biso   1.000  C
  C324     1.0000 0.45233  0.54767  0.49117  Biso   1.000  C
  C325     1.0000 0.78020  0.89010  0.68780  Biso   1.000  C
  H49      1.0000 0.79900  0.89950  0.67090  Biso   1.000  H
  C326     1.0000 0.71620  0.85810  0.73850  Biso   1.000  C
  C327     1.0000 0.68360  0.84180  0.76580  Biso   1.000  C
  C328     1.0000 0.60140  0.80070  0.81120  Biso   1.000  C
  C329     1.0000 0.67800  0.83900  0.81910  Biso   1.000  C
  C330     1.0000 0.76200  0.88100  0.82450  Biso   1.000  C
  C331     1.0000 0.44687  0.22343  0.02113  Biso   1.000  C
  H50      1.0000 0.46567  0.23283  0.00423  Biso   1.000  H
  C332     1.0000 0.38287  0.19143  0.07183  Biso   1.000  C
  C333     1.0000 0.35027  0.17513  0.09913  Biso   1.000  C
  C334     1.0000 0.26807  0.13403  0.14453  Biso   1.000  C
  C335     1.0000 0.34467  0.17233  0.15243  Biso   1.000  C
  C336     1.0000 0.42867  0.21433  0.15783  Biso   1.000  C
  C337     1.0000 0.11353  0.55677  0.35447  Biso   1.000  C
  H51      1.0000 0.13233  0.56617  0.33757  Biso   1.000  H
  C338     1.0000 0.04953  0.52477  0.40517  Biso   1.000  C
  C339     1.0000 0.01693  0.50847  0.43247  Biso   1.000  C
  C340     1.0000 0.93473  0.46737  0.47787  Biso   1.000  C
  C341     1.0000 0.01133  0.50567  0.48577  Biso   1.000  C
  C342     1.0000 0.09533  0.54767  0.49117  Biso   1.000  C
  C343     1.0000 0.10990  0.21980  0.68780  Biso   1.000  C
  H52      1.0000 0.10050  0.20100  0.67090  Biso   1.000  H
  C344     1.0000 0.14190  0.28380  0.73850  Biso   1.000  C
  C345     1.0000 0.15820  0.31640  0.76580  Biso   1.000  C
  C346     1.0000 0.19930  0.39860  0.81120  Biso   1.000  C
  C347     1.0000 0.16100  0.32200  0.81910  Biso   1.000  C
  C348     1.0000 0.11900  0.23800  0.82450  Biso   1.000  C
  C349     1.0000 0.77657  0.55313  0.02113  Biso   1.000  C
  H53      1.0000 0.76717  0.53433  0.00423  Biso   1.000  H
  C350     1.0000 0.80857  0.61713  0.07183  Biso   1.000  C
  C351     1.0000 0.82487  0.64973  0.09913  Biso   1.000  C
  C352     1.0000 0.86597  0.73193  0.14453  Biso   1.000  C
  C353     1.0000 0.82767  0.65533  0.15243  Biso   1.000  C
  C354     1.0000 0.78567  0.57133  0.15783  Biso   1.000  C
  C355     1.0000 0.44323  0.88647  0.35447  Biso   1.000  C
  H54      1.0000 0.43383  0.86767  0.33757  Biso   1.000  H
  C356     1.0000 0.47523  0.95047  0.40517  Biso   1.000  C
  C357     1.0000 0.49153  0.98307  0.43247  Biso   1.000  C
  C358     1.0000 0.53263  0.06527  0.47787  Biso   1.000  C
  C359     1.0000 0.49433  0.98867  0.48577  Biso   1.000  C
  C360     1.0000 0.45233  0.90467  0.49117  Biso   1.000  C
