data_image0
_cell_length_a       25.618
_cell_length_b       17.04
_cell_length_c       4.4322
_cell_angle_alpha    90
_cell_angle_beta     99.96
_cell_angle_gamma    90

_symmetry_space_group_name_H-M    "P 1"
_symmetry_int_tables_number       1

loop_
  _symmetry_equiv_pos_as_xyz
  'x, y, z'

loop_
  _atom_site_label
  _atom_site_occupancy
  _atom_site_fract_x
  _atom_site_fract_y
  _atom_site_fract_z
  _atom_site_thermal_displace_type
  _atom_site_B_iso_or_equiv
  _atom_site_type_symbol
  Cu1      1.0000 0.46865  0.39272  0.29599  Biso   1.000  Cu
  O1       1.0000 0.50620  0.28520  0.34900  Biso   1.000  O
  P1       1.0000 0.37850  0.37176  0.71590  Biso   1.000  P
  O2       1.0000 0.42700  0.34410  0.93870  Biso   1.000  O
  O3       1.0000 0.39580  0.41920  0.45200  Biso   1.000  O
  O4       1.0000 0.33880  0.41840  0.86310  Biso   1.000  O
  C1       1.0000 0.34800  0.28190  0.55660  Biso   1.000  C
  C2       1.0000 0.36690  0.21080  0.66800  Biso   1.000  C
  H1       1.0000 0.39600  0.20910  0.82600  Biso   1.000  H
  C3       1.0000 0.34360  0.13990  0.54900  Biso   1.000  C
  H2       1.0000 0.35610  0.09210  0.63400  Biso   1.000  H
  C4       1.0000 0.30150  0.14220  0.30400  Biso   1.000  C
  C5       1.0000 0.28050  0.21250  0.19300  Biso   1.000  C
  H3       1.0000 0.25140  0.21380  0.03560  Biso   1.000  H
  C6       1.0000 0.30340  0.28300  0.32100  Biso   1.000  C
  H4       1.0000 0.28880  0.33090  0.24920  Biso   1.000  H
  C7       1.0000 0.27840  0.06580  0.16400  Biso   1.000  C
  N1       1.0000 0.23820  0.06990  0.92880  Biso   1.000  N
  O5       1.0000 0.01460  0.07500  0.66270  Biso   1.000  O
  C8       1.0000 0.15300  0.06940  0.43400  Biso   1.000  C
  H5       1.0000 0.16880  0.11660  0.50480  Biso   1.000  H
  C9       1.0000 0.10840  0.06960  0.20600  Biso   1.000  C
  H6       1.0000 0.09520  0.11700  0.12020  Biso   1.000  H
  O6       1.0000 0.48380  0.28560  0.49300  Biso   1.000  O
  Cu2      1.0000 0.96865  0.89272  0.29599  Biso   1.000  Cu
  O7       1.0000 0.00620  0.78520  0.34900  Biso   1.000  O
  P2       1.0000 0.87850  0.87176  0.71590  Biso   1.000  P
  O8       1.0000 0.92700  0.84410  0.93870  Biso   1.000  O
  O9       1.0000 0.89580  0.91920  0.45200  Biso   1.000  O
  O10      1.0000 0.83880  0.91840  0.86310  Biso   1.000  O
  C10      1.0000 0.84800  0.78190  0.55660  Biso   1.000  C
  C11      1.0000 0.86690  0.71080  0.66800  Biso   1.000  C
  H7       1.0000 0.89600  0.70910  0.82600  Biso   1.000  H
  C12      1.0000 0.84360  0.63990  0.54900  Biso   1.000  C
  H8       1.0000 0.85610  0.59210  0.63400  Biso   1.000  H
  C13      1.0000 0.80150  0.64220  0.30400  Biso   1.000  C
  C14      1.0000 0.78050  0.71250  0.19300  Biso   1.000  C
  H9       1.0000 0.75140  0.71380  0.03560  Biso   1.000  H
  C15      1.0000 0.80340  0.78300  0.32100  Biso   1.000  C
  H10      1.0000 0.78880  0.83090  0.24920  Biso   1.000  H
  C16      1.0000 0.77840  0.56580  0.16400  Biso   1.000  C
  N2       1.0000 0.73820  0.56990  0.92880  Biso   1.000  N
  O11      1.0000 0.51460  0.57500  0.66270  Biso   1.000  O
  C17      1.0000 0.65300  0.56940  0.43400  Biso   1.000  C
  H11      1.0000 0.66880  0.61660  0.50480  Biso   1.000  H
  C18      1.0000 0.60840  0.56960  0.20600  Biso   1.000  C
  H12      1.0000 0.59520  0.61700  0.12020  Biso   1.000  H
  O12      1.0000 0.98380  0.78560  0.49300  Biso   1.000  O
  Cu3      1.0000 0.46865  0.60728  0.29599  Biso   1.000  Cu
  O13      1.0000 0.50620  0.71480  0.34900  Biso   1.000  O
  P3       1.0000 0.37850  0.62824  0.71590  Biso   1.000  P
  O14      1.0000 0.42700  0.65590  0.93870  Biso   1.000  O
  O15      1.0000 0.39580  0.58080  0.45200  Biso   1.000  O
  O16      1.0000 0.33880  0.58160  0.86310  Biso   1.000  O
  C19      1.0000 0.34800  0.71810  0.55660  Biso   1.000  C
  C20      1.0000 0.36690  0.78920  0.66800  Biso   1.000  C
  H13      1.0000 0.39600  0.79090  0.82600  Biso   1.000  H
  C21      1.0000 0.34360  0.86010  0.54900  Biso   1.000  C
  H14      1.0000 0.35610  0.90790  0.63400  Biso   1.000  H
  C22      1.0000 0.30150  0.85780  0.30400  Biso   1.000  C
  C23      1.0000 0.28050  0.78750  0.19300  Biso   1.000  C
  H15      1.0000 0.25140  0.78620  0.03560  Biso   1.000  H
  C24      1.0000 0.30340  0.71700  0.32100  Biso   1.000  C
  H16      1.0000 0.28880  0.66910  0.24920  Biso   1.000  H
  C25      1.0000 0.27840  0.93420  0.16400  Biso   1.000  C
  N3       1.0000 0.23820  0.93010  0.92880  Biso   1.000  N
  O17      1.0000 0.01460  0.92500  0.66270  Biso   1.000  O
  C26      1.0000 0.15300  0.93060  0.43400  Biso   1.000  C
  H17      1.0000 0.16880  0.88340  0.50480  Biso   1.000  H
  C27      1.0000 0.10840  0.93040  0.20600  Biso   1.000  C
  H18      1.0000 0.09520  0.88300  0.12020  Biso   1.000  H
  O18      1.0000 0.48380  0.71440  0.49300  Biso   1.000  O
  Cu4      1.0000 0.96865  0.10728  0.29599  Biso   1.000  Cu
  O19      1.0000 0.00620  0.21480  0.34900  Biso   1.000  O
  P4       1.0000 0.87850  0.12824  0.71590  Biso   1.000  P
  O20      1.0000 0.92700  0.15590  0.93870  Biso   1.000  O
  O21      1.0000 0.89580  0.08080  0.45200  Biso   1.000  O
  O22      1.0000 0.83880  0.08160  0.86310  Biso   1.000  O
  C28      1.0000 0.84800  0.21810  0.55660  Biso   1.000  C
  C29      1.0000 0.86690  0.28920  0.66800  Biso   1.000  C
  H19      1.0000 0.89600  0.29090  0.82600  Biso   1.000  H
  C30      1.0000 0.84360  0.36010  0.54900  Biso   1.000  C
  H20      1.0000 0.85610  0.40790  0.63400  Biso   1.000  H
  C31      1.0000 0.80150  0.35780  0.30400  Biso   1.000  C
  C32      1.0000 0.78050  0.28750  0.19300  Biso   1.000  C
  H21      1.0000 0.75140  0.28620  0.03560  Biso   1.000  H
  C33      1.0000 0.80340  0.21700  0.32100  Biso   1.000  C
  H22      1.0000 0.78880  0.16910  0.24920  Biso   1.000  H
  C34      1.0000 0.77840  0.43420  0.16400  Biso   1.000  C
  N4       1.0000 0.73820  0.43010  0.92880  Biso   1.000  N
  O23      1.0000 0.51460  0.42500  0.66270  Biso   1.000  O
  C35      1.0000 0.65300  0.43060  0.43400  Biso   1.000  C
  H23      1.0000 0.66880  0.38340  0.50480  Biso   1.000  H
  C36      1.0000 0.60840  0.43040  0.20600  Biso   1.000  C
  H24      1.0000 0.59520  0.38300  0.12020  Biso   1.000  H
  O24      1.0000 0.98380  0.21440  0.49300  Biso   1.000  O
  Cu5      1.0000 0.36046  0.50000  0.16950  Biso   1.000  Cu
  Cu6      1.0000 0.86046  0.00000  0.16950  Biso   1.000  Cu
  N5       1.0000 0.30080  0.00000  0.28500  Biso   1.000  N
  C37      1.0000 0.21850  0.00000  0.81600  Biso   1.000  C
  P5       1.0000 0.01862  0.00000  0.84820  Biso   1.000  P
  O25      1.0000 0.97850  0.00000  0.06900  Biso   1.000  O
  C38      1.0000 0.17340  0.00000  0.55400  Biso   1.000  C
  C39      1.0000 0.08350  0.00000  0.10300  Biso   1.000  C
  N6       1.0000 0.80080  0.50000  0.28500  Biso   1.000  N
  C40      1.0000 0.71850  0.50000  0.81600  Biso   1.000  C
  P6       1.0000 0.51862  0.50000  0.84820  Biso   1.000  P
  O26      1.0000 0.47850  0.50000  0.06900  Biso   1.000  O
  C41      1.0000 0.67340  0.50000  0.55400  Biso   1.000  C
  C42      1.0000 0.58350  0.50000  0.10300  Biso   1.000  C
