data_image0
_cell_length_a       9.0229
_cell_length_b       21.6107
_cell_length_c       24.0491
_cell_angle_alpha    90
_cell_angle_beta     90
_cell_angle_gamma    90

_symmetry_space_group_name_H-M    "P 1"
_symmetry_int_tables_number       1

loop_
  _symmetry_equiv_pos_as_xyz
  'x, y, z'

loop_
  _atom_site_label
  _atom_site_occupancy
  _atom_site_fract_x
  _atom_site_fract_y
  _atom_site_fract_z
  _atom_site_thermal_displace_type
  _atom_site_B_iso_or_equiv
  _atom_site_type_symbol
  C1       1.0000 0.02620  0.18710  0.06980  Biso   1.000  C
  H1       1.0000 0.95970  0.21010  0.04790  Biso   1.000  H
  N1       1.0000 0.16790  0.19374  0.06053  Biso   1.000  N
  C2       1.0000 0.96840  0.14820  0.11000  Biso   1.000  C
  H2       1.0000 0.86560  0.14440  0.11530  Biso   1.000  H
  C3       1.0000 0.06710  0.11512  0.14197  Biso   1.000  C
  C4       1.0000 0.21300  0.12310  0.13350  Biso   1.000  C
  H3       1.0000 0.28220  0.10160  0.15550  Biso   1.000  H
  C5       1.0000 0.26010  0.16250  0.09310  Biso   1.000  C
  H4       1.0000 0.36260  0.16790  0.08800  Biso   1.000  H
  O1       1.0000 0.00400  0.07732  0.18059  Biso   1.000  O
  C6       1.0000 0.10130  0.03983  0.21340  Biso   1.000  C
  H5       1.0000 0.16600  0.06580  0.23640  Biso   1.000  H
  H6       1.0000 0.16310  0.01370  0.18950  Biso   1.000  H
  C7       1.0000 0.52620  0.68710  0.06980  Biso   1.000  C
  H7       1.0000 0.45970  0.71010  0.04790  Biso   1.000  H
  N2       1.0000 0.66790  0.69374  0.06053  Biso   1.000  N
  C8       1.0000 0.46840  0.64820  0.11000  Biso   1.000  C
  H8       1.0000 0.36560  0.64440  0.11530  Biso   1.000  H
  C9       1.0000 0.56710  0.61512  0.14197  Biso   1.000  C
  C10      1.0000 0.71300  0.62310  0.13350  Biso   1.000  C
  H9       1.0000 0.78220  0.60160  0.15550  Biso   1.000  H
  C11      1.0000 0.76010  0.66250  0.09310  Biso   1.000  C
  H10      1.0000 0.86260  0.66790  0.08800  Biso   1.000  H
  O2       1.0000 0.50400  0.57732  0.18059  Biso   1.000  O
  C12      1.0000 0.60130  0.53983  0.21340  Biso   1.000  C
  H11      1.0000 0.66600  0.56580  0.23640  Biso   1.000  H
  H12      1.0000 0.66310  0.51370  0.18950  Biso   1.000  H
  C13      1.0000 0.97380  0.81290  0.06980  Biso   1.000  C
  H13      1.0000 0.04030  0.78990  0.04790  Biso   1.000  H
  N3       1.0000 0.83210  0.80626  0.06053  Biso   1.000  N
  C14      1.0000 0.03160  0.85180  0.11000  Biso   1.000  C
  H14      1.0000 0.13440  0.85560  0.11530  Biso   1.000  H
  C15      1.0000 0.93290  0.88488  0.14197  Biso   1.000  C
  C16      1.0000 0.78700  0.87690  0.13350  Biso   1.000  C
  H15      1.0000 0.71780  0.89840  0.15550  Biso   1.000  H
  C17      1.0000 0.73990  0.83750  0.09310  Biso   1.000  C
  H16      1.0000 0.63740  0.83210  0.08800  Biso   1.000  H
  O3       1.0000 0.99600  0.92268  0.18059  Biso   1.000  O
  C18      1.0000 0.89870  0.96017  0.21340  Biso   1.000  C
  H17      1.0000 0.83400  0.93420  0.23640  Biso   1.000  H
  H18      1.0000 0.83690  0.98630  0.18950  Biso   1.000  H
  C19      1.0000 0.47380  0.31290  0.06980  Biso   1.000  C
  H19      1.0000 0.54030  0.28990  0.04790  Biso   1.000  H
  N4       1.0000 0.33210  0.30626  0.06053  Biso   1.000  N
  C20      1.0000 0.53160  0.35180  0.11000  Biso   1.000  C
  H20      1.0000 0.63440  0.35560  0.11530  Biso   1.000  H
  C21      1.0000 0.43290  0.38488  0.14197  Biso   1.000  C
  C22      1.0000 0.28700  0.37690  0.13350  Biso   1.000  C
  H21      1.0000 0.21780  0.39840  0.15550  Biso   1.000  H
  C23      1.0000 0.23990  0.33750  0.09310  Biso   1.000  C
  H22      1.0000 0.13740  0.33210  0.08800  Biso   1.000  H
  O4       1.0000 0.49600  0.42268  0.18059  Biso   1.000  O
  C24      1.0000 0.39870  0.46017  0.21340  Biso   1.000  C
  H23      1.0000 0.33400  0.43420  0.23640  Biso   1.000  H
  H24      1.0000 0.33690  0.48630  0.18950  Biso   1.000  H
  C25      1.0000 0.97380  0.18710  0.43020  Biso   1.000  C
  H25      1.0000 0.04030  0.21010  0.45210  Biso   1.000  H
  N5       1.0000 0.83210  0.19374  0.43947  Biso   1.000  N
  C26      1.0000 0.03160  0.14820  0.39000  Biso   1.000  C
  H26      1.0000 0.13440  0.14440  0.38470  Biso   1.000  H
  C27      1.0000 0.93290  0.11512  0.35803  Biso   1.000  C
  C28      1.0000 0.78700  0.12310  0.36650  Biso   1.000  C
  H27      1.0000 0.71780  0.10160  0.34450  Biso   1.000  H
  C29      1.0000 0.73990  0.16250  0.40690  Biso   1.000  C
  H28      1.0000 0.63740  0.16790  0.41200  Biso   1.000  H
  O5       1.0000 0.99600  0.07732  0.31941  Biso   1.000  O
  C30      1.0000 0.89870  0.03983  0.28660  Biso   1.000  C
  H29      1.0000 0.83400  0.06580  0.26360  Biso   1.000  H
  H30      1.0000 0.83690  0.01370  0.31050  Biso   1.000  H
  C31      1.0000 0.47380  0.68710  0.43020  Biso   1.000  C
  H31      1.0000 0.54030  0.71010  0.45210  Biso   1.000  H
  N6       1.0000 0.33210  0.69374  0.43947  Biso   1.000  N
  C32      1.0000 0.53160  0.64820  0.39000  Biso   1.000  C
  H32      1.0000 0.63440  0.64440  0.38470  Biso   1.000  H
  C33      1.0000 0.43290  0.61512  0.35803  Biso   1.000  C
  C34      1.0000 0.28700  0.62310  0.36650  Biso   1.000  C
  H33      1.0000 0.21780  0.60160  0.34450  Biso   1.000  H
  C35      1.0000 0.23990  0.66250  0.40690  Biso   1.000  C
  H34      1.0000 0.13740  0.66790  0.41200  Biso   1.000  H
  O6       1.0000 0.49600  0.57732  0.31941  Biso   1.000  O
  C36      1.0000 0.39870  0.53983  0.28660  Biso   1.000  C
  H35      1.0000 0.33400  0.56580  0.26360  Biso   1.000  H
  H36      1.0000 0.33690  0.51370  0.31050  Biso   1.000  H
  C37      1.0000 0.02620  0.81290  0.43020  Biso   1.000  C
  H37      1.0000 0.95970  0.78990  0.45210  Biso   1.000  H
  N7       1.0000 0.16790  0.80626  0.43947  Biso   1.000  N
  C38      1.0000 0.96840  0.85180  0.39000  Biso   1.000  C
  H38      1.0000 0.86560  0.85560  0.38470  Biso   1.000  H
  C39      1.0000 0.06710  0.88488  0.35803  Biso   1.000  C
  C40      1.0000 0.21300  0.87690  0.36650  Biso   1.000  C
  H39      1.0000 0.28220  0.89840  0.34450  Biso   1.000  H
  C41      1.0000 0.26010  0.83750  0.40690  Biso   1.000  C
  H40      1.0000 0.36260  0.83210  0.41200  Biso   1.000  H
  O7       1.0000 0.00400  0.92268  0.31941  Biso   1.000  O
  C42      1.0000 0.10130  0.96017  0.28660  Biso   1.000  C
  H41      1.0000 0.16600  0.93420  0.26360  Biso   1.000  H
  H42      1.0000 0.16310  0.98630  0.31050  Biso   1.000  H
  C43      1.0000 0.52620  0.31290  0.43020  Biso   1.000  C
  H43      1.0000 0.45970  0.28990  0.45210  Biso   1.000  H
  N8       1.0000 0.66790  0.30626  0.43947  Biso   1.000  N
  C44      1.0000 0.46840  0.35180  0.39000  Biso   1.000  C
  H44      1.0000 0.36560  0.35560  0.38470  Biso   1.000  H
  C45      1.0000 0.56710  0.38488  0.35803  Biso   1.000  C
  C46      1.0000 0.71300  0.37690  0.36650  Biso   1.000  C
  H45      1.0000 0.78220  0.39840  0.34450  Biso   1.000  H
  C47      1.0000 0.76010  0.33750  0.40690  Biso   1.000  C
  H46      1.0000 0.86260  0.33210  0.41200  Biso   1.000  H
  O8       1.0000 0.50400  0.42268  0.31941  Biso   1.000  O
  C48      1.0000 0.60130  0.46017  0.28660  Biso   1.000  C
  H47      1.0000 0.66600  0.43420  0.26360  Biso   1.000  H
  H48      1.0000 0.66310  0.48630  0.31050  Biso   1.000  H
  C49      1.0000 0.97380  0.81290  0.93020  Biso   1.000  C
  H49      1.0000 0.04030  0.78990  0.95210  Biso   1.000  H
  N9       1.0000 0.83210  0.80626  0.93947  Biso   1.000  N
  C50      1.0000 0.03160  0.85180  0.89000  Biso   1.000  C
  H50      1.0000 0.13440  0.85560  0.88470  Biso   1.000  H
  C51      1.0000 0.93290  0.88488  0.85803  Biso   1.000  C
  C52      1.0000 0.78700  0.87690  0.86650  Biso   1.000  C
  H51      1.0000 0.71780  0.89840  0.84450  Biso   1.000  H
  C53      1.0000 0.73990  0.83750  0.90690  Biso   1.000  C
  H52      1.0000 0.63740  0.83210  0.91200  Biso   1.000  H
  O9       1.0000 0.99600  0.92268  0.81941  Biso   1.000  O
  C54      1.0000 0.89870  0.96017  0.78660  Biso   1.000  C
  H53      1.0000 0.83400  0.93420  0.76360  Biso   1.000  H
  H54      1.0000 0.83690  0.98630  0.81050  Biso   1.000  H
  C55      1.0000 0.47380  0.31290  0.93020  Biso   1.000  C
  H55      1.0000 0.54030  0.28990  0.95210  Biso   1.000  H
  N10      1.0000 0.33210  0.30626  0.93947  Biso   1.000  N
  C56      1.0000 0.53160  0.35180  0.89000  Biso   1.000  C
  H56      1.0000 0.63440  0.35560  0.88470  Biso   1.000  H
  C57      1.0000 0.43290  0.38488  0.85803  Biso   1.000  C
  C58      1.0000 0.28700  0.37690  0.86650  Biso   1.000  C
  H57      1.0000 0.21780  0.39840  0.84450  Biso   1.000  H
  C59      1.0000 0.23990  0.33750  0.90690  Biso   1.000  C
  H58      1.0000 0.13740  0.33210  0.91200  Biso   1.000  H
  O10      1.0000 0.49600  0.42268  0.81941  Biso   1.000  O
  C60      1.0000 0.39870  0.46017  0.78660  Biso   1.000  C
  H59      1.0000 0.33400  0.43420  0.76360  Biso   1.000  H
  H60      1.0000 0.33690  0.48630  0.81050  Biso   1.000  H
  C61      1.0000 0.02620  0.18710  0.93020  Biso   1.000  C
  H61      1.0000 0.95970  0.21010  0.95210  Biso   1.000  H
  N11      1.0000 0.16790  0.19374  0.93947  Biso   1.000  N
  C62      1.0000 0.96840  0.14820  0.89000  Biso   1.000  C
  H62      1.0000 0.86560  0.14440  0.88470  Biso   1.000  H
  C63      1.0000 0.06710  0.11512  0.85803  Biso   1.000  C
  C64      1.0000 0.21300  0.12310  0.86650  Biso   1.000  C
  H63      1.0000 0.28220  0.10160  0.84450  Biso   1.000  H
  C65      1.0000 0.26010  0.16250  0.90690  Biso   1.000  C
  H64      1.0000 0.36260  0.16790  0.91200  Biso   1.000  H
  O11      1.0000 0.00400  0.07732  0.81941  Biso   1.000  O
  C66      1.0000 0.10130  0.03983  0.78660  Biso   1.000  C
  H65      1.0000 0.16600  0.06580  0.76360  Biso   1.000  H
  H66      1.0000 0.16310  0.01370  0.81050  Biso   1.000  H
  C67      1.0000 0.52620  0.68710  0.93020  Biso   1.000  C
  H67      1.0000 0.45970  0.71010  0.95210  Biso   1.000  H
  N12      1.0000 0.66790  0.69374  0.93947  Biso   1.000  N
  C68      1.0000 0.46840  0.64820  0.89000  Biso   1.000  C
  H68      1.0000 0.36560  0.64440  0.88470  Biso   1.000  H
  C69      1.0000 0.56710  0.61512  0.85803  Biso   1.000  C
  C70      1.0000 0.71300  0.62310  0.86650  Biso   1.000  C
  H69      1.0000 0.78220  0.60160  0.84450  Biso   1.000  H
  C71      1.0000 0.76010  0.66250  0.90690  Biso   1.000  C
  H70      1.0000 0.86260  0.66790  0.91200  Biso   1.000  H
  O12      1.0000 0.50400  0.57732  0.81941  Biso   1.000  O
  C72      1.0000 0.60130  0.53983  0.78660  Biso   1.000  C
  H71      1.0000 0.66600  0.56580  0.76360  Biso   1.000  H
  H72      1.0000 0.66310  0.51370  0.81050  Biso   1.000  H
  C73      1.0000 0.02620  0.81290  0.56980  Biso   1.000  C
  H73      1.0000 0.95970  0.78990  0.54790  Biso   1.000  H
  N13      1.0000 0.16790  0.80626  0.56053  Biso   1.000  N
  C74      1.0000 0.96840  0.85180  0.61000  Biso   1.000  C
  H74      1.0000 0.86560  0.85560  0.61530  Biso   1.000  H
  C75      1.0000 0.06710  0.88488  0.64197  Biso   1.000  C
  C76      1.0000 0.21300  0.87690  0.63350  Biso   1.000  C
  H75      1.0000 0.28220  0.89840  0.65550  Biso   1.000  H
  C77      1.0000 0.26010  0.83750  0.59310  Biso   1.000  C
  H76      1.0000 0.36260  0.83210  0.58800  Biso   1.000  H
  O13      1.0000 0.00400  0.92268  0.68059  Biso   1.000  O
  C78      1.0000 0.10130  0.96017  0.71340  Biso   1.000  C
  H77      1.0000 0.16600  0.93420  0.73640  Biso   1.000  H
  H78      1.0000 0.16310  0.98630  0.68950  Biso   1.000  H
  C79      1.0000 0.52620  0.31290  0.56980  Biso   1.000  C
  H79      1.0000 0.45970  0.28990  0.54790  Biso   1.000  H
  N14      1.0000 0.66790  0.30626  0.56053  Biso   1.000  N
  C80      1.0000 0.46840  0.35180  0.61000  Biso   1.000  C
  H80      1.0000 0.36560  0.35560  0.61530  Biso   1.000  H
  C81      1.0000 0.56710  0.38488  0.64197  Biso   1.000  C
  C82      1.0000 0.71300  0.37690  0.63350  Biso   1.000  C
  H81      1.0000 0.78220  0.39840  0.65550  Biso   1.000  H
  C83      1.0000 0.76010  0.33750  0.59310  Biso   1.000  C
  H82      1.0000 0.86260  0.33210  0.58800  Biso   1.000  H
  O14      1.0000 0.50400  0.42268  0.68059  Biso   1.000  O
  C84      1.0000 0.60130  0.46017  0.71340  Biso   1.000  C
  H83      1.0000 0.66600  0.43420  0.73640  Biso   1.000  H
  H84      1.0000 0.66310  0.48630  0.68950  Biso   1.000  H
  C85      1.0000 0.97380  0.18710  0.56980  Biso   1.000  C
  H85      1.0000 0.04030  0.21010  0.54790  Biso   1.000  H
  N15      1.0000 0.83210  0.19374  0.56053  Biso   1.000  N
  C86      1.0000 0.03160  0.14820  0.61000  Biso   1.000  C
  H86      1.0000 0.13440  0.14440  0.61530  Biso   1.000  H
  C87      1.0000 0.93290  0.11512  0.64197  Biso   1.000  C
  C88      1.0000 0.78700  0.12310  0.63350  Biso   1.000  C
  H87      1.0000 0.71780  0.10160  0.65550  Biso   1.000  H
  C89      1.0000 0.73990  0.16250  0.59310  Biso   1.000  C
  H88      1.0000 0.63740  0.16790  0.58800  Biso   1.000  H
  O15      1.0000 0.99600  0.07732  0.68059  Biso   1.000  O
  C90      1.0000 0.89870  0.03983  0.71340  Biso   1.000  C
  H89      1.0000 0.83400  0.06580  0.73640  Biso   1.000  H
  H90      1.0000 0.83690  0.01370  0.68950  Biso   1.000  H
  C91      1.0000 0.47380  0.68710  0.56980  Biso   1.000  C
  H91      1.0000 0.54030  0.71010  0.54790  Biso   1.000  H
  N16      1.0000 0.33210  0.69374  0.56053  Biso   1.000  N
  C92      1.0000 0.53160  0.64820  0.61000  Biso   1.000  C
  H92      1.0000 0.63440  0.64440  0.61530  Biso   1.000  H
  C93      1.0000 0.43290  0.61512  0.64197  Biso   1.000  C
  C94      1.0000 0.28700  0.62310  0.63350  Biso   1.000  C
  H93      1.0000 0.21780  0.60160  0.65550  Biso   1.000  H
  C95      1.0000 0.23990  0.66250  0.59310  Biso   1.000  C
  H94      1.0000 0.13740  0.66790  0.58800  Biso   1.000  H
  O16      1.0000 0.49600  0.57732  0.68059  Biso   1.000  O
  C96      1.0000 0.39870  0.53983  0.71340  Biso   1.000  C
  H95      1.0000 0.33400  0.56580  0.73640  Biso   1.000  H
  H96      1.0000 0.33690  0.51370  0.68950  Biso   1.000  H
  Cu1      1.0000 0.25000  0.25000  0.00000  Biso   1.000  Cu
  Cu2      1.0000 0.75000  0.75000  0.00000  Biso   1.000  Cu
  Cu3      1.0000 0.75000  0.25000  0.50000  Biso   1.000  Cu
  Cu4      1.0000 0.25000  0.75000  0.50000  Biso   1.000  Cu
  C97      1.0000 0.00000  0.00000  0.25000  Biso   1.000  C
  C98      1.0000 0.50000  0.50000  0.25000  Biso   1.000  C
  C99      1.0000 0.00000  0.00000  0.75000  Biso   1.000  C
  C100     1.0000 0.50000  0.50000  0.75000  Biso   1.000  C
  H97      1.0000 0.02380  0.48900  0.23600  Biso   1.000  H
  H98      1.0000 0.90540  0.46410  0.27800  Biso   1.000  H
  O17      1.0000 0.95600  0.53050  0.33460  Biso   1.000  O
  H99      1.0000 0.96600  0.54550  0.29590  Biso   1.000  H
  H100     1.0000 0.05280  0.53940  0.35210  Biso   1.000  H
  O18      1.0000 0.18300  0.52200  0.86920  Biso   1.000  O
  H101     1.0000 0.20310  0.55420  0.89750  Biso   1.000  H
  H102     1.0000 0.19150  0.48240  0.88970  Biso   1.000  H
  O19      1.0000 0.05300  0.50290  0.45540  Biso   1.000  O
  H103     1.0000 0.02130  0.47860  0.48820  Biso   1.000  H
  H104     1.0000 0.01540  0.47930  0.42310  Biso   1.000  H
  O20      1.0000 0.08000  0.53660  0.06380  Biso   1.000  O
  H105     1.0000 0.08110  0.51430  0.09980  Biso   1.000  H
  H106     1.0000 0.16700  0.52010  0.03980  Biso   1.000  H
  O21      1.0000 0.91400  0.62110  0.28040  Biso   1.000  O
  H107     1.0000 0.87400  0.60440  0.31580  Biso   1.000  H
  H108     1.0000 0.98660  0.58980  0.26800  Biso   1.000  H
  H109     1.0000 0.97620  0.51100  0.23600  Biso   1.000  H
  H110     1.0000 0.09460  0.53590  0.27800  Biso   1.000  H
  O22      1.0000 0.04400  0.46950  0.33460  Biso   1.000  O
  H111     1.0000 0.03400  0.45450  0.29590  Biso   1.000  H
  H112     1.0000 0.94720  0.46060  0.35210  Biso   1.000  H
  O23      1.0000 0.81700  0.47800  0.86920  Biso   1.000  O
  H113     1.0000 0.79690  0.44580  0.89750  Biso   1.000  H
  H114     1.0000 0.80850  0.51760  0.88970  Biso   1.000  H
  O24      1.0000 0.94700  0.49710  0.45540  Biso   1.000  O
  H115     1.0000 0.97870  0.52140  0.48820  Biso   1.000  H
  H116     1.0000 0.98460  0.52070  0.42310  Biso   1.000  H
  O25      1.0000 0.92000  0.46340  0.06380  Biso   1.000  O
  H117     1.0000 0.91890  0.48570  0.09980  Biso   1.000  H
  H118     1.0000 0.83300  0.47990  0.03980  Biso   1.000  H
  O26      1.0000 0.08600  0.37890  0.28040  Biso   1.000  O
  H119     1.0000 0.12600  0.39560  0.31580  Biso   1.000  H
  H120     1.0000 0.01340  0.41020  0.26800  Biso   1.000  H
  H121     1.0000 0.97620  0.48900  0.26400  Biso   1.000  H
  H122     1.0000 0.09460  0.46410  0.22200  Biso   1.000  H
  O27      1.0000 0.04400  0.53050  0.16540  Biso   1.000  O
  H123     1.0000 0.03400  0.54550  0.20410  Biso   1.000  H
  H124     1.0000 0.94720  0.53940  0.14790  Biso   1.000  H
  O28      1.0000 0.81700  0.52200  0.63080  Biso   1.000  O
  H125     1.0000 0.79690  0.55420  0.60250  Biso   1.000  H
  H126     1.0000 0.80850  0.48240  0.61030  Biso   1.000  H
  O29      1.0000 0.94700  0.50290  0.04460  Biso   1.000  O
  H127     1.0000 0.97870  0.47860  0.01180  Biso   1.000  H
  H128     1.0000 0.98460  0.47930  0.07690  Biso   1.000  H
  O30      1.0000 0.92000  0.53660  0.43620  Biso   1.000  O
  H129     1.0000 0.91890  0.51430  0.40020  Biso   1.000  H
  H130     1.0000 0.83300  0.52010  0.46020  Biso   1.000  H
  O31      1.0000 0.08600  0.62110  0.21960  Biso   1.000  O
  H131     1.0000 0.12600  0.60440  0.18420  Biso   1.000  H
  H132     1.0000 0.01340  0.58980  0.23200  Biso   1.000  H
  H133     1.0000 0.02380  0.51100  0.26400  Biso   1.000  H
  H134     1.0000 0.90540  0.53590  0.22200  Biso   1.000  H
  O32      1.0000 0.95600  0.46950  0.16540  Biso   1.000  O
  H135     1.0000 0.96600  0.45450  0.20410  Biso   1.000  H
  H136     1.0000 0.05280  0.46060  0.14790  Biso   1.000  H
  O33      1.0000 0.18300  0.47800  0.63080  Biso   1.000  O
  H137     1.0000 0.20310  0.44580  0.60250  Biso   1.000  H
  H138     1.0000 0.19150  0.51760  0.61030  Biso   1.000  H
  O34      1.0000 0.05300  0.49710  0.04460  Biso   1.000  O
  H139     1.0000 0.02130  0.52140  0.01180  Biso   1.000  H
  H140     1.0000 0.01540  0.52070  0.07690  Biso   1.000  H
  O35      1.0000 0.08000  0.46340  0.43620  Biso   1.000  O
  H141     1.0000 0.08110  0.48570  0.40020  Biso   1.000  H
  H142     1.0000 0.16700  0.47990  0.46020  Biso   1.000  H
  O36      1.0000 0.91400  0.37890  0.21960  Biso   1.000  O
  H143     1.0000 0.87400  0.39560  0.18420  Biso   1.000  H
  H144     1.0000 0.98660  0.41020  0.23200  Biso   1.000  H
  H145     1.0000 0.97620  0.51100  0.76400  Biso   1.000  H
  H146     1.0000 0.09460  0.53590  0.72200  Biso   1.000  H
  O37      1.0000 0.04400  0.46950  0.66540  Biso   1.000  O
  H147     1.0000 0.03400  0.45450  0.70410  Biso   1.000  H
  H148     1.0000 0.94720  0.46060  0.64790  Biso   1.000  H
  O38      1.0000 0.81700  0.47800  0.13080  Biso   1.000  O
  H149     1.0000 0.79690  0.44580  0.10250  Biso   1.000  H
  H150     1.0000 0.80850  0.51760  0.11030  Biso   1.000  H
  O39      1.0000 0.94700  0.49710  0.54460  Biso   1.000  O
  H151     1.0000 0.97870  0.52140  0.51180  Biso   1.000  H
  H152     1.0000 0.98460  0.52070  0.57690  Biso   1.000  H
  O40      1.0000 0.92000  0.46340  0.93620  Biso   1.000  O
  H153     1.0000 0.91890  0.48570  0.90020  Biso   1.000  H
  H154     1.0000 0.83300  0.47990  0.96020  Biso   1.000  H
  O41      1.0000 0.08600  0.37890  0.71960  Biso   1.000  O
  H155     1.0000 0.12600  0.39560  0.68420  Biso   1.000  H
  H156     1.0000 0.01340  0.41020  0.73200  Biso   1.000  H
  H157     1.0000 0.02380  0.48900  0.76400  Biso   1.000  H
  H158     1.0000 0.90540  0.46410  0.72200  Biso   1.000  H
  O42      1.0000 0.95600  0.53050  0.66540  Biso   1.000  O
  H159     1.0000 0.96600  0.54550  0.70410  Biso   1.000  H
  H160     1.0000 0.05280  0.53940  0.64790  Biso   1.000  H
  O43      1.0000 0.18300  0.52200  0.13080  Biso   1.000  O
  H161     1.0000 0.20310  0.55420  0.10250  Biso   1.000  H
  H162     1.0000 0.19150  0.48240  0.11030  Biso   1.000  H
  O44      1.0000 0.05300  0.50290  0.54460  Biso   1.000  O
  H163     1.0000 0.02130  0.47860  0.51180  Biso   1.000  H
  H164     1.0000 0.01540  0.47930  0.57690  Biso   1.000  H
  O45      1.0000 0.08000  0.53660  0.93620  Biso   1.000  O
  H165     1.0000 0.08110  0.51430  0.90020  Biso   1.000  H
  H166     1.0000 0.16700  0.52010  0.96020  Biso   1.000  H
  O46      1.0000 0.91400  0.62110  0.71960  Biso   1.000  O
  H167     1.0000 0.87400  0.60440  0.68420  Biso   1.000  H
  H168     1.0000 0.98660  0.58980  0.73200  Biso   1.000  H
  H169     1.0000 0.02380  0.51100  0.73600  Biso   1.000  H
  H170     1.0000 0.90540  0.53590  0.77800  Biso   1.000  H
  O47      1.0000 0.95600  0.46950  0.83460  Biso   1.000  O
  H171     1.0000 0.96600  0.45450  0.79590  Biso   1.000  H
  H172     1.0000 0.05280  0.46060  0.85210  Biso   1.000  H
  O48      1.0000 0.18300  0.47800  0.36920  Biso   1.000  O
  H173     1.0000 0.20310  0.44580  0.39750  Biso   1.000  H
  H174     1.0000 0.19150  0.51760  0.38970  Biso   1.000  H
  O49      1.0000 0.05300  0.49710  0.95540  Biso   1.000  O
  H175     1.0000 0.02130  0.52140  0.98820  Biso   1.000  H
  H176     1.0000 0.01540  0.52070  0.92310  Biso   1.000  H
  O50      1.0000 0.08000  0.46340  0.56380  Biso   1.000  O
  H177     1.0000 0.08110  0.48570  0.59980  Biso   1.000  H
  H178     1.0000 0.16700  0.47990  0.53980  Biso   1.000  H
  O51      1.0000 0.91400  0.37890  0.78040  Biso   1.000  O
  H179     1.0000 0.87400  0.39560  0.81580  Biso   1.000  H
  H180     1.0000 0.98660  0.41020  0.76800  Biso   1.000  H
  H181     1.0000 0.97620  0.48900  0.73600  Biso   1.000  H
  H182     1.0000 0.09460  0.46410  0.77800  Biso   1.000  H
  O52      1.0000 0.04400  0.53050  0.83460  Biso   1.000  O
  H183     1.0000 0.03400  0.54550  0.79590  Biso   1.000  H
  H184     1.0000 0.94720  0.53940  0.85210  Biso   1.000  H
  O53      1.0000 0.81700  0.52200  0.36920  Biso   1.000  O
  H185     1.0000 0.79690  0.55420  0.39750  Biso   1.000  H
  H186     1.0000 0.80850  0.48240  0.38970  Biso   1.000  H
  O54      1.0000 0.94700  0.50290  0.95540  Biso   1.000  O
  H187     1.0000 0.97870  0.47860  0.98820  Biso   1.000  H
  H188     1.0000 0.98460  0.47930  0.92310  Biso   1.000  H
  O55      1.0000 0.92000  0.53660  0.56380  Biso   1.000  O
  H189     1.0000 0.91890  0.51430  0.59980  Biso   1.000  H
  H190     1.0000 0.83300  0.52010  0.53980  Biso   1.000  H
  O56      1.0000 0.08600  0.62110  0.78040  Biso   1.000  O
  H191     1.0000 0.12600  0.60440  0.81580  Biso   1.000  H
  H192     1.0000 0.01340  0.58980  0.76800  Biso   1.000  H
  O57      1.0000 0.00000  0.45130  0.25000  Biso   1.000  O
  O58      1.0000 0.00000  0.54870  0.25000  Biso   1.000  O
  O59      1.0000 0.00000  0.54870  0.75000  Biso   1.000  O
  O60      1.0000 0.00000  0.45130  0.75000  Biso   1.000  O
  O61      1.0000 0.68300  0.02200  0.86920  Biso   1.000  O
  H193     1.0000 0.70310  0.05420  0.89750  Biso   1.000  H
  H194     1.0000 0.69150  0.98240  0.88970  Biso   1.000  H
  O62      1.0000 0.55300  0.00290  0.45540  Biso   1.000  O
  H195     1.0000 0.52130  0.97860  0.48820  Biso   1.000  H
  H196     1.0000 0.51540  0.97930  0.42310  Biso   1.000  H
  O63      1.0000 0.58000  0.03660  0.06380  Biso   1.000  O
  H197     1.0000 0.58110  0.01430  0.09980  Biso   1.000  H
  H198     1.0000 0.66700  0.02010  0.03980  Biso   1.000  H
  O64      1.0000 0.41400  0.12110  0.28040  Biso   1.000  O
  H199     1.0000 0.37400  0.10440  0.31580  Biso   1.000  H
  H200     1.0000 0.48660  0.08980  0.26800  Biso   1.000  H
  H201     1.0000 0.52380  0.98900  0.23600  Biso   1.000  H
  H202     1.0000 0.40540  0.96410  0.27800  Biso   1.000  H
  O65      1.0000 0.45600  0.03050  0.33460  Biso   1.000  O
  H203     1.0000 0.46600  0.04550  0.29590  Biso   1.000  H
  H204     1.0000 0.55280  0.03940  0.35210  Biso   1.000  H
  O66      1.0000 0.31700  0.97800  0.86920  Biso   1.000  O
  H205     1.0000 0.29690  0.94580  0.89750  Biso   1.000  H
  H206     1.0000 0.30850  0.01760  0.88970  Biso   1.000  H
  O67      1.0000 0.44700  0.99710  0.45540  Biso   1.000  O
  H207     1.0000 0.47870  0.02140  0.48820  Biso   1.000  H
  H208     1.0000 0.48460  0.02070  0.42310  Biso   1.000  H
  O68      1.0000 0.42000  0.96340  0.06380  Biso   1.000  O
  H209     1.0000 0.41890  0.98570  0.09980  Biso   1.000  H
  H210     1.0000 0.33300  0.97990  0.03980  Biso   1.000  H
  O69      1.0000 0.58600  0.87890  0.28040  Biso   1.000  O
  H211     1.0000 0.62600  0.89560  0.31580  Biso   1.000  H
  H212     1.0000 0.51340  0.91020  0.26800  Biso   1.000  H
  H213     1.0000 0.47620  0.01100  0.23600  Biso   1.000  H
  H214     1.0000 0.59460  0.03590  0.27800  Biso   1.000  H
  O70      1.0000 0.54400  0.96950  0.33460  Biso   1.000  O
  H215     1.0000 0.53400  0.95450  0.29590  Biso   1.000  H
  H216     1.0000 0.44720  0.96060  0.35210  Biso   1.000  H
  O71      1.0000 0.31700  0.02200  0.63080  Biso   1.000  O
  H217     1.0000 0.29690  0.05420  0.60250  Biso   1.000  H
  H218     1.0000 0.30850  0.98240  0.61030  Biso   1.000  H
  O72      1.0000 0.44700  0.00290  0.04460  Biso   1.000  O
  H219     1.0000 0.47870  0.97860  0.01180  Biso   1.000  H
  H220     1.0000 0.48460  0.97930  0.07690  Biso   1.000  H
  O73      1.0000 0.42000  0.03660  0.43620  Biso   1.000  O
  H221     1.0000 0.41890  0.01430  0.40020  Biso   1.000  H
  H222     1.0000 0.33300  0.02010  0.46020  Biso   1.000  H
  O74      1.0000 0.58600  0.12110  0.21960  Biso   1.000  O
  H223     1.0000 0.62600  0.10440  0.18420  Biso   1.000  H
  H224     1.0000 0.51340  0.08980  0.23200  Biso   1.000  H
  H225     1.0000 0.47620  0.98900  0.26400  Biso   1.000  H
  H226     1.0000 0.59460  0.96410  0.22200  Biso   1.000  H
  O75      1.0000 0.54400  0.03050  0.16540  Biso   1.000  O
  H227     1.0000 0.53400  0.04550  0.20410  Biso   1.000  H
  H228     1.0000 0.44720  0.03940  0.14790  Biso   1.000  H
  O76      1.0000 0.68300  0.97800  0.63080  Biso   1.000  O
  H229     1.0000 0.70310  0.94580  0.60250  Biso   1.000  H
  H230     1.0000 0.69150  0.01760  0.61030  Biso   1.000  H
  O77      1.0000 0.55300  0.99710  0.04460  Biso   1.000  O
  H231     1.0000 0.52130  0.02140  0.01180  Biso   1.000  H
  H232     1.0000 0.51540  0.02070  0.07690  Biso   1.000  H
  O78      1.0000 0.58000  0.96340  0.43620  Biso   1.000  O
  H233     1.0000 0.58110  0.98570  0.40020  Biso   1.000  H
  H234     1.0000 0.66700  0.97990  0.46020  Biso   1.000  H
  O79      1.0000 0.41400  0.87890  0.21960  Biso   1.000  O
  H235     1.0000 0.37400  0.89560  0.18420  Biso   1.000  H
  H236     1.0000 0.48660  0.91020  0.23200  Biso   1.000  H
  H237     1.0000 0.52380  0.01100  0.26400  Biso   1.000  H
  H238     1.0000 0.40540  0.03590  0.22200  Biso   1.000  H
  O80      1.0000 0.45600  0.96950  0.16540  Biso   1.000  O
  H239     1.0000 0.46600  0.95450  0.20410  Biso   1.000  H
  H240     1.0000 0.55280  0.96060  0.14790  Biso   1.000  H
  O81      1.0000 0.31700  0.97800  0.13080  Biso   1.000  O
  H241     1.0000 0.29690  0.94580  0.10250  Biso   1.000  H
  H242     1.0000 0.30850  0.01760  0.11030  Biso   1.000  H
  O82      1.0000 0.44700  0.99710  0.54460  Biso   1.000  O
  H243     1.0000 0.47870  0.02140  0.51180  Biso   1.000  H
  H244     1.0000 0.48460  0.02070  0.57690  Biso   1.000  H
  O83      1.0000 0.42000  0.96340  0.93620  Biso   1.000  O
  H245     1.0000 0.41890  0.98570  0.90020  Biso   1.000  H
  H246     1.0000 0.33300  0.97990  0.96020  Biso   1.000  H
  O84      1.0000 0.58600  0.87890  0.71960  Biso   1.000  O
  H247     1.0000 0.62600  0.89560  0.68420  Biso   1.000  H
  H248     1.0000 0.51340  0.91020  0.73200  Biso   1.000  H
  H249     1.0000 0.47620  0.01100  0.76400  Biso   1.000  H
  H250     1.0000 0.59460  0.03590  0.72200  Biso   1.000  H
  O85      1.0000 0.54400  0.96950  0.66540  Biso   1.000  O
  H251     1.0000 0.53400  0.95450  0.70410  Biso   1.000  H
  H252     1.0000 0.44720  0.96060  0.64790  Biso   1.000  H
  O86      1.0000 0.68300  0.02200  0.13080  Biso   1.000  O
  H253     1.0000 0.70310  0.05420  0.10250  Biso   1.000  H
  H254     1.0000 0.69150  0.98240  0.11030  Biso   1.000  H
  O87      1.0000 0.55300  0.00290  0.54460  Biso   1.000  O
  H255     1.0000 0.52130  0.97860  0.51180  Biso   1.000  H
  H256     1.0000 0.51540  0.97930  0.57690  Biso   1.000  H
  O88      1.0000 0.58000  0.03660  0.93620  Biso   1.000  O
  H257     1.0000 0.58110  0.01430  0.90020  Biso   1.000  H
  H258     1.0000 0.66700  0.02010  0.96020  Biso   1.000  H
  O89      1.0000 0.41400  0.12110  0.71960  Biso   1.000  O
  H259     1.0000 0.37400  0.10440  0.68420  Biso   1.000  H
  H260     1.0000 0.48660  0.08980  0.73200  Biso   1.000  H
  H261     1.0000 0.52380  0.98900  0.76400  Biso   1.000  H
  H262     1.0000 0.40540  0.96410  0.72200  Biso   1.000  H
  O90      1.0000 0.45600  0.03050  0.66540  Biso   1.000  O
  H263     1.0000 0.46600  0.04550  0.70410  Biso   1.000  H
  H264     1.0000 0.55280  0.03940  0.64790  Biso   1.000  H
  O91      1.0000 0.68300  0.97800  0.36920  Biso   1.000  O
  H265     1.0000 0.70310  0.94580  0.39750  Biso   1.000  H
  H266     1.0000 0.69150  0.01760  0.38970  Biso   1.000  H
  O92      1.0000 0.55300  0.99710  0.95540  Biso   1.000  O
  H267     1.0000 0.52130  0.02140  0.98820  Biso   1.000  H
  H268     1.0000 0.51540  0.02070  0.92310  Biso   1.000  H
  O93      1.0000 0.58000  0.96340  0.56380  Biso   1.000  O
  H269     1.0000 0.58110  0.98570  0.59980  Biso   1.000  H
  H270     1.0000 0.66700  0.97990  0.53980  Biso   1.000  H
  O94      1.0000 0.41400  0.87890  0.78040  Biso   1.000  O
  H271     1.0000 0.37400  0.89560  0.81580  Biso   1.000  H
  H272     1.0000 0.48660  0.91020  0.76800  Biso   1.000  H
  H273     1.0000 0.52380  0.01100  0.73600  Biso   1.000  H
  H274     1.0000 0.40540  0.03590  0.77800  Biso   1.000  H
  O95      1.0000 0.45600  0.96950  0.83460  Biso   1.000  O
  H275     1.0000 0.46600  0.95450  0.79590  Biso   1.000  H
  H276     1.0000 0.55280  0.96060  0.85210  Biso   1.000  H
  O96      1.0000 0.31700  0.02200  0.36920  Biso   1.000  O
  H277     1.0000 0.29690  0.05420  0.39750  Biso   1.000  H
  H278     1.0000 0.30850  0.98240  0.38970  Biso   1.000  H
  O97      1.0000 0.44700  0.00290  0.95540  Biso   1.000  O
  H279     1.0000 0.47870  0.97860  0.98820  Biso   1.000  H
  H280     1.0000 0.48460  0.97930  0.92310  Biso   1.000  H
  O98      1.0000 0.42000  0.03660  0.56380  Biso   1.000  O
  H281     1.0000 0.41890  0.01430  0.59980  Biso   1.000  H
  H282     1.0000 0.33300  0.02010  0.53980  Biso   1.000  H
  O99      1.0000 0.58600  0.12110  0.78040  Biso   1.000  O
  H283     1.0000 0.62600  0.10440  0.81580  Biso   1.000  H
  H284     1.0000 0.51340  0.08980  0.76800  Biso   1.000  H
  H285     1.0000 0.47620  0.98900  0.73600  Biso   1.000  H
  H286     1.0000 0.59460  0.96410  0.77800  Biso   1.000  H
  O100     1.0000 0.54400  0.03050  0.83460  Biso   1.000  O
  H287     1.0000 0.53400  0.04550  0.79590  Biso   1.000  H
  H288     1.0000 0.44720  0.03940  0.85210  Biso   1.000  H
  O101     1.0000 0.50000  0.95130  0.25000  Biso   1.000  O
  O102     1.0000 0.50000  0.04870  0.25000  Biso   1.000  O
  O103     1.0000 0.50000  0.04870  0.75000  Biso   1.000  O
  O104     1.0000 0.50000  0.95130  0.75000  Biso   1.000  O
