data_image0
_cell_length_a       14.4201
_cell_length_b       19.6832
_cell_length_c       24.3937
_cell_angle_alpha    90
_cell_angle_beta     95.632
_cell_angle_gamma    90

_symmetry_space_group_name_H-M    "P 1"
_symmetry_int_tables_number       1

loop_
  _symmetry_equiv_pos_as_xyz
  'x, y, z'

loop_
  _atom_site_label
  _atom_site_occupancy
  _atom_site_fract_x
  _atom_site_fract_y
  _atom_site_fract_z
  _atom_site_thermal_displace_type
  _atom_site_B_iso_or_equiv
  _atom_site_type_symbol
  C1       1.0000 0.15840  0.67400  0.20170  Biso   1.000  C
  H1       1.0000 0.16420  0.66100  0.16380  Biso   1.000  H
  H2       1.0000 0.20000  0.64550  0.22540  Biso   1.000  H
  C2       1.0000 0.18680  0.74790  0.20990  Biso   1.000  C
  H3       1.0000 0.25120  0.75300  0.20210  Biso   1.000  H
  H4       1.0000 0.18310  0.76010  0.24810  Biso   1.000  H
  C3       1.0000 0.12620  0.79620  0.17320  Biso   1.000  C
  H5       1.0000 0.06210  0.79190  0.18170  Biso   1.000  H
  H6       1.0000 0.12870  0.78320  0.13500  Biso   1.000  H
  C4       1.0000 0.15650  0.87020  0.18040  Biso   1.000  C
  C5       1.0000 0.23310  0.88700  0.21940  Biso   1.000  C
  H7       1.0000 0.26740  0.85300  0.23840  Biso   1.000  H
  C6       1.0000 0.25530  0.95300  0.22850  Biso   1.000  C
  H8       1.0000 0.30520  0.96270  0.25450  Biso   1.000  H
  C7       1.0000 0.13960  0.99020  0.16770  Biso   1.000  C
  H9       1.0000 0.10570  0.02520  0.14970  Biso   1.000  H
  C8       1.0000 0.11260  0.92270  0.15620  Biso   1.000  C
  H10      1.0000 0.06160  0.91470  0.13060  Biso   1.000  H
  N1       1.0000 0.21080  0.00540  0.20280  Biso   1.000  N
  C9       1.0000 0.14010  0.67170  0.17940  Biso   1.000  C
  H11      1.0000 0.18890  0.63940  0.19100  Biso   1.000  H
  H12      1.0000 0.11890  0.66250  0.14110  Biso   1.000  H
  C10      1.0000 0.17880  0.74370  0.18480  Biso   1.000  C
  H13      1.0000 0.24310  0.74180  0.17640  Biso   1.000  H
  H14      1.0000 0.18000  0.75640  0.22330  Biso   1.000  H
  C11      1.0000 0.13200  0.80240  0.15080  Biso   1.000  C
  H15      1.0000 0.06510  0.79610  0.14670  Biso   1.000  H
  H16      1.0000 0.15370  0.80300  0.11440  Biso   1.000  H
  C12      1.0000 0.20340  0.91010  0.14230  Biso   1.000  C
  H17      1.0000 0.21690  0.89160  0.10890  Biso   1.000  H
  C13      1.0000 0.22750  0.97460  0.15550  Biso   1.000  C
  H18      1.0000 0.25770  0.99960  0.13020  Biso   1.000  H
  C14      1.0000 0.16840  0.96910  0.23710  Biso   1.000  C
  H19      1.0000 0.15550  0.98840  0.27030  Biso   1.000  H
  C15      1.0000 0.14110  0.90140  0.22580  Biso   1.000  C
  H20      1.0000 0.11070  0.87790  0.25190  Biso   1.000  H
  C16      1.0000 0.76880  0.22020  0.08050  Biso   1.000  C
  H21      1.0000 0.80460  0.17930  0.07530  Biso   1.000  H
  H22      1.0000 0.81170  0.25770  0.08810  Biso   1.000  H
  C17      1.0000 0.70180  0.23500  0.02860  Biso   1.000  C
  H23      1.0000 0.66230  0.19580  0.01970  Biso   1.000  H
  H24      1.0000 0.66210  0.27330  0.03540  Biso   1.000  H
  C18      1.0000 0.75890  0.25100  0.98070  Biso   1.000  C
  H25      1.0000 0.79260  0.21120  0.97020  Biso   1.000  H
  H26      1.0000 0.80300  0.28740  0.99030  Biso   1.000  H
  C19      1.0000 0.22430  0.75130  0.40580  Biso   1.000  C
  H27      1.0000 0.20500  0.79250  0.38600  Biso   1.000  H
  H28      1.0000 0.16910  0.72440  0.41000  Biso   1.000  H
  C20      1.0000 0.27210  0.76980  0.46280  Biso   1.000  C
  H29      1.0000 0.32040  0.80130  0.45440  Biso   1.000  H
  H30      1.0000 0.22590  0.79740  0.47870  Biso   1.000  H
  C21      1.0000 0.31690  0.73130  0.51130  Biso   1.000  C
  H31      1.0000 0.38100  0.72110  0.50550  Biso   1.000  H
  H32      1.0000 0.28440  0.68860  0.51470  Biso   1.000  H
  C22      1.0000 0.34620  0.14990  0.57880  Biso   1.000  C
  H33      1.0000 0.29660  0.12280  0.59080  Biso   1.000  H
  H34      1.0000 0.32060  0.18480  0.55430  Biso   1.000  H
  H35      1.0000 0.38050  0.17040  0.61030  Biso   1.000  H
  C23      1.0000 0.44580  0.04780  0.58990  Biso   1.000  C
  H36      1.0000 0.48070  0.06780  0.62140  Biso   1.000  H
  H37      1.0000 0.48480  0.01650  0.57250  Biso   1.000  H
  H38      1.0000 0.39290  0.02410  0.60140  Biso   1.000  H
  C24      1.0000 0.49420  0.14530  0.53500  Biso   1.000  C
  H39      1.0000 0.53050  0.15830  0.56850  Biso   1.000  H
  H40      1.0000 0.47300  0.18520  0.51500  Biso   1.000  H
  H41      1.0000 0.53190  0.11860  0.51290  Biso   1.000  H
  C25      1.0000 0.61640  0.57820  0.89830  Biso   1.000  C
  H42      1.0000 0.61900  0.52950  0.89950  Biso   1.000  H
  H43      1.0000 0.67670  0.59590  0.89260  Biso   1.000  H
  H44      1.0000 0.57180  0.59240  0.86870  Biso   1.000  H
  C26      1.0000 0.48230  0.58840  0.95360  Biso   1.000  C
  H45      1.0000 0.44620  0.61370  0.92540  Biso   1.000  H
  H46      1.0000 0.46390  0.60090  0.98900  Biso   1.000  H
  H47      1.0000 0.47170  0.54070  0.94760  Biso   1.000  H
  C27      1.0000 0.59560  0.68190  0.95350  Biso   1.000  C
  H48      1.0000 0.65930  0.69470  0.96340  Biso   1.000  H
  H49      1.0000 0.55750  0.69930  0.98040  Biso   1.000  H
  H50      1.0000 0.57490  0.70040  0.91800  Biso   1.000  H
  Co1      1.0000 0.49573  0.14072  0.27004  Biso   1.000  Co
  Co2      1.0000 0.25169  0.10819  0.22647  Biso   1.000  Co
  O1       1.0000 0.43410  0.23279  0.25781  Biso   1.000  O
  O2       1.0000 0.28210  0.20820  0.24375  Biso   1.000  O
  O3       1.0000 0.52390  0.47740  0.27130  Biso   1.000  O
  O4       1.0000 0.42970  0.55027  0.22445  Biso   1.000  O
  O5       1.0000 0.12670  0.91660  0.42211  Biso   1.000  O
  O6       1.0000 0.13590  0.93630  0.51160  Biso   1.000  O
  H51      1.0000 0.10720  0.96920  0.52170  Biso   1.000  H
  O7       1.0000 0.28550  0.06910  0.30322  Biso   1.000  O
  O8       1.0000 0.42420  0.11030  0.33622  Biso   1.000  O
  O9       1.0000 0.39480  0.09349  0.20874  Biso   1.000  O
  H52      1.0000 0.38690  0.10430  0.17580  Biso   1.000  H
  H53      1.0000 0.41390  0.05410  0.21320  Biso   1.000  H
  N2       1.0000 0.88610  0.63030  0.25000  Biso   1.000  N
  N3       1.0000 0.58630  0.17140  0.20570  Biso   1.000  N
  N4       1.0000 0.58680  0.31660  0.83760  Biso   1.000  N
  C28      1.0000 0.34940  0.24860  0.24670  Biso   1.000  C
  C29      1.0000 0.32740  0.32240  0.23710  Biso   1.000  C
  C30      1.0000 0.23610  0.34190  0.22140  Biso   1.000  C
  H54      1.0000 0.19020  0.30870  0.21570  Biso   1.000  H
  C31      1.0000 0.21180  0.40980  0.21390  Biso   1.000  C
  C32      1.0000 0.28250  0.45730  0.22060  Biso   1.000  C
  H55      1.0000 0.26800  0.50290  0.21460  Biso   1.000  H
  C33      1.0000 0.37440  0.43930  0.23610  Biso   1.000  C
  C34      1.0000 0.39740  0.37140  0.24520  Biso   1.000  C
  H56      1.0000 0.45850  0.35880  0.25650  Biso   1.000  H
  C35      1.0000 0.44870  0.49250  0.24440  Biso   1.000  C
  C36      1.0000 0.11140  0.43380  0.20030  Biso   1.000  C
  C37      1.0000 0.10250  0.47120  0.14520  Biso   1.000  C
  H57      1.0000 0.14270  0.51020  0.14770  Biso   1.000  H
  H58      1.0000 0.03920  0.48550  0.13650  Biso   1.000  H
  H59      1.0000 0.12010  0.44130  0.11690  Biso   1.000  H
  C38      1.0000 0.08510  0.48080  0.24580  Biso   1.000  C
  H60      1.0000 0.09040  0.45670  0.28020  Biso   1.000  H
  H61      1.0000 0.02210  0.49610  0.23740  Biso   1.000  H
  H62      1.0000 0.12630  0.51920  0.24850  Biso   1.000  H
  C39      1.0000 0.04200  0.37240  0.19690  Biso   1.000  C
  H63      1.0000 0.05850  0.34100  0.16940  Biso   1.000  H
  H64      1.0000 0.97980  0.38870  0.18730  Biso   1.000  H
  H65      1.0000 0.04520  0.35000  0.23200  Biso   1.000  H
  C40      1.0000 0.34830  0.08170  0.34100  Biso   1.000  C
  C41      1.0000 0.32770  0.06090  0.39830  Biso   1.000  C
  C42      1.0000 0.25660  0.01470  0.40530  Biso   1.000  C
  H66      1.0000 0.22330  0.99500  0.37480  Biso   1.000  H
  C43      1.0000 0.23560  0.99810  0.45800  Biso   1.000  C
  C44      1.0000 0.28560  0.02770  0.50360  Biso   1.000  C
  H67      1.0000 0.27000  0.01700  0.53870  Biso   1.000  H
  C45      1.0000 0.35790  0.07290  0.49800  Biso   1.000  C
  C46      1.0000 0.37790  0.08810  0.44450  Biso   1.000  C
  H68      1.0000 0.42690  0.11750  0.43970  Biso   1.000  H
  C47      1.0000 0.16140  0.94770  0.46460  Biso   1.000  C
  C48      1.0000 0.41210  0.10430  0.54850  Biso   1.000  C
  C49      1.0000 0.90640  0.62340  0.19840  Biso   1.000  C
  H69      1.0000 0.86040  0.60610  0.17280  Biso   1.000  H
  C50      1.0000 0.99040  0.64020  0.18030  Biso   1.000  C
  H70      1.0000 0.99890  0.63550  0.14320  Biso   1.000  H
  C51      1.0000 0.05890  0.66280  0.21470  Biso   1.000  C
  C52      1.0000 0.04040  0.67110  0.26930  Biso   1.000  C
  H71      1.0000 0.08670  0.68700  0.29540  Biso   1.000  H
  C53      1.0000 0.95300  0.65580  0.28460  Biso   1.000  C
  H72      1.0000 0.94090  0.66390  0.32080  Biso   1.000  H
  C54      1.0000 0.60100  0.23520  0.19320  Biso   1.000  C
  H73      1.0000 0.56920  0.26870  0.21070  Biso   1.000  H
  C55      1.0000 0.66130  0.25510  0.15550  Biso   1.000  C
  H74      1.0000 0.66880  0.30130  0.14930  Biso   1.000  H
  C56      1.0000 0.70930  0.21090  0.12750  Biso   1.000  C
  C57      1.0000 0.69430  0.14750  0.14060  Biso   1.000  C
  H75      1.0000 0.72630  0.11350  0.12380  Biso   1.000  H
  C58      1.0000 0.63260  0.12830  0.17870  Biso   1.000  C
  H76      1.0000 0.62420  0.08220  0.18500  Biso   1.000  H
  C59      1.0000 0.68520  0.27290  0.93430  Biso   1.000  C
  C60      1.0000 0.62570  0.22820  0.90200  Biso   1.000  C
  H77      1.0000 0.61830  0.18330  0.91270  Biso   1.000  H
  C61      1.0000 0.57930  0.25280  0.85460  Biso   1.000  C
  H78      1.0000 0.54050  0.22350  0.83310  Biso   1.000  H
  C62      1.0000 0.63980  0.35770  0.87070  Biso   1.000  C
  H79      1.0000 0.64500  0.40280  0.86020  Biso   1.000  H
  C63      1.0000 0.68660  0.33750  0.91860  Biso   1.000  C
  H80      1.0000 0.72010  0.36920  0.94080  Biso   1.000  H
  C64      1.0000 0.84160  0.17400  0.29830  Biso   1.000  C
  H81      1.0000 0.83580  0.16100  0.33620  Biso   1.000  H
  H82      1.0000 0.80000  0.14550  0.27460  Biso   1.000  H
  C65      1.0000 0.81320  0.24790  0.29010  Biso   1.000  C
  H83      1.0000 0.74880  0.25300  0.29790  Biso   1.000  H
  H84      1.0000 0.81690  0.26010  0.25190  Biso   1.000  H
  C66      1.0000 0.87380  0.29620  0.32680  Biso   1.000  C
  H85      1.0000 0.93790  0.29190  0.31830  Biso   1.000  H
  H86      1.0000 0.87130  0.28320  0.36500  Biso   1.000  H
  C67      1.0000 0.84350  0.37020  0.31960  Biso   1.000  C
  C68      1.0000 0.76690  0.38700  0.28060  Biso   1.000  C
  H87      1.0000 0.73260  0.35300  0.26160  Biso   1.000  H
  C69      1.0000 0.74470  0.45300  0.27150  Biso   1.000  C
  H88      1.0000 0.69480  0.46270  0.24550  Biso   1.000  H
  C70      1.0000 0.86040  0.49020  0.33230  Biso   1.000  C
  H89      1.0000 0.89430  0.52520  0.35030  Biso   1.000  H
  C71      1.0000 0.88740  0.42270  0.34380  Biso   1.000  C
  H90      1.0000 0.93840  0.41470  0.36940  Biso   1.000  H
  N5       1.0000 0.78920  0.50540  0.29720  Biso   1.000  N
  C72      1.0000 0.85990  0.17170  0.32060  Biso   1.000  C
  H91      1.0000 0.81110  0.13940  0.30900  Biso   1.000  H
  H92      1.0000 0.88110  0.16250  0.35890  Biso   1.000  H
  C73      1.0000 0.82120  0.24370  0.31520  Biso   1.000  C
  H93      1.0000 0.75690  0.24180  0.32360  Biso   1.000  H
  H94      1.0000 0.82000  0.25640  0.27670  Biso   1.000  H
  C74      1.0000 0.86800  0.30240  0.34920  Biso   1.000  C
  H95      1.0000 0.93490  0.29610  0.35330  Biso   1.000  H
  H96      1.0000 0.84630  0.30300  0.38560  Biso   1.000  H
  C75      1.0000 0.79660  0.41010  0.35770  Biso   1.000  C
  H97      1.0000 0.78310  0.39160  0.39110  Biso   1.000  H
  C76      1.0000 0.77250  0.47460  0.34450  Biso   1.000  C
  H98      1.0000 0.74230  0.49960  0.36980  Biso   1.000  H
  C77      1.0000 0.83160  0.46910  0.26290  Biso   1.000  C
  H99      1.0000 0.84450  0.48840  0.22970  Biso   1.000  H
  C78      1.0000 0.85890  0.40140  0.27420  Biso   1.000  C
  H100     1.0000 0.88930  0.37790  0.24810  Biso   1.000  H
  C79      1.0000 0.23120  0.72020  0.41950  Biso   1.000  C
  H101     1.0000 0.19540  0.67930  0.42470  Biso   1.000  H
  H102     1.0000 0.18830  0.75770  0.41190  Biso   1.000  H
  C80      1.0000 0.29820  0.73500  0.47140  Biso   1.000  C
  H103     1.0000 0.33770  0.69580  0.48030  Biso   1.000  H
  H104     1.0000 0.33790  0.77330  0.46460  Biso   1.000  H
  C81      1.0000 0.24110  0.75100  0.51930  Biso   1.000  C
  H105     1.0000 0.20740  0.71120  0.52980  Biso   1.000  H
  H106     1.0000 0.19700  0.78740  0.50970  Biso   1.000  H
  C82      1.0000 0.77570  0.25130  0.09420  Biso   1.000  C
  H107     1.0000 0.79500  0.29250  0.11400  Biso   1.000  H
  H108     1.0000 0.83090  0.22440  0.09000  Biso   1.000  H
  C83      1.0000 0.72790  0.26980  0.03720  Biso   1.000  C
  H109     1.0000 0.67960  0.30130  0.04560  Biso   1.000  H
  H110     1.0000 0.77410  0.29740  0.02130  Biso   1.000  H
  C84      1.0000 0.68310  0.23130  0.98870  Biso   1.000  C
  H111     1.0000 0.61900  0.22110  0.99450  Biso   1.000  H
  H112     1.0000 0.71560  0.18860  0.98530  Biso   1.000  H
  C85      1.0000 0.65380  0.64990  0.92120  Biso   1.000  C
  H113     1.0000 0.70340  0.62280  0.90920  Biso   1.000  H
  H114     1.0000 0.67940  0.68480  0.94570  Biso   1.000  H
  H115     1.0000 0.61950  0.67040  0.88970  Biso   1.000  H
  C86      1.0000 0.55420  0.54780  0.91010  Biso   1.000  C
  H116     1.0000 0.51930  0.56780  0.87860  Biso   1.000  H
  H117     1.0000 0.51520  0.51650  0.92750  Biso   1.000  H
  H118     1.0000 0.60710  0.52410  0.89860  Biso   1.000  H
  C87      1.0000 0.50580  0.64530  0.96500  Biso   1.000  C
  H119     1.0000 0.46950  0.65830  0.93150  Biso   1.000  H
  H120     1.0000 0.52700  0.68520  0.98500  Biso   1.000  H
  H121     1.0000 0.46810  0.61860  0.98710  Biso   1.000  H
  C88      1.0000 0.38360  0.07820  0.60170  Biso   1.000  C
  H122     1.0000 0.38100  0.02950  0.60050  Biso   1.000  H
  H123     1.0000 0.32330  0.09590  0.60740  Biso   1.000  H
  H124     1.0000 0.42820  0.09240  0.63130  Biso   1.000  H
  C89      1.0000 0.51770  0.08840  0.54640  Biso   1.000  C
  H125     1.0000 0.55380  0.11370  0.57460  Biso   1.000  H
  H126     1.0000 0.53610  0.10090  0.51100  Biso   1.000  H
  H127     1.0000 0.52830  0.04070  0.55240  Biso   1.000  H
  C90      1.0000 0.40440  0.18190  0.54650  Biso   1.000  C
  H128     1.0000 0.34070  0.19470  0.53660  Biso   1.000  H
  H129     1.0000 0.44250  0.19930  0.51960  Biso   1.000  H
  H130     1.0000 0.42510  0.20040  0.58200  Biso   1.000  H
  Co3      1.0000 0.50427  0.64072  0.22996  Biso   1.000  Co
  Co4      1.0000 0.74831  0.60819  0.27353  Biso   1.000  Co
  O10      1.0000 0.56590  0.73279  0.24219  Biso   1.000  O
  O11      1.0000 0.71790  0.70820  0.25625  Biso   1.000  O
  O12      1.0000 0.47610  0.97740  0.22870  Biso   1.000  O
  O13      1.0000 0.57030  0.05027  0.27555  Biso   1.000  O
  O14      1.0000 0.87330  0.41660  0.07789  Biso   1.000  O
  O15      1.0000 0.86410  0.43630  0.98840  Biso   1.000  O
  H131     1.0000 0.89280  0.46920  0.97830  Biso   1.000  H
  O16      1.0000 0.71450  0.56910  0.19678  Biso   1.000  O
  O17      1.0000 0.57580  0.61030  0.16378  Biso   1.000  O
  O18      1.0000 0.60520  0.59349  0.29126  Biso   1.000  O
  H132     1.0000 0.61310  0.60430  0.32420  Biso   1.000  H
  H133     1.0000 0.58610  0.55410  0.28680  Biso   1.000  H
  N6       1.0000 0.11390  0.13030  0.25000  Biso   1.000  N
  N7       1.0000 0.41370  0.67140  0.29430  Biso   1.000  N
  N8       1.0000 0.41320  0.81660  0.66240  Biso   1.000  N
  C91      1.0000 0.65060  0.74860  0.25330  Biso   1.000  C
  C92      1.0000 0.67260  0.82240  0.26290  Biso   1.000  C
  C93      1.0000 0.76390  0.84190  0.27860  Biso   1.000  C
  H134     1.0000 0.80980  0.80870  0.28430  Biso   1.000  H
  C94      1.0000 0.78820  0.90980  0.28610  Biso   1.000  C
  C95      1.0000 0.71750  0.95730  0.27940  Biso   1.000  C
  H135     1.0000 0.73200  0.00290  0.28540  Biso   1.000  H
  C96      1.0000 0.62560  0.93930  0.26390  Biso   1.000  C
  C97      1.0000 0.60260  0.87140  0.25480  Biso   1.000  C
  H136     1.0000 0.54150  0.85880  0.24350  Biso   1.000  H
  C98      1.0000 0.55130  0.99250  0.25560  Biso   1.000  C
  C99      1.0000 0.88860  0.93380  0.29970  Biso   1.000  C
  C100     1.0000 0.89750  0.97120  0.35480  Biso   1.000  C
  H137     1.0000 0.85730  0.01020  0.35230  Biso   1.000  H
  H138     1.0000 0.96080  0.98550  0.36350  Biso   1.000  H
  H139     1.0000 0.87990  0.94130  0.38310  Biso   1.000  H
  C101     1.0000 0.91490  0.98080  0.25420  Biso   1.000  C
  H140     1.0000 0.90960  0.95670  0.21980  Biso   1.000  H
  H141     1.0000 0.97790  0.99610  0.26260  Biso   1.000  H
  H142     1.0000 0.87370  0.01920  0.25150  Biso   1.000  H
  C102     1.0000 0.95800  0.87240  0.30310  Biso   1.000  C
  H143     1.0000 0.94150  0.84100  0.33060  Biso   1.000  H
  H144     1.0000 0.02020  0.88870  0.31270  Biso   1.000  H
  H145     1.0000 0.95480  0.85000  0.26800  Biso   1.000  H
  C103     1.0000 0.65170  0.58170  0.15900  Biso   1.000  C
  C104     1.0000 0.67230  0.56090  0.10170  Biso   1.000  C
  C105     1.0000 0.74340  0.51470  0.09470  Biso   1.000  C
  H146     1.0000 0.77670  0.49500  0.12520  Biso   1.000  H
  C106     1.0000 0.76440  0.49810  0.04200  Biso   1.000  C
  C107     1.0000 0.71440  0.52770  0.99640  Biso   1.000  C
  H147     1.0000 0.73000  0.51700  0.96130  Biso   1.000  H
  C108     1.0000 0.64210  0.57290  0.00200  Biso   1.000  C
  C109     1.0000 0.62210  0.58810  0.05550  Biso   1.000  C
  H148     1.0000 0.57310  0.61750  0.06030  Biso   1.000  H
  C110     1.0000 0.83860  0.44770  0.03540  Biso   1.000  C
  C111     1.0000 0.58790  0.60430  0.95150  Biso   1.000  C
  C112     1.0000 0.09360  0.12340  0.30160  Biso   1.000  C
  H149     1.0000 0.13960  0.10610  0.32720  Biso   1.000  H
  C113     1.0000 0.00960  0.14020  0.31970  Biso   1.000  C
  H150     1.0000 0.00110  0.13550  0.35680  Biso   1.000  H
  C114     1.0000 0.94110  0.16280  0.28530  Biso   1.000  C
  C115     1.0000 0.95960  0.17110  0.23070  Biso   1.000  C
  H151     1.0000 0.91330  0.18700  0.20460  Biso   1.000  H
  C116     1.0000 0.04700  0.15580  0.21540  Biso   1.000  C
  H152     1.0000 0.05910  0.16390  0.17920  Biso   1.000  H
  C117     1.0000 0.39900  0.73520  0.30680  Biso   1.000  C
  H153     1.0000 0.43080  0.76870  0.28930  Biso   1.000  H
  C118     1.0000 0.33870  0.75510  0.34450  Biso   1.000  C
  H154     1.0000 0.33120  0.80130  0.35070  Biso   1.000  H
  C119     1.0000 0.29070  0.71090  0.37250  Biso   1.000  C
  C120     1.0000 0.30570  0.64750  0.35940  Biso   1.000  C
  H155     1.0000 0.27370  0.61350  0.37620  Biso   1.000  H
  C121     1.0000 0.36740  0.62830  0.32130  Biso   1.000  C
  H156     1.0000 0.37580  0.58220  0.31500  Biso   1.000  H
  C122     1.0000 0.31480  0.77290  0.56570  Biso   1.000  C
  C123     1.0000 0.37430  0.72820  0.59800  Biso   1.000  C
  H157     1.0000 0.38170  0.68330  0.58730  Biso   1.000  H
  C124     1.0000 0.42070  0.75280  0.64540  Biso   1.000  C
  H158     1.0000 0.45950  0.72350  0.66690  Biso   1.000  H
  C125     1.0000 0.36020  0.85770  0.62930  Biso   1.000  C
  H159     1.0000 0.35500  0.90280  0.63980  Biso   1.000  H
  C126     1.0000 0.31340  0.83750  0.58140  Biso   1.000  C
  H160     1.0000 0.27990  0.86920  0.55920  Biso   1.000  H
  C127     1.0000 0.84160  0.32600  0.79830  Biso   1.000  C
  H161     1.0000 0.83580  0.33900  0.83620  Biso   1.000  H
  H162     1.0000 0.80000  0.35450  0.77460  Biso   1.000  H
  C128     1.0000 0.81320  0.25210  0.79010  Biso   1.000  C
  H163     1.0000 0.74880  0.24700  0.79790  Biso   1.000  H
  H164     1.0000 0.81690  0.23990  0.75190  Biso   1.000  H
  C129     1.0000 0.87380  0.20380  0.82680  Biso   1.000  C
  H165     1.0000 0.93790  0.20810  0.81830  Biso   1.000  H
  H166     1.0000 0.87130  0.21680  0.86500  Biso   1.000  H
  C130     1.0000 0.84350  0.12980  0.81960  Biso   1.000  C
  C131     1.0000 0.76690  0.11300  0.78060  Biso   1.000  C
  H167     1.0000 0.73260  0.14700  0.76160  Biso   1.000  H
  C132     1.0000 0.74470  0.04700  0.77150  Biso   1.000  C
  H168     1.0000 0.69480  0.03730  0.74550  Biso   1.000  H
  C133     1.0000 0.86040  0.00980  0.83230  Biso   1.000  C
  H169     1.0000 0.89430  0.97480  0.85030  Biso   1.000  H
  C134     1.0000 0.88740  0.07730  0.84380  Biso   1.000  C
  H170     1.0000 0.93840  0.08530  0.86940  Biso   1.000  H
  N9       1.0000 0.78920  0.99460  0.79720  Biso   1.000  N
  C135     1.0000 0.85990  0.32830  0.82060  Biso   1.000  C
  H171     1.0000 0.81110  0.36060  0.80900  Biso   1.000  H
  H172     1.0000 0.88110  0.33750  0.85890  Biso   1.000  H
  C136     1.0000 0.82120  0.25630  0.81520  Biso   1.000  C
  H173     1.0000 0.75690  0.25820  0.82360  Biso   1.000  H
  H174     1.0000 0.82000  0.24360  0.77670  Biso   1.000  H
  C137     1.0000 0.86800  0.19760  0.84920  Biso   1.000  C
  H175     1.0000 0.93490  0.20390  0.85330  Biso   1.000  H
  H176     1.0000 0.84630  0.19700  0.88560  Biso   1.000  H
  C138     1.0000 0.79660  0.08990  0.85770  Biso   1.000  C
  H177     1.0000 0.78310  0.10840  0.89110  Biso   1.000  H
  C139     1.0000 0.77250  0.02540  0.84450  Biso   1.000  C
  H178     1.0000 0.74230  0.00040  0.86980  Biso   1.000  H
  C140     1.0000 0.83160  0.03090  0.76290  Biso   1.000  C
  H179     1.0000 0.84450  0.01160  0.72970  Biso   1.000  H
  C141     1.0000 0.85890  0.09860  0.77420  Biso   1.000  C
  H180     1.0000 0.88930  0.12210  0.74810  Biso   1.000  H
  C142     1.0000 0.23120  0.77980  0.91950  Biso   1.000  C
  H181     1.0000 0.19540  0.82070  0.92470  Biso   1.000  H
  H182     1.0000 0.18830  0.74230  0.91190  Biso   1.000  H
  C143     1.0000 0.29820  0.76500  0.97140  Biso   1.000  C
  H183     1.0000 0.33770  0.80420  0.98030  Biso   1.000  H
  H184     1.0000 0.33790  0.72670  0.96460  Biso   1.000  H
  C144     1.0000 0.24110  0.74900  0.01930  Biso   1.000  C
  H185     1.0000 0.20740  0.78880  0.02980  Biso   1.000  H
  H186     1.0000 0.19700  0.71260  0.00970  Biso   1.000  H
  C145     1.0000 0.77570  0.24870  0.59420  Biso   1.000  C
  H187     1.0000 0.79500  0.20750  0.61400  Biso   1.000  H
  H188     1.0000 0.83090  0.27560  0.59000  Biso   1.000  H
  C146     1.0000 0.72790  0.23020  0.53720  Biso   1.000  C
  H189     1.0000 0.67960  0.19870  0.54560  Biso   1.000  H
  H190     1.0000 0.77410  0.20260  0.52130  Biso   1.000  H
  C147     1.0000 0.68310  0.26870  0.48870  Biso   1.000  C
  H191     1.0000 0.61900  0.27890  0.49450  Biso   1.000  H
  H192     1.0000 0.71560  0.31140  0.48530  Biso   1.000  H
  C148     1.0000 0.65380  0.85010  0.42120  Biso   1.000  C
  H193     1.0000 0.70340  0.87720  0.40920  Biso   1.000  H
  H194     1.0000 0.67940  0.81520  0.44570  Biso   1.000  H
  H195     1.0000 0.61950  0.82960  0.38970  Biso   1.000  H
  C149     1.0000 0.55420  0.95220  0.41010  Biso   1.000  C
  H196     1.0000 0.51930  0.93220  0.37860  Biso   1.000  H
  H197     1.0000 0.51520  0.98350  0.42750  Biso   1.000  H
  H198     1.0000 0.60710  0.97590  0.39860  Biso   1.000  H
  C150     1.0000 0.50580  0.85470  0.46500  Biso   1.000  C
  H199     1.0000 0.46950  0.84170  0.43150  Biso   1.000  H
  H200     1.0000 0.52700  0.81480  0.48500  Biso   1.000  H
  H201     1.0000 0.46810  0.88140  0.48710  Biso   1.000  H
  C151     1.0000 0.38360  0.42180  0.10170  Biso   1.000  C
  H202     1.0000 0.38100  0.47050  0.10050  Biso   1.000  H
  H203     1.0000 0.32330  0.40410  0.10740  Biso   1.000  H
  H204     1.0000 0.42820  0.40760  0.13130  Biso   1.000  H
  C152     1.0000 0.51770  0.41160  0.04640  Biso   1.000  C
  H205     1.0000 0.55380  0.38630  0.07460  Biso   1.000  H
  H206     1.0000 0.53610  0.39910  0.01100  Biso   1.000  H
  H207     1.0000 0.52830  0.45930  0.05240  Biso   1.000  H
  C153     1.0000 0.40440  0.31810  0.04650  Biso   1.000  C
  H208     1.0000 0.34070  0.30530  0.03660  Biso   1.000  H
  H209     1.0000 0.44250  0.30070  0.01960  Biso   1.000  H
  H210     1.0000 0.42510  0.29960  0.08200  Biso   1.000  H
  Co5      1.0000 0.50427  0.85928  0.72996  Biso   1.000  Co
  Co6      1.0000 0.74831  0.89181  0.77353  Biso   1.000  Co
  O19      1.0000 0.56590  0.76721  0.74219  Biso   1.000  O
  O20      1.0000 0.71790  0.79180  0.75625  Biso   1.000  O
  O21      1.0000 0.47610  0.52260  0.72870  Biso   1.000  O
  O22      1.0000 0.57030  0.44973  0.77555  Biso   1.000  O
  O23      1.0000 0.87330  0.08340  0.57789  Biso   1.000  O
  O24      1.0000 0.86410  0.06370  0.48840  Biso   1.000  O
  H211     1.0000 0.89280  0.03080  0.47830  Biso   1.000  H
  O25      1.0000 0.71450  0.93090  0.69678  Biso   1.000  O
  O26      1.0000 0.57580  0.88970  0.66378  Biso   1.000  O
  O27      1.0000 0.60520  0.90651  0.79126  Biso   1.000  O
  H212     1.0000 0.61310  0.89570  0.82420  Biso   1.000  H
  H213     1.0000 0.58610  0.94590  0.78680  Biso   1.000  H
  N10      1.0000 0.11390  0.36970  0.75000  Biso   1.000  N
  N11      1.0000 0.41370  0.82860  0.79430  Biso   1.000  N
  N12      1.0000 0.41320  0.68340  0.16240  Biso   1.000  N
  C154     1.0000 0.65060  0.75140  0.75330  Biso   1.000  C
  C155     1.0000 0.67260  0.67760  0.76290  Biso   1.000  C
  C156     1.0000 0.76390  0.65810  0.77860  Biso   1.000  C
  H214     1.0000 0.80980  0.69130  0.78430  Biso   1.000  H
  C157     1.0000 0.78820  0.59020  0.78610  Biso   1.000  C
  C158     1.0000 0.71750  0.54270  0.77940  Biso   1.000  C
  H215     1.0000 0.73200  0.49710  0.78540  Biso   1.000  H
  C159     1.0000 0.62560  0.56070  0.76390  Biso   1.000  C
  C160     1.0000 0.60260  0.62860  0.75480  Biso   1.000  C
  H216     1.0000 0.54150  0.64120  0.74350  Biso   1.000  H
  C161     1.0000 0.55130  0.50750  0.75560  Biso   1.000  C
  C162     1.0000 0.88860  0.56620  0.79970  Biso   1.000  C
  C163     1.0000 0.89750  0.52880  0.85480  Biso   1.000  C
  H217     1.0000 0.85730  0.48980  0.85230  Biso   1.000  H
  H218     1.0000 0.96080  0.51450  0.86350  Biso   1.000  H
  H219     1.0000 0.87990  0.55870  0.88310  Biso   1.000  H
  C164     1.0000 0.91490  0.51920  0.75420  Biso   1.000  C
  H220     1.0000 0.90960  0.54330  0.71980  Biso   1.000  H
  H221     1.0000 0.97790  0.50390  0.76260  Biso   1.000  H
  H222     1.0000 0.87370  0.48080  0.75150  Biso   1.000  H
  C165     1.0000 0.95800  0.62760  0.80310  Biso   1.000  C
  H223     1.0000 0.94150  0.65900  0.83060  Biso   1.000  H
  H224     1.0000 0.02020  0.61130  0.81270  Biso   1.000  H
  H225     1.0000 0.95480  0.65000  0.76800  Biso   1.000  H
  C166     1.0000 0.65170  0.91830  0.65900  Biso   1.000  C
  C167     1.0000 0.67230  0.93910  0.60170  Biso   1.000  C
  C168     1.0000 0.74340  0.98530  0.59470  Biso   1.000  C
  H226     1.0000 0.77670  0.00500  0.62520  Biso   1.000  H
  C169     1.0000 0.76440  0.00190  0.54200  Biso   1.000  C
  C170     1.0000 0.71440  0.97230  0.49640  Biso   1.000  C
  H227     1.0000 0.73000  0.98300  0.46130  Biso   1.000  H
  C171     1.0000 0.64210  0.92710  0.50200  Biso   1.000  C
  C172     1.0000 0.62210  0.91190  0.55550  Biso   1.000  C
  H228     1.0000 0.57310  0.88250  0.56030  Biso   1.000  H
  C173     1.0000 0.83860  0.05230  0.53540  Biso   1.000  C
  C174     1.0000 0.58790  0.89570  0.45150  Biso   1.000  C
  C175     1.0000 0.09360  0.37660  0.80160  Biso   1.000  C
  H229     1.0000 0.13960  0.39390  0.82720  Biso   1.000  H
  C176     1.0000 0.00960  0.35980  0.81970  Biso   1.000  C
  H230     1.0000 0.00110  0.36450  0.85680  Biso   1.000  H
  C177     1.0000 0.94110  0.33720  0.78530  Biso   1.000  C
  C178     1.0000 0.95960  0.32890  0.73070  Biso   1.000  C
  H231     1.0000 0.91330  0.31300  0.70460  Biso   1.000  H
  C179     1.0000 0.04700  0.34420  0.71540  Biso   1.000  C
  H232     1.0000 0.05910  0.33610  0.67920  Biso   1.000  H
  C180     1.0000 0.39900  0.76480  0.80680  Biso   1.000  C
  H233     1.0000 0.43080  0.73130  0.78930  Biso   1.000  H
  C181     1.0000 0.33870  0.74490  0.84450  Biso   1.000  C
  H234     1.0000 0.33120  0.69870  0.85070  Biso   1.000  H
  C182     1.0000 0.29070  0.78910  0.87250  Biso   1.000  C
  C183     1.0000 0.30570  0.85250  0.85940  Biso   1.000  C
  H235     1.0000 0.27370  0.88650  0.87620  Biso   1.000  H
  C184     1.0000 0.36740  0.87170  0.82130  Biso   1.000  C
  H236     1.0000 0.37580  0.91780  0.81500  Biso   1.000  H
  C185     1.0000 0.31480  0.72710  0.06570  Biso   1.000  C
  C186     1.0000 0.37430  0.77180  0.09800  Biso   1.000  C
  H237     1.0000 0.38170  0.81670  0.08730  Biso   1.000  H
  C187     1.0000 0.42070  0.74720  0.14540  Biso   1.000  C
  H238     1.0000 0.45950  0.77650  0.16690  Biso   1.000  H
  C188     1.0000 0.36020  0.64230  0.12930  Biso   1.000  C
  H239     1.0000 0.35500  0.59720  0.13980  Biso   1.000  H
  C189     1.0000 0.31340  0.66250  0.08140  Biso   1.000  C
  H240     1.0000 0.27990  0.63080  0.05920  Biso   1.000  H
  C190     1.0000 0.15840  0.82600  0.70170  Biso   1.000  C
  H241     1.0000 0.16420  0.83900  0.66380  Biso   1.000  H
  H242     1.0000 0.20000  0.85450  0.72540  Biso   1.000  H
  C191     1.0000 0.18680  0.75210  0.70990  Biso   1.000  C
  H243     1.0000 0.25120  0.74700  0.70210  Biso   1.000  H
  H244     1.0000 0.18310  0.73990  0.74810  Biso   1.000  H
  C192     1.0000 0.12620  0.70380  0.67320  Biso   1.000  C
  H245     1.0000 0.06210  0.70810  0.68170  Biso   1.000  H
  H246     1.0000 0.12870  0.71680  0.63500  Biso   1.000  H
  C193     1.0000 0.15650  0.62980  0.68040  Biso   1.000  C
  C194     1.0000 0.23310  0.61300  0.71940  Biso   1.000  C
  H247     1.0000 0.26740  0.64700  0.73840  Biso   1.000  H
  C195     1.0000 0.25530  0.54700  0.72850  Biso   1.000  C
  H248     1.0000 0.30520  0.53730  0.75450  Biso   1.000  H
  C196     1.0000 0.13960  0.50980  0.66770  Biso   1.000  C
  H249     1.0000 0.10570  0.47480  0.64970  Biso   1.000  H
  C197     1.0000 0.11260  0.57730  0.65620  Biso   1.000  C
  H250     1.0000 0.06160  0.58530  0.63060  Biso   1.000  H
  N13      1.0000 0.21080  0.49460  0.70280  Biso   1.000  N
  C198     1.0000 0.14010  0.82830  0.67940  Biso   1.000  C
  H251     1.0000 0.18890  0.86060  0.69100  Biso   1.000  H
  H252     1.0000 0.11890  0.83750  0.64110  Biso   1.000  H
  C199     1.0000 0.17880  0.75630  0.68480  Biso   1.000  C
  H253     1.0000 0.24310  0.75820  0.67640  Biso   1.000  H
  H254     1.0000 0.18000  0.74360  0.72330  Biso   1.000  H
  C200     1.0000 0.13200  0.69760  0.65080  Biso   1.000  C
  H255     1.0000 0.06510  0.70390  0.64670  Biso   1.000  H
  H256     1.0000 0.15370  0.69700  0.61440  Biso   1.000  H
  C201     1.0000 0.20340  0.58990  0.64230  Biso   1.000  C
  H257     1.0000 0.21690  0.60840  0.60890  Biso   1.000  H
  C202     1.0000 0.22750  0.52540  0.65550  Biso   1.000  C
  H258     1.0000 0.25770  0.50040  0.63020  Biso   1.000  H
  C203     1.0000 0.16840  0.53090  0.73710  Biso   1.000  C
  H259     1.0000 0.15550  0.51160  0.77030  Biso   1.000  H
  C204     1.0000 0.14110  0.59860  0.72580  Biso   1.000  C
  H260     1.0000 0.11070  0.62210  0.75190  Biso   1.000  H
  C205     1.0000 0.76880  0.27980  0.58050  Biso   1.000  C
  H261     1.0000 0.80460  0.32070  0.57530  Biso   1.000  H
  H262     1.0000 0.81170  0.24230  0.58810  Biso   1.000  H
  C206     1.0000 0.70180  0.26500  0.52860  Biso   1.000  C
  H263     1.0000 0.66230  0.30420  0.51970  Biso   1.000  H
  H264     1.0000 0.66210  0.22670  0.53540  Biso   1.000  H
  C207     1.0000 0.75890  0.24900  0.48070  Biso   1.000  C
  H265     1.0000 0.79260  0.28880  0.47020  Biso   1.000  H
  H266     1.0000 0.80300  0.21260  0.49030  Biso   1.000  H
  C208     1.0000 0.22430  0.74870  0.90580  Biso   1.000  C
  H267     1.0000 0.20500  0.70750  0.88600  Biso   1.000  H
  H268     1.0000 0.16910  0.77560  0.91000  Biso   1.000  H
  C209     1.0000 0.27210  0.73020  0.96280  Biso   1.000  C
  H269     1.0000 0.32040  0.69870  0.95440  Biso   1.000  H
  H270     1.0000 0.22590  0.70260  0.97870  Biso   1.000  H
  C210     1.0000 0.31690  0.76870  0.01130  Biso   1.000  C
  H271     1.0000 0.38100  0.77890  0.00550  Biso   1.000  H
  H272     1.0000 0.28440  0.81140  0.01470  Biso   1.000  H
  C211     1.0000 0.34620  0.35010  0.07880  Biso   1.000  C
  H273     1.0000 0.29660  0.37720  0.09080  Biso   1.000  H
  H274     1.0000 0.32060  0.31520  0.05430  Biso   1.000  H
  H275     1.0000 0.38050  0.32960  0.11030  Biso   1.000  H
  C212     1.0000 0.44580  0.45220  0.08990  Biso   1.000  C
  H276     1.0000 0.48070  0.43220  0.12140  Biso   1.000  H
  H277     1.0000 0.48480  0.48350  0.07250  Biso   1.000  H
  H278     1.0000 0.39290  0.47590  0.10140  Biso   1.000  H
  C213     1.0000 0.49420  0.35470  0.03500  Biso   1.000  C
  H279     1.0000 0.53050  0.34170  0.06850  Biso   1.000  H
  H280     1.0000 0.47300  0.31480  0.01500  Biso   1.000  H
  H281     1.0000 0.53190  0.38140  0.01290  Biso   1.000  H
  C214     1.0000 0.61640  0.92180  0.39830  Biso   1.000  C
  H282     1.0000 0.61900  0.97050  0.39950  Biso   1.000  H
  H283     1.0000 0.67670  0.90410  0.39260  Biso   1.000  H
  H284     1.0000 0.57180  0.90760  0.36870  Biso   1.000  H
  C215     1.0000 0.48230  0.91160  0.45360  Biso   1.000  C
  H285     1.0000 0.44620  0.88630  0.42540  Biso   1.000  H
  H286     1.0000 0.46390  0.89910  0.48900  Biso   1.000  H
  H287     1.0000 0.47170  0.95930  0.44760  Biso   1.000  H
  C216     1.0000 0.59560  0.81810  0.45350  Biso   1.000  C
  H288     1.0000 0.65930  0.80530  0.46340  Biso   1.000  H
  H289     1.0000 0.55750  0.80070  0.48040  Biso   1.000  H
  H290     1.0000 0.57490  0.79960  0.41800  Biso   1.000  H
  Co7      1.0000 0.49573  0.35928  0.77004  Biso   1.000  Co
  Co8      1.0000 0.25169  0.39181  0.72647  Biso   1.000  Co
  O28      1.0000 0.43410  0.26721  0.75781  Biso   1.000  O
  O29      1.0000 0.28210  0.29180  0.74375  Biso   1.000  O
  O30      1.0000 0.52390  0.02260  0.77130  Biso   1.000  O
  O31      1.0000 0.42970  0.94973  0.72445  Biso   1.000  O
  O32      1.0000 0.12670  0.58340  0.92211  Biso   1.000  O
  O33      1.0000 0.13590  0.56370  0.01160  Biso   1.000  O
  H291     1.0000 0.10720  0.53080  0.02170  Biso   1.000  H
  O34      1.0000 0.28550  0.43090  0.80322  Biso   1.000  O
  O35      1.0000 0.42420  0.38970  0.83622  Biso   1.000  O
  O36      1.0000 0.39480  0.40651  0.70874  Biso   1.000  O
  H292     1.0000 0.38690  0.39570  0.67580  Biso   1.000  H
  H293     1.0000 0.41390  0.44590  0.71320  Biso   1.000  H
  N14      1.0000 0.88610  0.86970  0.75000  Biso   1.000  N
  N15      1.0000 0.58630  0.32860  0.70570  Biso   1.000  N
  N16      1.0000 0.58680  0.18340  0.33760  Biso   1.000  N
  C217     1.0000 0.34940  0.25140  0.74670  Biso   1.000  C
  C218     1.0000 0.32740  0.17760  0.73710  Biso   1.000  C
  C219     1.0000 0.23610  0.15810  0.72140  Biso   1.000  C
  H294     1.0000 0.19020  0.19130  0.71570  Biso   1.000  H
  C220     1.0000 0.21180  0.09020  0.71390  Biso   1.000  C
  C221     1.0000 0.28250  0.04270  0.72060  Biso   1.000  C
  H295     1.0000 0.26800  0.99710  0.71460  Biso   1.000  H
  C222     1.0000 0.37440  0.06070  0.73610  Biso   1.000  C
  C223     1.0000 0.39740  0.12860  0.74520  Biso   1.000  C
  H296     1.0000 0.45850  0.14120  0.75650  Biso   1.000  H
  C224     1.0000 0.44870  0.00750  0.74440  Biso   1.000  C
  C225     1.0000 0.11140  0.06620  0.70030  Biso   1.000  C
  C226     1.0000 0.10250  0.02880  0.64520  Biso   1.000  C
  H297     1.0000 0.14270  0.98980  0.64770  Biso   1.000  H
  H298     1.0000 0.03920  0.01450  0.63650  Biso   1.000  H
  H299     1.0000 0.12010  0.05870  0.61690  Biso   1.000  H
  C227     1.0000 0.08510  0.01920  0.74580  Biso   1.000  C
  H300     1.0000 0.09040  0.04330  0.78020  Biso   1.000  H
  H301     1.0000 0.02210  0.00390  0.73740  Biso   1.000  H
  H302     1.0000 0.12630  0.98080  0.74850  Biso   1.000  H
  C228     1.0000 0.04200  0.12760  0.69690  Biso   1.000  C
  H303     1.0000 0.05850  0.15900  0.66940  Biso   1.000  H
  H304     1.0000 0.97980  0.11130  0.68730  Biso   1.000  H
  H305     1.0000 0.04520  0.15000  0.73200  Biso   1.000  H
  C229     1.0000 0.34830  0.41830  0.84100  Biso   1.000  C
  C230     1.0000 0.32770  0.43910  0.89830  Biso   1.000  C
  C231     1.0000 0.25660  0.48530  0.90530  Biso   1.000  C
  H306     1.0000 0.22330  0.50500  0.87480  Biso   1.000  H
  C232     1.0000 0.23560  0.50190  0.95800  Biso   1.000  C
  C233     1.0000 0.28560  0.47230  0.00360  Biso   1.000  C
  H307     1.0000 0.27000  0.48300  0.03870  Biso   1.000  H
  C234     1.0000 0.35790  0.42710  0.99800  Biso   1.000  C
  C235     1.0000 0.37790  0.41190  0.94450  Biso   1.000  C
  H308     1.0000 0.42690  0.38250  0.93970  Biso   1.000  H
  C236     1.0000 0.16140  0.55230  0.96460  Biso   1.000  C
  C237     1.0000 0.41210  0.39570  0.04850  Biso   1.000  C
  C238     1.0000 0.90640  0.87660  0.69840  Biso   1.000  C
  H309     1.0000 0.86040  0.89390  0.67280  Biso   1.000  H
  C239     1.0000 0.99040  0.85980  0.68030  Biso   1.000  C
  H310     1.0000 0.99890  0.86450  0.64320  Biso   1.000  H
  C240     1.0000 0.05890  0.83720  0.71470  Biso   1.000  C
  C241     1.0000 0.04040  0.82890  0.76930  Biso   1.000  C
  H311     1.0000 0.08670  0.81300  0.79540  Biso   1.000  H
  C242     1.0000 0.95300  0.84420  0.78460  Biso   1.000  C
  H312     1.0000 0.94090  0.83610  0.82080  Biso   1.000  H
  C243     1.0000 0.60100  0.26480  0.69320  Biso   1.000  C
  H313     1.0000 0.56920  0.23130  0.71070  Biso   1.000  H
  C244     1.0000 0.66130  0.24490  0.65550  Biso   1.000  C
  H314     1.0000 0.66880  0.19870  0.64930  Biso   1.000  H
  C245     1.0000 0.70930  0.28910  0.62750  Biso   1.000  C
  C246     1.0000 0.69430  0.35250  0.64060  Biso   1.000  C
  H315     1.0000 0.72630  0.38650  0.62380  Biso   1.000  H
  C247     1.0000 0.63260  0.37170  0.67870  Biso   1.000  C
  H316     1.0000 0.62420  0.41780  0.68500  Biso   1.000  H
  C248     1.0000 0.68520  0.22710  0.43430  Biso   1.000  C
  C249     1.0000 0.62570  0.27180  0.40200  Biso   1.000  C
  H317     1.0000 0.61830  0.31670  0.41270  Biso   1.000  H
  C250     1.0000 0.57930  0.24720  0.35460  Biso   1.000  C
  H318     1.0000 0.54050  0.27650  0.33310  Biso   1.000  H
  C251     1.0000 0.63980  0.14230  0.37070  Biso   1.000  C
  H319     1.0000 0.64500  0.09720  0.36020  Biso   1.000  H
  C252     1.0000 0.68660  0.16250  0.41860  Biso   1.000  C
  H320     1.0000 0.72010  0.13080  0.44080  Biso   1.000  H
