data_image0
_cell_length_a       24.673
_cell_length_b       24.911
_cell_length_c       9.3725
_cell_angle_alpha    90
_cell_angle_beta     90
_cell_angle_gamma    90

_symmetry_space_group_name_H-M    "P 1"
_symmetry_int_tables_number       1

loop_
  _symmetry_equiv_pos_as_xyz
  'x, y, z'

loop_
  _atom_site_label
  _atom_site_occupancy
  _atom_site_fract_x
  _atom_site_fract_y
  _atom_site_fract_z
  _atom_site_thermal_displace_type
  _atom_site_B_iso_or_equiv
  _atom_site_type_symbol
  Zn1      1.0000 0.79174  0.80232  0.88880  Biso   1.000  Zn
  Zn2      1.0000 0.50932  0.06104  0.63272  Biso   1.000  Zn
  O1       1.0000 0.58390  0.04210  0.60410  Biso   1.000  O
  O2       1.0000 0.51780  0.11920  0.50130  Biso   1.000  O
  O3       1.0000 0.75030  0.86150  0.79400  Biso   1.000  O
  O4       1.0000 0.68160  0.84880  0.94860  Biso   1.000  O
  O5       1.0000 0.30940  0.25100  0.30670  Biso   1.000  O
  O6       1.0000 0.36990  0.28520  0.16940  Biso   1.000  O
  N1       1.0000 0.49410  0.99680  0.74240  Biso   1.000  N
  N2       1.0000 0.43220  0.07240  0.65500  Biso   1.000  N
  C1       1.0000 0.40390  0.10880  0.59150  Biso   1.000  C
  H1       1.0000 0.36700  0.10990  0.61110  Biso   1.000  H
  C2       1.0000 0.42400  0.14670  0.49630  Biso   1.000  C
  C3       1.0000 0.38620  0.18150  0.43010  Biso   1.000  C
  H2       1.0000 0.34970  0.17810  0.45310  Biso   1.000  H
  C4       1.0000 0.40150  0.22010  0.33290  Biso   1.000  C
  C5       1.0000 0.45530  0.22350  0.29180  Biso   1.000  C
  H3       1.0000 0.46580  0.24830  0.22290  Biso   1.000  H
  C6       1.0000 0.49260  0.19070  0.35210  Biso   1.000  C
  H4       1.0000 0.52860  0.19490  0.32460  Biso   1.000  H
  C7       1.0000 0.48060  0.15050  0.45440  Biso   1.000  C
  C8       1.0000 0.35690  0.25320  0.26720  Biso   1.000  C
  C9       1.0000 0.52970  0.96330  0.78440  Biso   1.000  C
  H5       1.0000 0.51740  0.93580  0.84320  Biso   1.000  H
  C10      1.0000 0.58570  0.96280  0.75210  Biso   1.000  C
  C11      1.0000 0.61930  0.92210  0.80590  Biso   1.000  C
  H6       1.0000 0.60380  0.89690  0.86670  Biso   1.000  H
  C12      1.0000 0.67270  0.91690  0.77550  Biso   1.000  C
  C13      1.0000 0.69630  0.95440  0.68740  Biso   1.000  C
  H7       1.0000 0.73300  0.95110  0.66610  Biso   1.000  H
  C14      1.0000 0.66690  0.99790  0.62760  Biso   1.000  C
  C15      1.0000 0.61020  0.00180  0.66150  Biso   1.000  C
  C16      1.0000 0.70400  0.87270  0.84550  Biso   1.000  C
  C17      1.0000 0.40820  0.03870  0.76700  Biso   1.000  C
  H8       1.0000 0.41970  0.05310  0.85950  Biso   1.000  H
  C18      1.0000 0.32830  0.99560  0.89610  Biso   1.000  C
  H9       1.0000 0.34020  0.01050  0.98640  Biso   1.000  H
  H10      1.0000 0.28930  0.99090  0.89870  Biso   1.000  H
  C19      1.0000 0.35730  0.94150  0.86520  Biso   1.000  C
  H11      1.0000 0.34740  0.92940  0.77030  Biso   1.000  H
  H12      1.0000 0.34460  0.91480  0.93280  Biso   1.000  H
  C20      1.0000 0.43510  0.98270  0.74770  Biso   1.000  C
  H13      1.0000 0.42370  0.96650  0.65730  Biso   1.000  H
  C21      1.0000 0.34510  0.03250  0.77010  Biso   1.000  C
  H14      1.0000 0.32840  0.06750  0.78110  Biso   1.000  H
  H15      1.0000 0.33270  0.01710  0.68080  Biso   1.000  H
  C22      1.0000 0.42010  0.94530  0.87500  Biso   1.000  C
  H16      1.0000 0.43680  0.91030  0.86460  Biso   1.000  H
  H17      1.0000 0.43130  0.96090  0.96520  Biso   1.000  H
  C23      1.0000 0.36280  0.96540  0.94190  Biso   1.000  C
  H18      1.0000 0.34870  0.93350  0.98830  Biso   1.000  H
  H19      1.0000 0.36950  0.99290  0.01300  Biso   1.000  H
  C24      1.0000 0.44210  0.00700  0.82510  Biso   1.000  C
  H20      1.0000 0.45980  0.02300  0.90660  Biso   1.000  H
  C25      1.0000 0.40080  0.02070  0.70750  Biso   1.000  C
  H21      1.0000 0.41000  0.98890  0.65500  Biso   1.000  H
  C26      1.0000 0.32470  0.98540  0.82450  Biso   1.000  C
  H22      1.0000 0.28770  0.98930  0.85780  Biso   1.000  H
  H23      1.0000 0.32550  0.96250  0.74070  Biso   1.000  H
  C27      1.0000 0.35220  0.03980  0.79800  Biso   1.000  C
  H24      1.0000 0.36370  0.05660  0.88650  Biso   1.000  H
  H25      1.0000 0.32890  0.06420  0.74580  Biso   1.000  H
  C28      1.0000 0.41420  0.95280  0.85400  Biso   1.000  C
  H26      1.0000 0.43810  0.92930  0.90780  Biso   1.000  H
  H27      1.0000 0.40460  0.93530  0.76550  Biso   1.000  H
  Zn3      1.0000 0.70826  0.69768  0.88880  Biso   1.000  Zn
  Zn4      1.0000 0.99068  0.43896  0.63272  Biso   1.000  Zn
  O7       1.0000 0.91610  0.45790  0.60410  Biso   1.000  O
  O8       1.0000 0.98220  0.38080  0.50130  Biso   1.000  O
  O9       1.0000 0.74970  0.63850  0.79400  Biso   1.000  O
  O10      1.0000 0.81840  0.65120  0.94860  Biso   1.000  O
  O11      1.0000 0.19060  0.24900  0.30670  Biso   1.000  O
  O12      1.0000 0.13010  0.21480  0.16940  Biso   1.000  O
  N3       1.0000 0.00590  0.50320  0.74240  Biso   1.000  N
  N4       1.0000 0.06780  0.42760  0.65500  Biso   1.000  N
  C29      1.0000 0.09610  0.39120  0.59150  Biso   1.000  C
  H28      1.0000 0.13300  0.39010  0.61110  Biso   1.000  H
  C30      1.0000 0.07600  0.35330  0.49630  Biso   1.000  C
  C31      1.0000 0.11380  0.31850  0.43010  Biso   1.000  C
  H29      1.0000 0.15030  0.32190  0.45310  Biso   1.000  H
  C32      1.0000 0.09850  0.27990  0.33290  Biso   1.000  C
  C33      1.0000 0.04470  0.27650  0.29180  Biso   1.000  C
  H30      1.0000 0.03420  0.25170  0.22290  Biso   1.000  H
  C34      1.0000 0.00740  0.30930  0.35210  Biso   1.000  C
  H31      1.0000 0.97140  0.30510  0.32460  Biso   1.000  H
  C35      1.0000 0.01940  0.34950  0.45440  Biso   1.000  C
  C36      1.0000 0.14310  0.24680  0.26720  Biso   1.000  C
  C37      1.0000 0.97030  0.53670  0.78440  Biso   1.000  C
  H32      1.0000 0.98260  0.56420  0.84320  Biso   1.000  H
  C38      1.0000 0.91430  0.53720  0.75210  Biso   1.000  C
  C39      1.0000 0.88070  0.57790  0.80590  Biso   1.000  C
  H33      1.0000 0.89620  0.60310  0.86670  Biso   1.000  H
  C40      1.0000 0.82730  0.58310  0.77550  Biso   1.000  C
  C41      1.0000 0.80370  0.54560  0.68740  Biso   1.000  C
  H34      1.0000 0.76700  0.54890  0.66610  Biso   1.000  H
  C42      1.0000 0.83310  0.50210  0.62760  Biso   1.000  C
  C43      1.0000 0.88980  0.49820  0.66150  Biso   1.000  C
  C44      1.0000 0.79600  0.62730  0.84550  Biso   1.000  C
  C45      1.0000 0.09180  0.46130  0.76700  Biso   1.000  C
  H35      1.0000 0.08030  0.44690  0.85950  Biso   1.000  H
  C46      1.0000 0.17170  0.50440  0.89610  Biso   1.000  C
  H36      1.0000 0.15980  0.48950  0.98640  Biso   1.000  H
  H37      1.0000 0.21070  0.50910  0.89870  Biso   1.000  H
  C47      1.0000 0.14270  0.55850  0.86520  Biso   1.000  C
  H38      1.0000 0.15260  0.57060  0.77030  Biso   1.000  H
  H39      1.0000 0.15540  0.58520  0.93280  Biso   1.000  H
  C48      1.0000 0.06490  0.51730  0.74770  Biso   1.000  C
  H40      1.0000 0.07630  0.53350  0.65730  Biso   1.000  H
  C49      1.0000 0.15490  0.46750  0.77010  Biso   1.000  C
  H41      1.0000 0.17160  0.43250  0.78110  Biso   1.000  H
  H42      1.0000 0.16730  0.48290  0.68080  Biso   1.000  H
  C50      1.0000 0.07990  0.55470  0.87500  Biso   1.000  C
  H43      1.0000 0.06320  0.58970  0.86460  Biso   1.000  H
  H44      1.0000 0.06870  0.53910  0.96520  Biso   1.000  H
  C51      1.0000 0.13720  0.53460  0.94190  Biso   1.000  C
  H45      1.0000 0.15130  0.56650  0.98830  Biso   1.000  H
  H46      1.0000 0.13050  0.50710  0.01300  Biso   1.000  H
  C52      1.0000 0.05790  0.49300  0.82510  Biso   1.000  C
  H47      1.0000 0.04020  0.47700  0.90660  Biso   1.000  H
  C53      1.0000 0.09920  0.47930  0.70750  Biso   1.000  C
  H48      1.0000 0.09000  0.51110  0.65500  Biso   1.000  H
  C54      1.0000 0.17530  0.51460  0.82450  Biso   1.000  C
  H49      1.0000 0.21230  0.51070  0.85780  Biso   1.000  H
  H50      1.0000 0.17450  0.53750  0.74070  Biso   1.000  H
  C55      1.0000 0.14780  0.46020  0.79800  Biso   1.000  C
  H51      1.0000 0.13630  0.44340  0.88650  Biso   1.000  H
  H52      1.0000 0.17110  0.43580  0.74580  Biso   1.000  H
  C56      1.0000 0.08580  0.54720  0.85400  Biso   1.000  C
  H53      1.0000 0.06190  0.57070  0.90780  Biso   1.000  H
  H54      1.0000 0.09540  0.56470  0.76550  Biso   1.000  H
  Zn5      1.0000 0.70826  0.80232  0.11120  Biso   1.000  Zn
  Zn6      1.0000 0.99068  0.06104  0.36728  Biso   1.000  Zn
  O13      1.0000 0.91610  0.04210  0.39590  Biso   1.000  O
  O14      1.0000 0.98220  0.11920  0.49870  Biso   1.000  O
  O15      1.0000 0.74970  0.86150  0.20600  Biso   1.000  O
  O16      1.0000 0.81840  0.84880  0.05140  Biso   1.000  O
  O17      1.0000 0.19060  0.25100  0.69330  Biso   1.000  O
  O18      1.0000 0.13010  0.28520  0.83060  Biso   1.000  O
  N5       1.0000 0.00590  0.99680  0.25760  Biso   1.000  N
  N6       1.0000 0.06780  0.07240  0.34500  Biso   1.000  N
  C57      1.0000 0.09610  0.10880  0.40850  Biso   1.000  C
  H55      1.0000 0.13300  0.10990  0.38890  Biso   1.000  H
  C58      1.0000 0.07600  0.14670  0.50370  Biso   1.000  C
  C59      1.0000 0.11380  0.18150  0.56990  Biso   1.000  C
  H56      1.0000 0.15030  0.17810  0.54690  Biso   1.000  H
  C60      1.0000 0.09850  0.22010  0.66710  Biso   1.000  C
  C61      1.0000 0.04470  0.22350  0.70820  Biso   1.000  C
  H57      1.0000 0.03420  0.24830  0.77710  Biso   1.000  H
  C62      1.0000 0.00740  0.19070  0.64790  Biso   1.000  C
  H58      1.0000 0.97140  0.19490  0.67540  Biso   1.000  H
  C63      1.0000 0.01940  0.15050  0.54560  Biso   1.000  C
  C64      1.0000 0.14310  0.25320  0.73280  Biso   1.000  C
  C65      1.0000 0.97030  0.96330  0.21560  Biso   1.000  C
  H59      1.0000 0.98260  0.93580  0.15680  Biso   1.000  H
  C66      1.0000 0.91430  0.96280  0.24790  Biso   1.000  C
  C67      1.0000 0.88070  0.92210  0.19410  Biso   1.000  C
  H60      1.0000 0.89620  0.89690  0.13330  Biso   1.000  H
  C68      1.0000 0.82730  0.91690  0.22450  Biso   1.000  C
  C69      1.0000 0.80370  0.95440  0.31260  Biso   1.000  C
  H61      1.0000 0.76700  0.95110  0.33390  Biso   1.000  H
  C70      1.0000 0.83310  0.99790  0.37240  Biso   1.000  C
  C71      1.0000 0.88980  0.00180  0.33850  Biso   1.000  C
  C72      1.0000 0.79600  0.87270  0.15450  Biso   1.000  C
  C73      1.0000 0.09180  0.03870  0.23300  Biso   1.000  C
  H62      1.0000 0.08030  0.05310  0.14050  Biso   1.000  H
  C74      1.0000 0.17170  0.99560  0.10390  Biso   1.000  C
  H63      1.0000 0.15980  0.01050  0.01360  Biso   1.000  H
  H64      1.0000 0.21070  0.99090  0.10130  Biso   1.000  H
  C75      1.0000 0.14270  0.94150  0.13480  Biso   1.000  C
  H65      1.0000 0.15260  0.92940  0.22970  Biso   1.000  H
  H66      1.0000 0.15540  0.91480  0.06720  Biso   1.000  H
  C76      1.0000 0.06490  0.98270  0.25230  Biso   1.000  C
  H67      1.0000 0.07630  0.96650  0.34270  Biso   1.000  H
  C77      1.0000 0.15490  0.03250  0.22990  Biso   1.000  C
  H68      1.0000 0.17160  0.06750  0.21890  Biso   1.000  H
  H69      1.0000 0.16730  0.01710  0.31920  Biso   1.000  H
  C78      1.0000 0.07990  0.94530  0.12500  Biso   1.000  C
  H70      1.0000 0.06320  0.91030  0.13540  Biso   1.000  H
  H71      1.0000 0.06870  0.96090  0.03480  Biso   1.000  H
  C79      1.0000 0.13720  0.96540  0.05810  Biso   1.000  C
  H72      1.0000 0.15130  0.93350  0.01170  Biso   1.000  H
  H73      1.0000 0.13050  0.99290  0.98700  Biso   1.000  H
  C80      1.0000 0.05790  0.00700  0.17490  Biso   1.000  C
  H74      1.0000 0.04020  0.02300  0.09340  Biso   1.000  H
  C81      1.0000 0.09920  0.02070  0.29250  Biso   1.000  C
  H75      1.0000 0.09000  0.98890  0.34500  Biso   1.000  H
  C82      1.0000 0.17530  0.98540  0.17550  Biso   1.000  C
  H76      1.0000 0.21230  0.98930  0.14220  Biso   1.000  H
  H77      1.0000 0.17450  0.96250  0.25930  Biso   1.000  H
  C83      1.0000 0.14780  0.03980  0.20200  Biso   1.000  C
  H78      1.0000 0.13630  0.05660  0.11350  Biso   1.000  H
  H79      1.0000 0.17110  0.06420  0.25420  Biso   1.000  H
  C84      1.0000 0.08580  0.95280  0.14600  Biso   1.000  C
  H80      1.0000 0.06190  0.92930  0.09220  Biso   1.000  H
  H81      1.0000 0.09540  0.93530  0.23450  Biso   1.000  H
  Zn7      1.0000 0.79174  0.69768  0.11120  Biso   1.000  Zn
  Zn8      1.0000 0.50932  0.43896  0.36728  Biso   1.000  Zn
  O19      1.0000 0.58390  0.45790  0.39590  Biso   1.000  O
  O20      1.0000 0.51780  0.38080  0.49870  Biso   1.000  O
  O21      1.0000 0.75030  0.63850  0.20600  Biso   1.000  O
  O22      1.0000 0.68160  0.65120  0.05140  Biso   1.000  O
  O23      1.0000 0.30940  0.24900  0.69330  Biso   1.000  O
  O24      1.0000 0.36990  0.21480  0.83060  Biso   1.000  O
  N7       1.0000 0.49410  0.50320  0.25760  Biso   1.000  N
  N8       1.0000 0.43220  0.42760  0.34500  Biso   1.000  N
  C85      1.0000 0.40390  0.39120  0.40850  Biso   1.000  C
  H82      1.0000 0.36700  0.39010  0.38890  Biso   1.000  H
  C86      1.0000 0.42400  0.35330  0.50370  Biso   1.000  C
  C87      1.0000 0.38620  0.31850  0.56990  Biso   1.000  C
  H83      1.0000 0.34970  0.32190  0.54690  Biso   1.000  H
  C88      1.0000 0.40150  0.27990  0.66710  Biso   1.000  C
  C89      1.0000 0.45530  0.27650  0.70820  Biso   1.000  C
  H84      1.0000 0.46580  0.25170  0.77710  Biso   1.000  H
  C90      1.0000 0.49260  0.30930  0.64790  Biso   1.000  C
  H85      1.0000 0.52860  0.30510  0.67540  Biso   1.000  H
  C91      1.0000 0.48060  0.34950  0.54560  Biso   1.000  C
  C92      1.0000 0.35690  0.24680  0.73280  Biso   1.000  C
  C93      1.0000 0.52970  0.53670  0.21560  Biso   1.000  C
  H86      1.0000 0.51740  0.56420  0.15680  Biso   1.000  H
  C94      1.0000 0.58570  0.53720  0.24790  Biso   1.000  C
  C95      1.0000 0.61930  0.57790  0.19410  Biso   1.000  C
  H87      1.0000 0.60380  0.60310  0.13330  Biso   1.000  H
  C96      1.0000 0.67270  0.58310  0.22450  Biso   1.000  C
  C97      1.0000 0.69630  0.54560  0.31260  Biso   1.000  C
  H88      1.0000 0.73300  0.54890  0.33390  Biso   1.000  H
  C98      1.0000 0.66690  0.50210  0.37240  Biso   1.000  C
  C99      1.0000 0.61020  0.49820  0.33850  Biso   1.000  C
  C100     1.0000 0.70400  0.62730  0.15450  Biso   1.000  C
  C101     1.0000 0.40820  0.46130  0.23300  Biso   1.000  C
  H89      1.0000 0.41970  0.44690  0.14050  Biso   1.000  H
  C102     1.0000 0.32830  0.50440  0.10390  Biso   1.000  C
  H90      1.0000 0.34020  0.48950  0.01360  Biso   1.000  H
  H91      1.0000 0.28930  0.50910  0.10130  Biso   1.000  H
  C103     1.0000 0.35730  0.55850  0.13480  Biso   1.000  C
  H92      1.0000 0.34740  0.57060  0.22970  Biso   1.000  H
  H93      1.0000 0.34460  0.58520  0.06720  Biso   1.000  H
  C104     1.0000 0.43510  0.51730  0.25230  Biso   1.000  C
  H94      1.0000 0.42370  0.53350  0.34270  Biso   1.000  H
  C105     1.0000 0.34510  0.46750  0.22990  Biso   1.000  C
  H95      1.0000 0.32840  0.43250  0.21890  Biso   1.000  H
  H96      1.0000 0.33270  0.48290  0.31920  Biso   1.000  H
  C106     1.0000 0.42010  0.55470  0.12500  Biso   1.000  C
  H97      1.0000 0.43680  0.58970  0.13540  Biso   1.000  H
  H98      1.0000 0.43130  0.53910  0.03480  Biso   1.000  H
  C107     1.0000 0.36280  0.53460  0.05810  Biso   1.000  C
  H99      1.0000 0.34870  0.56650  0.01170  Biso   1.000  H
  H100     1.0000 0.36950  0.50710  0.98700  Biso   1.000  H
  C108     1.0000 0.44210  0.49300  0.17490  Biso   1.000  C
  H101     1.0000 0.45980  0.47700  0.09340  Biso   1.000  H
  C109     1.0000 0.40080  0.47930  0.29250  Biso   1.000  C
  H102     1.0000 0.41000  0.51110  0.34500  Biso   1.000  H
  C110     1.0000 0.32470  0.51460  0.17550  Biso   1.000  C
  H103     1.0000 0.28770  0.51070  0.14220  Biso   1.000  H
  H104     1.0000 0.32550  0.53750  0.25930  Biso   1.000  H
  C111     1.0000 0.35220  0.46020  0.20200  Biso   1.000  C
  H105     1.0000 0.36370  0.44340  0.11350  Biso   1.000  H
  H106     1.0000 0.32890  0.43580  0.25420  Biso   1.000  H
  C112     1.0000 0.41420  0.54720  0.14600  Biso   1.000  C
  H107     1.0000 0.43810  0.57070  0.09220  Biso   1.000  H
  H108     1.0000 0.40460  0.56470  0.23450  Biso   1.000  H
  Zn9      1.0000 0.20826  0.19768  0.11120  Biso   1.000  Zn
  Zn10     1.0000 0.49068  0.93896  0.36728  Biso   1.000  Zn
  O25      1.0000 0.41610  0.95790  0.39590  Biso   1.000  O
  O26      1.0000 0.48220  0.88080  0.49870  Biso   1.000  O
  O27      1.0000 0.24970  0.13850  0.20600  Biso   1.000  O
  O28      1.0000 0.31840  0.15120  0.05140  Biso   1.000  O
  O29      1.0000 0.69060  0.74900  0.69330  Biso   1.000  O
  O30      1.0000 0.63010  0.71480  0.83060  Biso   1.000  O
  N9       1.0000 0.50590  0.00320  0.25760  Biso   1.000  N
  N10      1.0000 0.56780  0.92760  0.34500  Biso   1.000  N
  C113     1.0000 0.59610  0.89120  0.40850  Biso   1.000  C
  H109     1.0000 0.63300  0.89010  0.38890  Biso   1.000  H
  C114     1.0000 0.57600  0.85330  0.50370  Biso   1.000  C
  C115     1.0000 0.61380  0.81850  0.56990  Biso   1.000  C
  H110     1.0000 0.65030  0.82190  0.54690  Biso   1.000  H
  C116     1.0000 0.59850  0.77990  0.66710  Biso   1.000  C
  C117     1.0000 0.54470  0.77650  0.70820  Biso   1.000  C
  H111     1.0000 0.53420  0.75170  0.77710  Biso   1.000  H
  C118     1.0000 0.50740  0.80930  0.64790  Biso   1.000  C
  H112     1.0000 0.47140  0.80510  0.67540  Biso   1.000  H
  C119     1.0000 0.51940  0.84950  0.54560  Biso   1.000  C
  C120     1.0000 0.64310  0.74680  0.73280  Biso   1.000  C
  C121     1.0000 0.47030  0.03670  0.21560  Biso   1.000  C
  H113     1.0000 0.48260  0.06420  0.15680  Biso   1.000  H
  C122     1.0000 0.41430  0.03720  0.24790  Biso   1.000  C
  C123     1.0000 0.38070  0.07790  0.19410  Biso   1.000  C
  H114     1.0000 0.39620  0.10310  0.13330  Biso   1.000  H
  C124     1.0000 0.32730  0.08310  0.22450  Biso   1.000  C
  C125     1.0000 0.30370  0.04560  0.31260  Biso   1.000  C
  H115     1.0000 0.26700  0.04890  0.33390  Biso   1.000  H
  C126     1.0000 0.33310  0.00210  0.37240  Biso   1.000  C
  C127     1.0000 0.38980  0.99820  0.33850  Biso   1.000  C
  C128     1.0000 0.29600  0.12730  0.15450  Biso   1.000  C
  C129     1.0000 0.59180  0.96130  0.23300  Biso   1.000  C
  H116     1.0000 0.58030  0.94690  0.14050  Biso   1.000  H
  C130     1.0000 0.67170  0.00440  0.10390  Biso   1.000  C
  H117     1.0000 0.65980  0.98950  0.01360  Biso   1.000  H
  H118     1.0000 0.71070  0.00910  0.10130  Biso   1.000  H
  C131     1.0000 0.64270  0.05850  0.13480  Biso   1.000  C
  H119     1.0000 0.65260  0.07060  0.22970  Biso   1.000  H
  H120     1.0000 0.65540  0.08520  0.06720  Biso   1.000  H
  C132     1.0000 0.56490  0.01730  0.25230  Biso   1.000  C
  H121     1.0000 0.57630  0.03350  0.34270  Biso   1.000  H
  C133     1.0000 0.65490  0.96750  0.22990  Biso   1.000  C
  H122     1.0000 0.67160  0.93250  0.21890  Biso   1.000  H
  H123     1.0000 0.66730  0.98290  0.31920  Biso   1.000  H
  C134     1.0000 0.57990  0.05470  0.12500  Biso   1.000  C
  H124     1.0000 0.56320  0.08970  0.13540  Biso   1.000  H
  H125     1.0000 0.56870  0.03910  0.03480  Biso   1.000  H
  C135     1.0000 0.63720  0.03460  0.05810  Biso   1.000  C
  H126     1.0000 0.65130  0.06650  0.01170  Biso   1.000  H
  H127     1.0000 0.63050  0.00710  0.98700  Biso   1.000  H
  C136     1.0000 0.55790  0.99300  0.17490  Biso   1.000  C
  H128     1.0000 0.54020  0.97700  0.09340  Biso   1.000  H
  C137     1.0000 0.59920  0.97930  0.29250  Biso   1.000  C
  H129     1.0000 0.59000  0.01110  0.34500  Biso   1.000  H
  C138     1.0000 0.67530  0.01460  0.17550  Biso   1.000  C
  H130     1.0000 0.71230  0.01070  0.14220  Biso   1.000  H
  H131     1.0000 0.67450  0.03750  0.25930  Biso   1.000  H
  C139     1.0000 0.64780  0.96020  0.20200  Biso   1.000  C
  H132     1.0000 0.63630  0.94340  0.11350  Biso   1.000  H
  H133     1.0000 0.67110  0.93580  0.25420  Biso   1.000  H
  C140     1.0000 0.58580  0.04720  0.14600  Biso   1.000  C
  H134     1.0000 0.56190  0.07070  0.09220  Biso   1.000  H
  H135     1.0000 0.59540  0.06470  0.23450  Biso   1.000  H
  Zn11     1.0000 0.29174  0.30232  0.11120  Biso   1.000  Zn
  Zn12     1.0000 0.00932  0.56104  0.36728  Biso   1.000  Zn
  O31      1.0000 0.08390  0.54210  0.39590  Biso   1.000  O
  O32      1.0000 0.01780  0.61920  0.49870  Biso   1.000  O
  O33      1.0000 0.25030  0.36150  0.20600  Biso   1.000  O
  O34      1.0000 0.18160  0.34880  0.05140  Biso   1.000  O
  O35      1.0000 0.80940  0.75100  0.69330  Biso   1.000  O
  O36      1.0000 0.86990  0.78520  0.83060  Biso   1.000  O
  N11      1.0000 0.99410  0.49680  0.25760  Biso   1.000  N
  N12      1.0000 0.93220  0.57240  0.34500  Biso   1.000  N
  C141     1.0000 0.90390  0.60880  0.40850  Biso   1.000  C
  H136     1.0000 0.86700  0.60990  0.38890  Biso   1.000  H
  C142     1.0000 0.92400  0.64670  0.50370  Biso   1.000  C
  C143     1.0000 0.88620  0.68150  0.56990  Biso   1.000  C
  H137     1.0000 0.84970  0.67810  0.54690  Biso   1.000  H
  C144     1.0000 0.90150  0.72010  0.66710  Biso   1.000  C
  C145     1.0000 0.95530  0.72350  0.70820  Biso   1.000  C
  H138     1.0000 0.96580  0.74830  0.77710  Biso   1.000  H
  C146     1.0000 0.99260  0.69070  0.64790  Biso   1.000  C
  H139     1.0000 0.02860  0.69490  0.67540  Biso   1.000  H
  C147     1.0000 0.98060  0.65050  0.54560  Biso   1.000  C
  C148     1.0000 0.85690  0.75320  0.73280  Biso   1.000  C
  C149     1.0000 0.02970  0.46330  0.21560  Biso   1.000  C
  H140     1.0000 0.01740  0.43580  0.15680  Biso   1.000  H
  C150     1.0000 0.08570  0.46280  0.24790  Biso   1.000  C
  C151     1.0000 0.11930  0.42210  0.19410  Biso   1.000  C
  H141     1.0000 0.10380  0.39690  0.13330  Biso   1.000  H
  C152     1.0000 0.17270  0.41690  0.22450  Biso   1.000  C
  C153     1.0000 0.19630  0.45440  0.31260  Biso   1.000  C
  H142     1.0000 0.23300  0.45110  0.33390  Biso   1.000  H
  C154     1.0000 0.16690  0.49790  0.37240  Biso   1.000  C
  C155     1.0000 0.11020  0.50180  0.33850  Biso   1.000  C
  C156     1.0000 0.20400  0.37270  0.15450  Biso   1.000  C
  C157     1.0000 0.90820  0.53870  0.23300  Biso   1.000  C
  H143     1.0000 0.91970  0.55310  0.14050  Biso   1.000  H
  C158     1.0000 0.82830  0.49560  0.10390  Biso   1.000  C
  H144     1.0000 0.84020  0.51050  0.01360  Biso   1.000  H
  H145     1.0000 0.78930  0.49090  0.10130  Biso   1.000  H
  C159     1.0000 0.85730  0.44150  0.13480  Biso   1.000  C
  H146     1.0000 0.84740  0.42940  0.22970  Biso   1.000  H
  H147     1.0000 0.84460  0.41480  0.06720  Biso   1.000  H
  C160     1.0000 0.93510  0.48270  0.25230  Biso   1.000  C
  H148     1.0000 0.92370  0.46650  0.34270  Biso   1.000  H
  C161     1.0000 0.84510  0.53250  0.22990  Biso   1.000  C
  H149     1.0000 0.82840  0.56750  0.21890  Biso   1.000  H
  H150     1.0000 0.83270  0.51710  0.31920  Biso   1.000  H
  C162     1.0000 0.92010  0.44530  0.12500  Biso   1.000  C
  H151     1.0000 0.93680  0.41030  0.13540  Biso   1.000  H
  H152     1.0000 0.93130  0.46090  0.03480  Biso   1.000  H
  C163     1.0000 0.86280  0.46540  0.05810  Biso   1.000  C
  H153     1.0000 0.84870  0.43350  0.01170  Biso   1.000  H
  H154     1.0000 0.86950  0.49290  0.98700  Biso   1.000  H
  C164     1.0000 0.94210  0.50700  0.17490  Biso   1.000  C
  H155     1.0000 0.95980  0.52300  0.09340  Biso   1.000  H
  C165     1.0000 0.90080  0.52070  0.29250  Biso   1.000  C
  H156     1.0000 0.91000  0.48890  0.34500  Biso   1.000  H
  C166     1.0000 0.82470  0.48540  0.17550  Biso   1.000  C
  H157     1.0000 0.78770  0.48930  0.14220  Biso   1.000  H
  H158     1.0000 0.82550  0.46250  0.25930  Biso   1.000  H
  C167     1.0000 0.85220  0.53980  0.20200  Biso   1.000  C
  H159     1.0000 0.86370  0.55660  0.11350  Biso   1.000  H
  H160     1.0000 0.82890  0.56420  0.25420  Biso   1.000  H
  C168     1.0000 0.91420  0.45280  0.14600  Biso   1.000  C
  H161     1.0000 0.93810  0.42930  0.09220  Biso   1.000  H
  H162     1.0000 0.90460  0.43530  0.23450  Biso   1.000  H
  Zn13     1.0000 0.29174  0.19768  0.88880  Biso   1.000  Zn
  Zn14     1.0000 0.00932  0.93896  0.63272  Biso   1.000  Zn
  O37      1.0000 0.08390  0.95790  0.60410  Biso   1.000  O
  O38      1.0000 0.01780  0.88080  0.50130  Biso   1.000  O
  O39      1.0000 0.25030  0.13850  0.79400  Biso   1.000  O
  O40      1.0000 0.18160  0.15120  0.94860  Biso   1.000  O
  O41      1.0000 0.80940  0.74900  0.30670  Biso   1.000  O
  O42      1.0000 0.86990  0.71480  0.16940  Biso   1.000  O
  N13      1.0000 0.99410  0.00320  0.74240  Biso   1.000  N
  N14      1.0000 0.93220  0.92760  0.65500  Biso   1.000  N
  C169     1.0000 0.90390  0.89120  0.59150  Biso   1.000  C
  H163     1.0000 0.86700  0.89010  0.61110  Biso   1.000  H
  C170     1.0000 0.92400  0.85330  0.49630  Biso   1.000  C
  C171     1.0000 0.88620  0.81850  0.43010  Biso   1.000  C
  H164     1.0000 0.84970  0.82190  0.45310  Biso   1.000  H
  C172     1.0000 0.90150  0.77990  0.33290  Biso   1.000  C
  C173     1.0000 0.95530  0.77650  0.29180  Biso   1.000  C
  H165     1.0000 0.96580  0.75170  0.22290  Biso   1.000  H
  C174     1.0000 0.99260  0.80930  0.35210  Biso   1.000  C
  H166     1.0000 0.02860  0.80510  0.32460  Biso   1.000  H
  C175     1.0000 0.98060  0.84950  0.45440  Biso   1.000  C
  C176     1.0000 0.85690  0.74680  0.26720  Biso   1.000  C
  C177     1.0000 0.02970  0.03670  0.78440  Biso   1.000  C
  H167     1.0000 0.01740  0.06420  0.84320  Biso   1.000  H
  C178     1.0000 0.08570  0.03720  0.75210  Biso   1.000  C
  C179     1.0000 0.11930  0.07790  0.80590  Biso   1.000  C
  H168     1.0000 0.10380  0.10310  0.86670  Biso   1.000  H
  C180     1.0000 0.17270  0.08310  0.77550  Biso   1.000  C
  C181     1.0000 0.19630  0.04560  0.68740  Biso   1.000  C
  H169     1.0000 0.23300  0.04890  0.66610  Biso   1.000  H
  C182     1.0000 0.16690  0.00210  0.62760  Biso   1.000  C
  C183     1.0000 0.11020  0.99820  0.66150  Biso   1.000  C
  C184     1.0000 0.20400  0.12730  0.84550  Biso   1.000  C
  C185     1.0000 0.90820  0.96130  0.76700  Biso   1.000  C
  H170     1.0000 0.91970  0.94690  0.85950  Biso   1.000  H
  C186     1.0000 0.82830  0.00440  0.89610  Biso   1.000  C
  H171     1.0000 0.84020  0.98950  0.98640  Biso   1.000  H
  H172     1.0000 0.78930  0.00910  0.89870  Biso   1.000  H
  C187     1.0000 0.85730  0.05850  0.86520  Biso   1.000  C
  H173     1.0000 0.84740  0.07060  0.77030  Biso   1.000  H
  H174     1.0000 0.84460  0.08520  0.93280  Biso   1.000  H
  C188     1.0000 0.93510  0.01730  0.74770  Biso   1.000  C
  H175     1.0000 0.92370  0.03350  0.65730  Biso   1.000  H
  C189     1.0000 0.84510  0.96750  0.77010  Biso   1.000  C
  H176     1.0000 0.82840  0.93250  0.78110  Biso   1.000  H
  H177     1.0000 0.83270  0.98290  0.68080  Biso   1.000  H
  C190     1.0000 0.92010  0.05470  0.87500  Biso   1.000  C
  H178     1.0000 0.93680  0.08970  0.86460  Biso   1.000  H
  H179     1.0000 0.93130  0.03910  0.96520  Biso   1.000  H
  C191     1.0000 0.86280  0.03460  0.94190  Biso   1.000  C
  H180     1.0000 0.84870  0.06650  0.98830  Biso   1.000  H
  H181     1.0000 0.86950  0.00710  0.01300  Biso   1.000  H
  C192     1.0000 0.94210  0.99300  0.82510  Biso   1.000  C
  H182     1.0000 0.95980  0.97700  0.90660  Biso   1.000  H
  C193     1.0000 0.90080  0.97930  0.70750  Biso   1.000  C
  H183     1.0000 0.91000  0.01110  0.65500  Biso   1.000  H
  C194     1.0000 0.82470  0.01460  0.82450  Biso   1.000  C
  H184     1.0000 0.78770  0.01070  0.85780  Biso   1.000  H
  H185     1.0000 0.82550  0.03750  0.74070  Biso   1.000  H
  C195     1.0000 0.85220  0.96020  0.79800  Biso   1.000  C
  H186     1.0000 0.86370  0.94340  0.88650  Biso   1.000  H
  H187     1.0000 0.82890  0.93580  0.74580  Biso   1.000  H
  C196     1.0000 0.91420  0.04720  0.85400  Biso   1.000  C
  H188     1.0000 0.93810  0.07070  0.90780  Biso   1.000  H
  H189     1.0000 0.90460  0.06470  0.76550  Biso   1.000  H
  Zn15     1.0000 0.20826  0.30232  0.88880  Biso   1.000  Zn
  Zn16     1.0000 0.49068  0.56104  0.63272  Biso   1.000  Zn
  O43      1.0000 0.41610  0.54210  0.60410  Biso   1.000  O
  O44      1.0000 0.48220  0.61920  0.50130  Biso   1.000  O
  O45      1.0000 0.24970  0.36150  0.79400  Biso   1.000  O
  O46      1.0000 0.31840  0.34880  0.94860  Biso   1.000  O
  O47      1.0000 0.69060  0.75100  0.30670  Biso   1.000  O
  O48      1.0000 0.63010  0.78520  0.16940  Biso   1.000  O
  N15      1.0000 0.50590  0.49680  0.74240  Biso   1.000  N
  N16      1.0000 0.56780  0.57240  0.65500  Biso   1.000  N
  C197     1.0000 0.59610  0.60880  0.59150  Biso   1.000  C
  H190     1.0000 0.63300  0.60990  0.61110  Biso   1.000  H
  C198     1.0000 0.57600  0.64670  0.49630  Biso   1.000  C
  C199     1.0000 0.61380  0.68150  0.43010  Biso   1.000  C
  H191     1.0000 0.65030  0.67810  0.45310  Biso   1.000  H
  C200     1.0000 0.59850  0.72010  0.33290  Biso   1.000  C
  C201     1.0000 0.54470  0.72350  0.29180  Biso   1.000  C
  H192     1.0000 0.53420  0.74830  0.22290  Biso   1.000  H
  C202     1.0000 0.50740  0.69070  0.35210  Biso   1.000  C
  H193     1.0000 0.47140  0.69490  0.32460  Biso   1.000  H
  C203     1.0000 0.51940  0.65050  0.45440  Biso   1.000  C
  C204     1.0000 0.64310  0.75320  0.26720  Biso   1.000  C
  C205     1.0000 0.47030  0.46330  0.78440  Biso   1.000  C
  H194     1.0000 0.48260  0.43580  0.84320  Biso   1.000  H
  C206     1.0000 0.41430  0.46280  0.75210  Biso   1.000  C
  C207     1.0000 0.38070  0.42210  0.80590  Biso   1.000  C
  H195     1.0000 0.39620  0.39690  0.86670  Biso   1.000  H
  C208     1.0000 0.32730  0.41690  0.77550  Biso   1.000  C
  C209     1.0000 0.30370  0.45440  0.68740  Biso   1.000  C
  H196     1.0000 0.26700  0.45110  0.66610  Biso   1.000  H
  C210     1.0000 0.33310  0.49790  0.62760  Biso   1.000  C
  C211     1.0000 0.38980  0.50180  0.66150  Biso   1.000  C
  C212     1.0000 0.29600  0.37270  0.84550  Biso   1.000  C
  C213     1.0000 0.59180  0.53870  0.76700  Biso   1.000  C
  H197     1.0000 0.58030  0.55310  0.85950  Biso   1.000  H
  C214     1.0000 0.67170  0.49560  0.89610  Biso   1.000  C
  H198     1.0000 0.65980  0.51050  0.98640  Biso   1.000  H
  H199     1.0000 0.71070  0.49090  0.89870  Biso   1.000  H
  C215     1.0000 0.64270  0.44150  0.86520  Biso   1.000  C
  H200     1.0000 0.65260  0.42940  0.77030  Biso   1.000  H
  H201     1.0000 0.65540  0.41480  0.93280  Biso   1.000  H
  C216     1.0000 0.56490  0.48270  0.74770  Biso   1.000  C
  H202     1.0000 0.57630  0.46650  0.65730  Biso   1.000  H
  C217     1.0000 0.65490  0.53250  0.77010  Biso   1.000  C
  H203     1.0000 0.67160  0.56750  0.78110  Biso   1.000  H
  H204     1.0000 0.66730  0.51710  0.68080  Biso   1.000  H
  C218     1.0000 0.57990  0.44530  0.87500  Biso   1.000  C
  H205     1.0000 0.56320  0.41030  0.86460  Biso   1.000  H
  H206     1.0000 0.56870  0.46090  0.96520  Biso   1.000  H
  C219     1.0000 0.63720  0.46540  0.94190  Biso   1.000  C
  H207     1.0000 0.65130  0.43350  0.98830  Biso   1.000  H
  H208     1.0000 0.63050  0.49290  0.01300  Biso   1.000  H
  C220     1.0000 0.55790  0.50700  0.82510  Biso   1.000  C
  H209     1.0000 0.54020  0.52300  0.90660  Biso   1.000  H
  C221     1.0000 0.59920  0.52070  0.70750  Biso   1.000  C
  H210     1.0000 0.59000  0.48890  0.65500  Biso   1.000  H
  C222     1.0000 0.67530  0.48540  0.82450  Biso   1.000  C
  H211     1.0000 0.71230  0.48930  0.85780  Biso   1.000  H
  H212     1.0000 0.67450  0.46250  0.74070  Biso   1.000  H
  C223     1.0000 0.64780  0.53980  0.79800  Biso   1.000  C
  H213     1.0000 0.63630  0.55660  0.88650  Biso   1.000  H
  H214     1.0000 0.67110  0.56420  0.74580  Biso   1.000  H
  C224     1.0000 0.58580  0.45280  0.85400  Biso   1.000  C
  H215     1.0000 0.56190  0.42930  0.90780  Biso   1.000  H
  H216     1.0000 0.59540  0.43530  0.76550  Biso   1.000  H
  O49      1.0000 0.75000  0.75000  0.00000  Biso   1.000  O
  O50      1.0000 0.25000  0.25000  0.00000  Biso   1.000  O
