data_image0
_cell_length_a       16.6901
_cell_length_b       16.6901
_cell_length_c       14.0567
_cell_angle_alpha    90
_cell_angle_beta     90
_cell_angle_gamma    90

_symmetry_space_group_name_H-M    "P 1"
_symmetry_int_tables_number       1

loop_
  _symmetry_equiv_pos_as_xyz
  'x, y, z'

loop_
  _atom_site_label
  _atom_site_occupancy
  _atom_site_fract_x
  _atom_site_fract_y
  _atom_site_fract_z
  _atom_site_thermal_displace_type
  _atom_site_B_iso_or_equiv
  _atom_site_type_symbol
  C1       1.0000 0.06210  0.97410  0.20200  Biso   1.000  C
  H1       1.0000 0.10650  0.95550  0.23540  Biso   1.000  H
  C2       1.0000 0.06500  0.97310  0.10280  Biso   1.000  C
  H2       1.0000 0.11030  0.95450  0.07140  Biso   1.000  H
  C3       1.0000 0.93790  0.02590  0.20200  Biso   1.000  C
  H3       1.0000 0.89350  0.04450  0.23540  Biso   1.000  H
  C4       1.0000 0.93500  0.02690  0.10280  Biso   1.000  C
  H4       1.0000 0.88970  0.04550  0.07140  Biso   1.000  H
  C5       1.0000 0.02590  0.06210  0.20200  Biso   1.000  C
  H5       1.0000 0.04450  0.10650  0.23540  Biso   1.000  H
  C6       1.0000 0.02690  0.06500  0.10280  Biso   1.000  C
  H6       1.0000 0.04550  0.11030  0.07140  Biso   1.000  H
  C7       1.0000 0.97410  0.93790  0.20200  Biso   1.000  C
  H7       1.0000 0.95550  0.89350  0.23540  Biso   1.000  H
  C8       1.0000 0.97310  0.93500  0.10280  Biso   1.000  C
  H8       1.0000 0.95450  0.88970  0.07140  Biso   1.000  H
  C9       1.0000 0.93790  0.97410  0.79800  Biso   1.000  C
  H9       1.0000 0.89350  0.95550  0.76460  Biso   1.000  H
  C10      1.0000 0.93500  0.97310  0.89720  Biso   1.000  C
  H10      1.0000 0.88970  0.95450  0.92860  Biso   1.000  H
  C11      1.0000 0.06210  0.02590  0.79800  Biso   1.000  C
  H11      1.0000 0.10650  0.04450  0.76460  Biso   1.000  H
  C12      1.0000 0.06500  0.02690  0.89720  Biso   1.000  C
  H12      1.0000 0.11030  0.04550  0.92860  Biso   1.000  H
  C13      1.0000 0.97410  0.06210  0.79800  Biso   1.000  C
  H13      1.0000 0.95550  0.10650  0.76460  Biso   1.000  H
  C14      1.0000 0.97310  0.06500  0.89720  Biso   1.000  C
  H14      1.0000 0.95450  0.11030  0.92860  Biso   1.000  H
  C15      1.0000 0.02590  0.93790  0.79800  Biso   1.000  C
  H15      1.0000 0.04450  0.89350  0.76460  Biso   1.000  H
  C16      1.0000 0.02690  0.93500  0.89720  Biso   1.000  C
  H16      1.0000 0.04550  0.88970  0.92860  Biso   1.000  H
  C17      1.0000 0.93790  0.02590  0.79800  Biso   1.000  C
  H17      1.0000 0.89350  0.04450  0.76460  Biso   1.000  H
  C18      1.0000 0.93500  0.02690  0.89720  Biso   1.000  C
  H18      1.0000 0.88970  0.04550  0.92860  Biso   1.000  H
  C19      1.0000 0.06210  0.97410  0.79800  Biso   1.000  C
  H19      1.0000 0.10650  0.95550  0.76460  Biso   1.000  H
  C20      1.0000 0.06500  0.97310  0.89720  Biso   1.000  C
  H20      1.0000 0.11030  0.95450  0.92860  Biso   1.000  H
  C21      1.0000 0.97410  0.93790  0.79800  Biso   1.000  C
  H21      1.0000 0.95550  0.89350  0.76460  Biso   1.000  H
  C22      1.0000 0.97310  0.93500  0.89720  Biso   1.000  C
  H22      1.0000 0.95450  0.88970  0.92860  Biso   1.000  H
  C23      1.0000 0.02590  0.06210  0.79800  Biso   1.000  C
  H23      1.0000 0.04450  0.10650  0.76460  Biso   1.000  H
  C24      1.0000 0.02690  0.06500  0.89720  Biso   1.000  C
  H24      1.0000 0.04550  0.11030  0.92860  Biso   1.000  H
  C25      1.0000 0.06210  0.02590  0.20200  Biso   1.000  C
  H25      1.0000 0.10650  0.04450  0.23540  Biso   1.000  H
  C26      1.0000 0.06500  0.02690  0.10280  Biso   1.000  C
  H26      1.0000 0.11030  0.04550  0.07140  Biso   1.000  H
  C27      1.0000 0.93790  0.97410  0.20200  Biso   1.000  C
  H27      1.0000 0.89350  0.95550  0.23540  Biso   1.000  H
  C28      1.0000 0.93500  0.97310  0.10280  Biso   1.000  C
  H28      1.0000 0.88970  0.95450  0.07140  Biso   1.000  H
  C29      1.0000 0.02590  0.93790  0.20200  Biso   1.000  C
  H29      1.0000 0.04450  0.89350  0.23540  Biso   1.000  H
  C30      1.0000 0.02690  0.93500  0.10280  Biso   1.000  C
  H30      1.0000 0.04550  0.88970  0.07140  Biso   1.000  H
  C31      1.0000 0.97410  0.06210  0.20200  Biso   1.000  C
  H31      1.0000 0.95550  0.10650  0.23540  Biso   1.000  H
  C32      1.0000 0.97310  0.06500  0.10280  Biso   1.000  C
  H32      1.0000 0.95450  0.11030  0.07140  Biso   1.000  H
  V1       1.0000 0.50000  0.50000  0.53560  Biso   1.000  V
  V2       1.0000 0.50000  0.50000  0.46440  Biso   1.000  V
  Zn1      1.0000 0.00000  0.00000  0.39567  Biso   1.000  Zn
  N1       1.0000 0.00000  0.00000  0.25082  Biso   1.000  N
  C33      1.0000 0.00000  0.00000  0.05260  Biso   1.000  C
  Zn2      1.0000 0.00000  0.00000  0.60433  Biso   1.000  Zn
  N2       1.0000 0.00000  0.00000  0.74918  Biso   1.000  N
  C34      1.0000 0.00000  0.00000  0.94740  Biso   1.000  C
  O1       1.0000 0.91515  0.91515  0.42135  Biso   1.000  O
  C35      1.0000 0.73911  0.73911  0.58308  Biso   1.000  C
  H33      1.0000 0.71970  0.71970  0.64060  Biso   1.000  H
  C36      1.0000 0.79787  0.79787  0.58353  Biso   1.000  C
  H34      1.0000 0.81730  0.81730  0.64110  Biso   1.000  H
  O2       1.0000 0.08485  0.08485  0.42135  Biso   1.000  O
  C37      1.0000 0.26089  0.26089  0.58308  Biso   1.000  C
  H35      1.0000 0.28030  0.28030  0.64060  Biso   1.000  H
  C38      1.0000 0.20213  0.20213  0.58353  Biso   1.000  C
  H36      1.0000 0.18270  0.18270  0.64110  Biso   1.000  H
  O3       1.0000 0.08485  0.91515  0.42135  Biso   1.000  O
  C39      1.0000 0.26089  0.73911  0.58308  Biso   1.000  C
  H37      1.0000 0.28030  0.71970  0.64060  Biso   1.000  H
  C40      1.0000 0.20213  0.79787  0.58353  Biso   1.000  C
  H38      1.0000 0.18270  0.81730  0.64110  Biso   1.000  H
  O4       1.0000 0.91515  0.08485  0.42135  Biso   1.000  O
  C41      1.0000 0.73911  0.26089  0.58308  Biso   1.000  C
  H39      1.0000 0.71970  0.28030  0.64060  Biso   1.000  H
  C42      1.0000 0.79787  0.20213  0.58353  Biso   1.000  C
  H40      1.0000 0.81730  0.18270  0.64110  Biso   1.000  H
  O5       1.0000 0.08485  0.91515  0.57865  Biso   1.000  O
  C43      1.0000 0.26089  0.73911  0.41692  Biso   1.000  C
  H41      1.0000 0.28030  0.71970  0.35940  Biso   1.000  H
  C44      1.0000 0.20213  0.79787  0.41647  Biso   1.000  C
  H42      1.0000 0.18270  0.81730  0.35890  Biso   1.000  H
  O6       1.0000 0.91515  0.08485  0.57865  Biso   1.000  O
  C45      1.0000 0.73911  0.26089  0.41692  Biso   1.000  C
  H43      1.0000 0.71970  0.28030  0.35940  Biso   1.000  H
  C46      1.0000 0.79787  0.20213  0.41647  Biso   1.000  C
  H44      1.0000 0.81730  0.18270  0.35890  Biso   1.000  H
  O7       1.0000 0.91515  0.91515  0.57865  Biso   1.000  O
  C47      1.0000 0.73911  0.73911  0.41692  Biso   1.000  C
  H45      1.0000 0.71970  0.71970  0.35940  Biso   1.000  H
  C48      1.0000 0.79787  0.79787  0.41647  Biso   1.000  C
  H46      1.0000 0.81730  0.81730  0.35890  Biso   1.000  H
  O8       1.0000 0.08485  0.08485  0.57865  Biso   1.000  O
  C49      1.0000 0.26089  0.26089  0.41692  Biso   1.000  C
  H47      1.0000 0.28030  0.28030  0.35940  Biso   1.000  H
  C50      1.0000 0.20213  0.20213  0.41647  Biso   1.000  C
  H48      1.0000 0.18270  0.18270  0.35890  Biso   1.000  H
  N3       1.0000 0.50000  0.62110  0.50000  Biso   1.000  N
  N4       1.0000 0.50000  0.37890  0.50000  Biso   1.000  N
  N5       1.0000 0.37890  0.50000  0.50000  Biso   1.000  N
  N6       1.0000 0.62110  0.50000  0.50000  Biso   1.000  N
  C51      1.0000 0.56609  0.67076  0.50000  Biso   1.000  C
  C52      1.0000 0.54034  0.75271  0.50000  Biso   1.000  C
  H49      1.0000 0.57330  0.79760  0.50000  Biso   1.000  H
  C53      1.0000 0.43391  0.32924  0.50000  Biso   1.000  C
  C54      1.0000 0.45966  0.24729  0.50000  Biso   1.000  C
  H50      1.0000 0.42670  0.20240  0.50000  Biso   1.000  H
  C55      1.0000 0.32924  0.56609  0.50000  Biso   1.000  C
  C56      1.0000 0.24729  0.54034  0.50000  Biso   1.000  C
  H51      1.0000 0.20240  0.57330  0.50000  Biso   1.000  H
  C57      1.0000 0.67076  0.43391  0.50000  Biso   1.000  C
  C58      1.0000 0.75271  0.45966  0.50000  Biso   1.000  C
  H52      1.0000 0.79760  0.42670  0.50000  Biso   1.000  H
  C59      1.0000 0.43391  0.67076  0.50000  Biso   1.000  C
  C60      1.0000 0.45966  0.75271  0.50000  Biso   1.000  C
  H53      1.0000 0.42670  0.79760  0.50000  Biso   1.000  H
  C61      1.0000 0.56609  0.32924  0.50000  Biso   1.000  C
  C62      1.0000 0.54034  0.24729  0.50000  Biso   1.000  C
  H54      1.0000 0.57330  0.20240  0.50000  Biso   1.000  H
  C63      1.0000 0.67076  0.56609  0.50000  Biso   1.000  C
  C64      1.0000 0.75271  0.54034  0.50000  Biso   1.000  C
  H55      1.0000 0.79760  0.57330  0.50000  Biso   1.000  H
  C65      1.0000 0.32924  0.43391  0.50000  Biso   1.000  C
  C66      1.0000 0.24729  0.45966  0.50000  Biso   1.000  C
  H56      1.0000 0.20240  0.42670  0.50000  Biso   1.000  H
  C67      1.0000 0.64602  0.64602  0.50000  Biso   1.000  C
  C68      1.0000 0.70918  0.70918  0.50000  Biso   1.000  C
  C69      1.0000 0.82756  0.82756  0.50000  Biso   1.000  C
  C70      1.0000 0.89105  0.89105  0.50000  Biso   1.000  C
  C71      1.0000 0.35398  0.35398  0.50000  Biso   1.000  C
  C72      1.0000 0.29082  0.29082  0.50000  Biso   1.000  C
  C73      1.0000 0.17244  0.17244  0.50000  Biso   1.000  C
  C74      1.0000 0.10895  0.10895  0.50000  Biso   1.000  C
  C75      1.0000 0.35398  0.64602  0.50000  Biso   1.000  C
  C76      1.0000 0.29082  0.70918  0.50000  Biso   1.000  C
  C77      1.0000 0.17244  0.82756  0.50000  Biso   1.000  C
  C78      1.0000 0.10895  0.89105  0.50000  Biso   1.000  C
  C79      1.0000 0.64602  0.35398  0.50000  Biso   1.000  C
  C80      1.0000 0.70918  0.29082  0.50000  Biso   1.000  C
  C81      1.0000 0.82756  0.17244  0.50000  Biso   1.000  C
  C82      1.0000 0.89105  0.10895  0.50000  Biso   1.000  C
