data_image0
_cell_length_a       11.8325
_cell_length_b       14.5026
_cell_length_c       21.1003
_cell_angle_alpha    90
_cell_angle_beta     100.648
_cell_angle_gamma    90

_symmetry_space_group_name_H-M    "P 1"
_symmetry_int_tables_number       1

loop_
  _symmetry_equiv_pos_as_xyz
  'x, y, z'

loop_
  _atom_site_label
  _atom_site_occupancy
  _atom_site_fract_x
  _atom_site_fract_y
  _atom_site_fract_z
  _atom_site_thermal_displace_type
  _atom_site_B_iso_or_equiv
  _atom_site_type_symbol
  Cd1      1.0000 0.57079  0.22745  0.94922  Biso   1.000  Cd
  N1       1.0000 0.92460  0.85570  0.24770  Biso   1.000  N
  C1       1.0000 0.11000  0.48000  0.01900  Biso   1.000  C
  O1       1.0000 0.64830  0.10540  0.01750  Biso   1.000  O
  O2       1.0000 0.69190  0.24530  0.05180  Biso   1.000  O
  O3       1.0000 0.98370  0.47150  0.39600  Biso   1.000  O
  O4       1.0000 0.00650  0.33700  0.35510  Biso   1.000  O
  O5       1.0000 0.37340  0.09900  0.01000  Biso   1.000  O
  O6       1.0000 0.40550  0.24360  0.98700  Biso   1.000  O
  C2       1.0000 0.85000  0.89000  0.19000  Biso   1.000  C
  C3       1.0000 0.79100  0.82800  0.15200  Biso   1.000  C
  H1       1.0000 0.74200  0.84890  0.11510  Biso   1.000  H
  C4       1.0000 0.80400  0.73400  0.16300  Biso   1.000  C
  H2       1.0000 0.76110  0.69230  0.13490  Biso   1.000  H
  C5       1.0000 0.87800  0.70100  0.21700  Biso   1.000  C
  C6       1.0000 0.94340  0.76300  0.25840  Biso   1.000  C
  H3       1.0000 0.99830  0.74220  0.29280  Biso   1.000  H
  C7       1.0000 0.69950  0.15930  0.06010  Biso   1.000  C
  C8       1.0000 0.77030  0.12350  0.11930  Biso   1.000  C
  C9       1.0000 0.78430  0.02830  0.12760  Biso   1.000  C
  H4       1.0000 0.75030  0.98850  0.09500  Biso   1.000  H
  C10      1.0000 0.85040  0.99150  0.18580  Biso   1.000  C
  C11      1.0000 0.89440  0.05120  0.23170  Biso   1.000  C
  H5       1.0000 0.93910  0.02790  0.26920  Biso   1.000  H
  C12      1.0000 0.87790  0.14800  0.22720  Biso   1.000  C
  H6       1.0000 0.90840  0.18680  0.26110  Biso   1.000  H
  C13      1.0000 0.81680  0.18160  0.17230  Biso   1.000  C
  H7       1.0000 0.80430  0.24480  0.16860  Biso   1.000  H
  C14      1.0000 0.98740  0.42100  0.35140  Biso   1.000  C
  C15      1.0000 0.96630  0.46630  0.28650  Biso   1.000  C
  C16      1.0000 0.94560  0.55980  0.27760  Biso   1.000  C
  H8       1.0000 0.94250  0.59620  0.31360  Biso   1.000  H
  C17      1.0000 0.93000  0.59930  0.22060  Biso   1.000  C
  C18      1.0000 0.93560  0.55210  0.16830  Biso   1.000  C
  H9       1.0000 0.93440  0.58200  0.12920  Biso   1.000  H
  C19      1.0000 0.94380  0.45360  0.17250  Biso   1.000  C
  H10      1.0000 0.92920  0.41640  0.13600  Biso   1.000  H
  C20      1.0000 0.97490  0.41650  0.23430  Biso   1.000  C
  H11      1.0000 0.00200  0.35630  0.23930  Biso   1.000  H
  C21      1.0000 0.03750  0.41050  0.01280  Biso   1.000  C
  C22      1.0000 0.07580  0.57320  0.00570  Biso   1.000  C
  H12      1.0000 0.12910  0.62090  0.00940  Biso   1.000  H
  C23      1.0000 0.35120  0.18340  0.00590  Biso   1.000  C
  C24      1.0000 0.23710  0.20570  0.02210  Biso   1.000  C
  C25      1.0000 0.19250  0.29410  0.01150  Biso   1.000  C
  H13      1.0000 0.23640  0.33890  0.99590  Biso   1.000  H
  C26      1.0000 0.08320  0.31820  0.02360  Biso   1.000  C
  C27      1.0000 0.01590  0.24840  0.04570  Biso   1.000  C
  H14      1.0000 0.94230  0.26290  0.05230  Biso   1.000  H
  C28      1.0000 0.05490  0.16220  0.05740  Biso   1.000  C
  H15      1.0000 0.01000  0.11750  0.07250  Biso   1.000  H
  C29      1.0000 0.17240  0.13980  0.04550  Biso   1.000  C
  H16      1.0000 0.20200  0.08080  0.05410  Biso   1.000  H
  C30      1.0000 0.88000  0.89000  0.19000  Biso   1.000  C
  C31      1.0000 0.85700  0.82800  0.13800  Biso   1.000  C
  H17      1.0000 0.82450  0.84860  0.09710  Biso   1.000  H
  C32      1.0000 0.88200  0.73500  0.14700  Biso   1.000  C
  H18      1.0000 0.86720  0.69460  0.11180  Biso   1.000  H
  C33      1.0000 0.92800  0.70200  0.20700  Biso   1.000  C
  H19      1.0000 0.18890  0.46860  0.03370  Biso   1.000  H
  N2       1.0000 0.89000  0.52000  0.98100  Biso   1.000  N
  Cd2      1.0000 0.92921  0.72745  0.55078  Biso   1.000  Cd
  N3       1.0000 0.57540  0.35570  0.25230  Biso   1.000  N
  C34      1.0000 0.39000  0.98000  0.48100  Biso   1.000  C
  O7       1.0000 0.85170  0.60540  0.48250  Biso   1.000  O
  O8       1.0000 0.80810  0.74530  0.44820  Biso   1.000  O
  O9       1.0000 0.51630  0.97150  0.10400  Biso   1.000  O
  O10      1.0000 0.49350  0.83700  0.14490  Biso   1.000  O
  O11      1.0000 0.12660  0.59900  0.49000  Biso   1.000  O
  O12      1.0000 0.09450  0.74360  0.51300  Biso   1.000  O
  C35      1.0000 0.65000  0.39000  0.31000  Biso   1.000  C
  C36      1.0000 0.70900  0.32800  0.34800  Biso   1.000  C
  H20      1.0000 0.75800  0.34890  0.38490  Biso   1.000  H
  C37      1.0000 0.69600  0.23400  0.33700  Biso   1.000  C
  H21      1.0000 0.73890  0.19230  0.36510  Biso   1.000  H
  C38      1.0000 0.62200  0.20100  0.28300  Biso   1.000  C
  C39      1.0000 0.55660  0.26300  0.24160  Biso   1.000  C
  H22      1.0000 0.50170  0.24220  0.20720  Biso   1.000  H
  C40      1.0000 0.80050  0.65930  0.43990  Biso   1.000  C
  C41      1.0000 0.72970  0.62350  0.38070  Biso   1.000  C
  C42      1.0000 0.71570  0.52830  0.37240  Biso   1.000  C
  H23      1.0000 0.74970  0.48850  0.40500  Biso   1.000  H
  C43      1.0000 0.64960  0.49150  0.31420  Biso   1.000  C
  C44      1.0000 0.60560  0.55120  0.26830  Biso   1.000  C
  H24      1.0000 0.56090  0.52790  0.23080  Biso   1.000  H
  C45      1.0000 0.62210  0.64800  0.27280  Biso   1.000  C
  H25      1.0000 0.59160  0.68680  0.23890  Biso   1.000  H
  C46      1.0000 0.68320  0.68160  0.32770  Biso   1.000  C
  H26      1.0000 0.69570  0.74480  0.33140  Biso   1.000  H
  C47      1.0000 0.51260  0.92100  0.14860  Biso   1.000  C
  C48      1.0000 0.53370  0.96630  0.21350  Biso   1.000  C
  C49      1.0000 0.55440  0.05980  0.22240  Biso   1.000  C
  H27      1.0000 0.55750  0.09620  0.18640  Biso   1.000  H
  C50      1.0000 0.57000  0.09930  0.27940  Biso   1.000  C
  C51      1.0000 0.56440  0.05210  0.33170  Biso   1.000  C
  H28      1.0000 0.56560  0.08200  0.37080  Biso   1.000  H
  C52      1.0000 0.55620  0.95360  0.32750  Biso   1.000  C
  H29      1.0000 0.57080  0.91640  0.36400  Biso   1.000  H
  C53      1.0000 0.52510  0.91650  0.26570  Biso   1.000  C
  H30      1.0000 0.49800  0.85630  0.26070  Biso   1.000  H
  C54      1.0000 0.46250  0.91050  0.48720  Biso   1.000  C
  C55      1.0000 0.42420  0.07320  0.49430  Biso   1.000  C
  H31      1.0000 0.37090  0.12090  0.49060  Biso   1.000  H
  C56      1.0000 0.14880  0.68340  0.49410  Biso   1.000  C
  C57      1.0000 0.26290  0.70570  0.47790  Biso   1.000  C
  C58      1.0000 0.30750  0.79410  0.48850  Biso   1.000  C
  H32      1.0000 0.26360  0.83890  0.50410  Biso   1.000  H
  C59      1.0000 0.41680  0.81820  0.47640  Biso   1.000  C
  C60      1.0000 0.48410  0.74840  0.45430  Biso   1.000  C
  H33      1.0000 0.55770  0.76290  0.44770  Biso   1.000  H
  C61      1.0000 0.44510  0.66220  0.44260  Biso   1.000  C
  H34      1.0000 0.49000  0.61750  0.42750  Biso   1.000  H
  C62      1.0000 0.32760  0.63980  0.45450  Biso   1.000  C
  H35      1.0000 0.29800  0.58080  0.44590  Biso   1.000  H
  C63      1.0000 0.62000  0.39000  0.31000  Biso   1.000  C
  C64      1.0000 0.64300  0.32800  0.36200  Biso   1.000  C
  H36      1.0000 0.67550  0.34860  0.40290  Biso   1.000  H
  C65      1.0000 0.61800  0.23500  0.35300  Biso   1.000  C
  H37      1.0000 0.63280  0.19460  0.38820  Biso   1.000  H
  C66      1.0000 0.57200  0.20200  0.29300  Biso   1.000  C
  H38      1.0000 0.31110  0.96860  0.46630  Biso   1.000  H
  N4       1.0000 0.61000  0.02000  0.51900  Biso   1.000  N
  Cd3      1.0000 0.42921  0.77255  0.05078  Biso   1.000  Cd
  N5       1.0000 0.07540  0.14430  0.75230  Biso   1.000  N
  O13      1.0000 0.35170  0.89460  0.98250  Biso   1.000  O
  O14      1.0000 0.30810  0.75470  0.94820  Biso   1.000  O
  O15      1.0000 0.01630  0.52850  0.60400  Biso   1.000  O
  O16      1.0000 0.99350  0.66300  0.64490  Biso   1.000  O
  O17      1.0000 0.62660  0.90100  0.99000  Biso   1.000  O
  O18      1.0000 0.59450  0.75640  0.01300  Biso   1.000  O
  C67      1.0000 0.15000  0.11000  0.81000  Biso   1.000  C
  C68      1.0000 0.20900  0.17200  0.84800  Biso   1.000  C
  H39      1.0000 0.25800  0.15110  0.88490  Biso   1.000  H
  C69      1.0000 0.19600  0.26600  0.83700  Biso   1.000  C
  H40      1.0000 0.23890  0.30770  0.86510  Biso   1.000  H
  C70      1.0000 0.12200  0.29900  0.78300  Biso   1.000  C
  C71      1.0000 0.05660  0.23700  0.74160  Biso   1.000  C
  H41      1.0000 0.00170  0.25780  0.70720  Biso   1.000  H
  C72      1.0000 0.30050  0.84070  0.93990  Biso   1.000  C
  C73      1.0000 0.22970  0.87650  0.88070  Biso   1.000  C
  C74      1.0000 0.21570  0.97170  0.87240  Biso   1.000  C
  H42      1.0000 0.24970  0.01150  0.90500  Biso   1.000  H
  C75      1.0000 0.14960  0.00850  0.81420  Biso   1.000  C
  C76      1.0000 0.10560  0.94880  0.76830  Biso   1.000  C
  H43      1.0000 0.06090  0.97210  0.73080  Biso   1.000  H
  C77      1.0000 0.12210  0.85200  0.77280  Biso   1.000  C
  H44      1.0000 0.09160  0.81320  0.73890  Biso   1.000  H
  C78      1.0000 0.18320  0.81840  0.82770  Biso   1.000  C
  H45      1.0000 0.19570  0.75520  0.83140  Biso   1.000  H
  C79      1.0000 0.01260  0.57900  0.64860  Biso   1.000  C
  C80      1.0000 0.03370  0.53370  0.71350  Biso   1.000  C
  C81      1.0000 0.05440  0.44020  0.72240  Biso   1.000  C
  H46      1.0000 0.05750  0.40380  0.68640  Biso   1.000  H
  C82      1.0000 0.07000  0.40070  0.77940  Biso   1.000  C
  C83      1.0000 0.06440  0.44790  0.83170  Biso   1.000  C
  H47      1.0000 0.06560  0.41800  0.87080  Biso   1.000  H
  C84      1.0000 0.05620  0.54640  0.82750  Biso   1.000  C
  H48      1.0000 0.07080  0.58360  0.86400  Biso   1.000  H
  C85      1.0000 0.02510  0.58350  0.76570  Biso   1.000  C
  H49      1.0000 0.99800  0.64370  0.76070  Biso   1.000  H
  C86      1.0000 0.96250  0.58950  0.98720  Biso   1.000  C
  C87      1.0000 0.92420  0.42680  0.99430  Biso   1.000  C
  H50      1.0000 0.87090  0.37910  0.99060  Biso   1.000  H
  C88      1.0000 0.64880  0.81660  0.99410  Biso   1.000  C
  C89      1.0000 0.76290  0.79430  0.97790  Biso   1.000  C
  C90      1.0000 0.80750  0.70590  0.98850  Biso   1.000  C
  H51      1.0000 0.76360  0.66110  0.00410  Biso   1.000  H
  C91      1.0000 0.91680  0.68180  0.97640  Biso   1.000  C
  C92      1.0000 0.98410  0.75160  0.95430  Biso   1.000  C
  H52      1.0000 0.05770  0.73710  0.94770  Biso   1.000  H
  C93      1.0000 0.94510  0.83780  0.94260  Biso   1.000  C
  H53      1.0000 0.99000  0.88250  0.92750  Biso   1.000  H
  C94      1.0000 0.82760  0.86020  0.95450  Biso   1.000  C
  H54      1.0000 0.79800  0.91920  0.94590  Biso   1.000  H
  C95      1.0000 0.12000  0.11000  0.81000  Biso   1.000  C
  C96      1.0000 0.14300  0.17200  0.86200  Biso   1.000  C
  H55      1.0000 0.17550  0.15140  0.90290  Biso   1.000  H
  C97      1.0000 0.11800  0.26500  0.85300  Biso   1.000  C
  H56      1.0000 0.13280  0.30540  0.88820  Biso   1.000  H
  C98      1.0000 0.07200  0.29800  0.79300  Biso   1.000  C
  H57      1.0000 0.81110  0.53140  0.96630  Biso   1.000  H
  Cd4      1.0000 0.07079  0.27255  0.44922  Biso   1.000  Cd
  N6       1.0000 0.42460  0.64430  0.74770  Biso   1.000  N
  O19      1.0000 0.14830  0.39460  0.51750  Biso   1.000  O
  O20      1.0000 0.19190  0.25470  0.55180  Biso   1.000  O
  O21      1.0000 0.48370  0.02850  0.89600  Biso   1.000  O
  O22      1.0000 0.50650  0.16300  0.85510  Biso   1.000  O
  O23      1.0000 0.87340  0.40100  0.51000  Biso   1.000  O
  O24      1.0000 0.90550  0.25640  0.48700  Biso   1.000  O
  C99      1.0000 0.35000  0.61000  0.69000  Biso   1.000  C
  C100     1.0000 0.29100  0.67200  0.65200  Biso   1.000  C
  H58      1.0000 0.24200  0.65110  0.61510  Biso   1.000  H
  C101     1.0000 0.30400  0.76600  0.66300  Biso   1.000  C
  H59      1.0000 0.26110  0.80770  0.63490  Biso   1.000  H
  C102     1.0000 0.37800  0.79900  0.71700  Biso   1.000  C
  C103     1.0000 0.44340  0.73700  0.75840  Biso   1.000  C
  H60      1.0000 0.49830  0.75780  0.79280  Biso   1.000  H
  C104     1.0000 0.19950  0.34070  0.56010  Biso   1.000  C
  C105     1.0000 0.27030  0.37650  0.61930  Biso   1.000  C
  C106     1.0000 0.28430  0.47170  0.62760  Biso   1.000  C
  H61      1.0000 0.25030  0.51150  0.59500  Biso   1.000  H
  C107     1.0000 0.35040  0.50850  0.68580  Biso   1.000  C
  C108     1.0000 0.39440  0.44880  0.73170  Biso   1.000  C
  H62      1.0000 0.43910  0.47210  0.76920  Biso   1.000  H
  C109     1.0000 0.37790  0.35200  0.72720  Biso   1.000  C
  H63      1.0000 0.40840  0.31320  0.76110  Biso   1.000  H
  C110     1.0000 0.31680  0.31840  0.67230  Biso   1.000  C
  H64      1.0000 0.30430  0.25520  0.66860  Biso   1.000  H
  C111     1.0000 0.48740  0.07900  0.85140  Biso   1.000  C
  C112     1.0000 0.46630  0.03370  0.78650  Biso   1.000  C
  C113     1.0000 0.44560  0.94020  0.77760  Biso   1.000  C
  H65      1.0000 0.44250  0.90380  0.81360  Biso   1.000  H
  C114     1.0000 0.43000  0.90070  0.72060  Biso   1.000  C
  C115     1.0000 0.43560  0.94790  0.66830  Biso   1.000  C
  H66      1.0000 0.43440  0.91800  0.62920  Biso   1.000  H
  C116     1.0000 0.44380  0.04640  0.67250  Biso   1.000  C
  H67      1.0000 0.42920  0.08360  0.63600  Biso   1.000  H
  C117     1.0000 0.47490  0.08350  0.73430  Biso   1.000  C
  H68      1.0000 0.50200  0.14370  0.73930  Biso   1.000  H
  C118     1.0000 0.53750  0.08950  0.51280  Biso   1.000  C
  C119     1.0000 0.57580  0.92680  0.50570  Biso   1.000  C
  H69      1.0000 0.62910  0.87910  0.50940  Biso   1.000  H
  C120     1.0000 0.85120  0.31660  0.50590  Biso   1.000  C
  C121     1.0000 0.73710  0.29430  0.52210  Biso   1.000  C
  C122     1.0000 0.69250  0.20590  0.51150  Biso   1.000  C
  H70      1.0000 0.73640  0.16110  0.49590  Biso   1.000  H
  C123     1.0000 0.58320  0.18180  0.52360  Biso   1.000  C
  C124     1.0000 0.51590  0.25160  0.54570  Biso   1.000  C
  H71      1.0000 0.44230  0.23710  0.55230  Biso   1.000  H
  C125     1.0000 0.55490  0.33780  0.55740  Biso   1.000  C
  H72      1.0000 0.51000  0.38250  0.57250  Biso   1.000  H
  C126     1.0000 0.67240  0.36020  0.54550  Biso   1.000  C
  H73      1.0000 0.70200  0.41920  0.55410  Biso   1.000  H
  C127     1.0000 0.38000  0.61000  0.69000  Biso   1.000  C
  C128     1.0000 0.35700  0.67200  0.63800  Biso   1.000  C
  H74      1.0000 0.32450  0.65140  0.59710  Biso   1.000  H
  C129     1.0000 0.38200  0.76500  0.64700  Biso   1.000  C
  H75      1.0000 0.36720  0.80540  0.61180  Biso   1.000  H
  C130     1.0000 0.42800  0.79800  0.70700  Biso   1.000  C
  H76      1.0000 0.68890  0.03140  0.53370  Biso   1.000  H
  Cd5      1.0000 0.50000  0.00000  0.00000  Biso   1.000  Cd
  Cd6      1.0000 0.00000  0.50000  0.50000  Biso   1.000  Cd
