data_image0
_cell_length_a       8.0491
_cell_length_b       16.7053
_cell_length_c       27.17
_cell_angle_alpha    90
_cell_angle_beta     96.675
_cell_angle_gamma    90

_symmetry_space_group_name_H-M    "P 1"
_symmetry_int_tables_number       1

loop_
  _symmetry_equiv_pos_as_xyz
  'x, y, z'

loop_
  _atom_site_label
  _atom_site_occupancy
  _atom_site_fract_x
  _atom_site_fract_y
  _atom_site_fract_z
  _atom_site_thermal_displace_type
  _atom_site_B_iso_or_equiv
  _atom_site_type_symbol
  Tb1      1.0000 0.26113  0.51245  0.51830  Biso   1.000  Tb
  O1       1.0000 0.39550  0.07560  0.08404  Biso   1.000  O
  O2       1.0000 0.83720  0.87760  0.99767  Biso   1.000  O
  O3       1.0000 0.50980  0.08350  0.01367  Biso   1.000  O
  O4       1.0000 0.11630  0.86680  0.00257  Biso   1.000  O
  O5       1.0000 0.96660  0.49560  0.43743  Biso   1.000  O
  C1       1.0000 0.48630  0.11240  0.05680  Biso   1.000  C
  C2       1.0000 0.96210  0.75900  0.03100  Biso   1.000  C
  C3       1.0000 0.63730  0.24060  0.04090  Biso   1.000  C
  H1       1.0000 0.64010  0.22560  0.00810  Biso   1.000  H
  C4       1.0000 0.82040  0.71290  0.02160  Biso   1.000  C
  H2       1.0000 0.73480  0.72940  0.99780  Biso   1.000  H
  C5       1.0000 0.55440  0.21590  0.12140  Biso   1.000  C
  H3       1.0000 0.50040  0.18440  0.14280  Biso   1.000  H
  C6       1.0000 0.62510  0.28650  0.13780  Biso   1.000  C
  H4       1.0000 0.61900  0.30160  0.17050  Biso   1.000  H
  C7       1.0000 0.08670  0.49830  0.41138  Biso   1.000  C
  C8       1.0000 0.97320  0.84110  0.00780  Biso   1.000  C
  C9       1.0000 0.04670  0.49670  0.35550  Biso   1.000  C
  C10      1.0000 0.56180  0.19030  0.07260  Biso   1.000  C
  C11      1.0000 0.09230  0.73250  0.06560  Biso   1.000  C
  H5       1.0000 0.19120  0.76160  0.07060  Biso   1.000  H
  C12      1.0000 0.97290  0.49040  0.25290  Biso   1.000  C
  C13      1.0000 0.92940  0.61740  0.08390  Biso   1.000  C
  C14      1.0000 0.70780  0.33770  0.10700  Biso   1.000  C
  C15      1.0000 0.90550  0.54570  0.11590  Biso   1.000  C
  C16      1.0000 0.80380  0.64230  0.04710  Biso   1.000  C
  H6       1.0000 0.70850  0.61100  0.03970  Biso   1.000  H
  C17      1.0000 0.92720  0.48610  0.19790  Biso   1.000  C
  C18      1.0000 0.79240  0.41220  0.12670  Biso   1.000  C
  C19      1.0000 0.82100  0.47600  0.09610  Biso   1.000  C
  H7       1.0000 0.78480  0.47320  0.06240  Biso   1.000  H
  C20      1.0000 0.70790  0.31230  0.05750  Biso   1.000  C
  H8       1.0000 0.75690  0.34480  0.03540  Biso   1.000  H
  C21      1.0000 0.85160  0.47640  0.28350  Biso   1.000  C
  H9       1.0000 0.74370  0.46430  0.26940  Biso   1.000  H
  C22      1.0000 0.13390  0.50890  0.27400  Biso   1.000  C
  H10      1.0000 0.21680  0.52000  0.25390  Biso   1.000  H
  C23      1.0000 0.07530  0.66290  0.09250  Biso   1.000  C
  H11      1.0000 0.16120  0.64670  0.11630  Biso   1.000  H
  C24      1.0000 0.88540  0.47950  0.33520  Biso   1.000  C
  H12      1.0000 0.80140  0.47030  0.35530  Biso   1.000  H
  C25      1.0000 0.17160  0.51080  0.32570  Biso   1.000  C
  H13      1.0000 0.28010  0.52150  0.33990  Biso   1.000  H
  C26      1.0000 0.84660  0.41820  0.17780  Biso   1.000  C
  H14      1.0000 0.82780  0.37570  0.19850  Biso   1.000  H
  C27      1.0000 0.95920  0.54960  0.16660  Biso   1.000  C
  H15      1.0000 0.01640  0.59460  0.17970  Biso   1.000  H
  O6       1.0000 0.23870  0.50370  0.42784  Biso   1.000  O
  O7       1.0000 0.21900  0.46700  0.44140  Biso   1.000  O
  Tb2      1.0000 0.73887  0.01245  0.98170  Biso   1.000  Tb
  O8       1.0000 0.60450  0.57560  0.41596  Biso   1.000  O
  O9       1.0000 0.16280  0.37760  0.50233  Biso   1.000  O
  O10      1.0000 0.49020  0.58350  0.48633  Biso   1.000  O
  O11      1.0000 0.88370  0.36680  0.49743  Biso   1.000  O
  O12      1.0000 0.03340  0.99560  0.06257  Biso   1.000  O
  C28      1.0000 0.51370  0.61240  0.44320  Biso   1.000  C
  C29      1.0000 0.03790  0.25900  0.46900  Biso   1.000  C
  C30      1.0000 0.36270  0.74060  0.45910  Biso   1.000  C
  H16      1.0000 0.35990  0.72560  0.49190  Biso   1.000  H
  C31      1.0000 0.17960  0.21290  0.47840  Biso   1.000  C
  H17      1.0000 0.26520  0.22940  0.50220  Biso   1.000  H
  C32      1.0000 0.44560  0.71590  0.37860  Biso   1.000  C
  H18      1.0000 0.49960  0.68440  0.35720  Biso   1.000  H
  C33      1.0000 0.37490  0.78650  0.36220  Biso   1.000  C
  H19      1.0000 0.38100  0.80160  0.32950  Biso   1.000  H
  C34      1.0000 0.91330  0.99830  0.08862  Biso   1.000  C
  C35      1.0000 0.02680  0.34110  0.49220  Biso   1.000  C
  C36      1.0000 0.95330  0.99670  0.14450  Biso   1.000  C
  C37      1.0000 0.43820  0.69030  0.42740  Biso   1.000  C
  C38      1.0000 0.90770  0.23250  0.43440  Biso   1.000  C
  H20      1.0000 0.80880  0.26160  0.42940  Biso   1.000  H
  C39      1.0000 0.02710  0.99040  0.24710  Biso   1.000  C
  C40      1.0000 0.07060  0.11740  0.41610  Biso   1.000  C
  C41      1.0000 0.29220  0.83770  0.39300  Biso   1.000  C
  C42      1.0000 0.09450  0.04570  0.38410  Biso   1.000  C
  C43      1.0000 0.19620  0.14230  0.45290  Biso   1.000  C
  H21      1.0000 0.29150  0.11100  0.46030  Biso   1.000  H
  C44      1.0000 0.07280  0.98610  0.30210  Biso   1.000  C
  C45      1.0000 0.20760  0.91220  0.37330  Biso   1.000  C
  C46      1.0000 0.17900  0.97600  0.40390  Biso   1.000  C
  H22      1.0000 0.21520  0.97320  0.43760  Biso   1.000  H
  C47      1.0000 0.29210  0.81230  0.44250  Biso   1.000  C
  H23      1.0000 0.24310  0.84480  0.46460  Biso   1.000  H
  C48      1.0000 0.14840  0.97640  0.21650  Biso   1.000  C
  H24      1.0000 0.25630  0.96430  0.23060  Biso   1.000  H
  C49      1.0000 0.86610  0.00890  0.22600  Biso   1.000  C
  H25      1.0000 0.78320  0.02000  0.24610  Biso   1.000  H
  C50      1.0000 0.92470  0.16290  0.40750  Biso   1.000  C
  H26      1.0000 0.83880  0.14670  0.38370  Biso   1.000  H
  C51      1.0000 0.11460  0.97950  0.16480  Biso   1.000  C
  H27      1.0000 0.19860  0.97030  0.14470  Biso   1.000  H
  C52      1.0000 0.82840  0.01080  0.17430  Biso   1.000  C
  H28      1.0000 0.71990  0.02150  0.16010  Biso   1.000  H
  C53      1.0000 0.15340  0.91820  0.32220  Biso   1.000  C
  H29      1.0000 0.17220  0.87570  0.30150  Biso   1.000  H
  C54      1.0000 0.04080  0.04960  0.33340  Biso   1.000  C
  H30      1.0000 0.98360  0.09460  0.32030  Biso   1.000  H
  O13      1.0000 0.76130  0.00370  0.07216  Biso   1.000  O
  O14      1.0000 0.78100  0.96700  0.05860  Biso   1.000  O
  Tb3      1.0000 0.73887  0.48755  0.48170  Biso   1.000  Tb
  O15      1.0000 0.60450  0.92440  0.91596  Biso   1.000  O
  O16      1.0000 0.16280  0.12240  0.00233  Biso   1.000  O
  O17      1.0000 0.49020  0.91650  0.98633  Biso   1.000  O
  O18      1.0000 0.88370  0.13320  0.99743  Biso   1.000  O
  O19      1.0000 0.03340  0.50440  0.56257  Biso   1.000  O
  C55      1.0000 0.51370  0.88760  0.94320  Biso   1.000  C
  C56      1.0000 0.03790  0.24100  0.96900  Biso   1.000  C
  C57      1.0000 0.36270  0.75940  0.95910  Biso   1.000  C
  H31      1.0000 0.35990  0.77440  0.99190  Biso   1.000  H
  C58      1.0000 0.17960  0.28710  0.97840  Biso   1.000  C
  H32      1.0000 0.26520  0.27060  0.00220  Biso   1.000  H
  C59      1.0000 0.44560  0.78410  0.87860  Biso   1.000  C
  H33      1.0000 0.49960  0.81560  0.85720  Biso   1.000  H
  C60      1.0000 0.37490  0.71350  0.86220  Biso   1.000  C
  H34      1.0000 0.38100  0.69840  0.82950  Biso   1.000  H
  C61      1.0000 0.91330  0.50170  0.58862  Biso   1.000  C
  C62      1.0000 0.02680  0.15890  0.99220  Biso   1.000  C
  C63      1.0000 0.95330  0.50330  0.64450  Biso   1.000  C
  C64      1.0000 0.43820  0.80970  0.92740  Biso   1.000  C
  C65      1.0000 0.90770  0.26750  0.93440  Biso   1.000  C
  H35      1.0000 0.80880  0.23840  0.92940  Biso   1.000  H
  C66      1.0000 0.02710  0.50960  0.74710  Biso   1.000  C
  C67      1.0000 0.07060  0.38260  0.91610  Biso   1.000  C
  C68      1.0000 0.29220  0.66230  0.89300  Biso   1.000  C
  C69      1.0000 0.09450  0.45430  0.88410  Biso   1.000  C
  C70      1.0000 0.19620  0.35770  0.95290  Biso   1.000  C
  H36      1.0000 0.29150  0.38900  0.96030  Biso   1.000  H
  C71      1.0000 0.07280  0.51390  0.80210  Biso   1.000  C
  C72      1.0000 0.20760  0.58780  0.87330  Biso   1.000  C
  C73      1.0000 0.17900  0.52400  0.90390  Biso   1.000  C
  H37      1.0000 0.21520  0.52680  0.93760  Biso   1.000  H
  C74      1.0000 0.29210  0.68770  0.94250  Biso   1.000  C
  H38      1.0000 0.24310  0.65520  0.96460  Biso   1.000  H
  C75      1.0000 0.14840  0.52360  0.71650  Biso   1.000  C
  H39      1.0000 0.25630  0.53570  0.73060  Biso   1.000  H
  C76      1.0000 0.86610  0.49110  0.72600  Biso   1.000  C
  H40      1.0000 0.78320  0.48000  0.74610  Biso   1.000  H
  C77      1.0000 0.92470  0.33710  0.90750  Biso   1.000  C
  H41      1.0000 0.83880  0.35330  0.88370  Biso   1.000  H
  C78      1.0000 0.11460  0.52050  0.66480  Biso   1.000  C
  H42      1.0000 0.19860  0.52970  0.64470  Biso   1.000  H
  C79      1.0000 0.82840  0.48920  0.67430  Biso   1.000  C
  H43      1.0000 0.71990  0.47850  0.66010  Biso   1.000  H
  C80      1.0000 0.15340  0.58180  0.82220  Biso   1.000  C
  H44      1.0000 0.17220  0.62430  0.80150  Biso   1.000  H
  C81      1.0000 0.04080  0.45040  0.83340  Biso   1.000  C
  H45      1.0000 0.98360  0.40540  0.82030  Biso   1.000  H
  O20      1.0000 0.76130  0.49630  0.57216  Biso   1.000  O
  O21      1.0000 0.78100  0.53300  0.55860  Biso   1.000  O
  Tb4      1.0000 0.26113  0.98755  0.01830  Biso   1.000  Tb
  O22      1.0000 0.39550  0.42440  0.58404  Biso   1.000  O
  O23      1.0000 0.83720  0.62240  0.49767  Biso   1.000  O
  O24      1.0000 0.50980  0.41650  0.51367  Biso   1.000  O
  O25      1.0000 0.11630  0.63320  0.50257  Biso   1.000  O
  O26      1.0000 0.96660  0.00440  0.93743  Biso   1.000  O
  C82      1.0000 0.48630  0.38760  0.55680  Biso   1.000  C
  C83      1.0000 0.96210  0.74100  0.53100  Biso   1.000  C
  C84      1.0000 0.63730  0.25940  0.54090  Biso   1.000  C
  H46      1.0000 0.64010  0.27440  0.50810  Biso   1.000  H
  C85      1.0000 0.82040  0.78710  0.52160  Biso   1.000  C
  H47      1.0000 0.73480  0.77060  0.49780  Biso   1.000  H
  C86      1.0000 0.55440  0.28410  0.62140  Biso   1.000  C
  H48      1.0000 0.50040  0.31560  0.64280  Biso   1.000  H
  C87      1.0000 0.62510  0.21350  0.63780  Biso   1.000  C
  H49      1.0000 0.61900  0.19840  0.67050  Biso   1.000  H
  C88      1.0000 0.08670  0.00170  0.91138  Biso   1.000  C
  C89      1.0000 0.97320  0.65890  0.50780  Biso   1.000  C
  C90      1.0000 0.04670  0.00330  0.85550  Biso   1.000  C
  C91      1.0000 0.56180  0.30970  0.57260  Biso   1.000  C
  C92      1.0000 0.09230  0.76750  0.56560  Biso   1.000  C
  H50      1.0000 0.19120  0.73840  0.57060  Biso   1.000  H
  C93      1.0000 0.97290  0.00960  0.75290  Biso   1.000  C
  C94      1.0000 0.92940  0.88260  0.58390  Biso   1.000  C
  C95      1.0000 0.70780  0.16230  0.60700  Biso   1.000  C
  C96      1.0000 0.90550  0.95430  0.61590  Biso   1.000  C
  C97      1.0000 0.80380  0.85770  0.54710  Biso   1.000  C
  H51      1.0000 0.70850  0.88900  0.53970  Biso   1.000  H
  C98      1.0000 0.92720  0.01390  0.69790  Biso   1.000  C
  C99      1.0000 0.79240  0.08780  0.62670  Biso   1.000  C
  C100     1.0000 0.82100  0.02400  0.59610  Biso   1.000  C
  H52      1.0000 0.78480  0.02680  0.56240  Biso   1.000  H
  C101     1.0000 0.70790  0.18770  0.55750  Biso   1.000  C
  H53      1.0000 0.75690  0.15520  0.53540  Biso   1.000  H
  C102     1.0000 0.85160  0.02360  0.78350  Biso   1.000  C
  H54      1.0000 0.74370  0.03570  0.76940  Biso   1.000  H
  C103     1.0000 0.13390  0.99110  0.77400  Biso   1.000  C
  H55      1.0000 0.21680  0.98000  0.75390  Biso   1.000  H
  C104     1.0000 0.07530  0.83710  0.59250  Biso   1.000  C
  H56      1.0000 0.16120  0.85330  0.61630  Biso   1.000  H
  C105     1.0000 0.88540  0.02050  0.83520  Biso   1.000  C
  H57      1.0000 0.80140  0.02970  0.85530  Biso   1.000  H
  C106     1.0000 0.17160  0.98920  0.82570  Biso   1.000  C
  H58      1.0000 0.28010  0.97850  0.83990  Biso   1.000  H
  C107     1.0000 0.84660  0.08180  0.67780  Biso   1.000  C
  H59      1.0000 0.82780  0.12430  0.69850  Biso   1.000  H
  C108     1.0000 0.95920  0.95040  0.66660  Biso   1.000  C
  H60      1.0000 0.01640  0.90540  0.67970  Biso   1.000  H
  O27      1.0000 0.23870  0.99630  0.92784  Biso   1.000  O
  O28      1.0000 0.21900  0.03300  0.94140  Biso   1.000  O
