data_image0
_cell_length_a       9.572
_cell_length_b       17.717
_cell_length_c       13.715
_cell_angle_alpha    90
_cell_angle_beta     90
_cell_angle_gamma    90

_symmetry_space_group_name_H-M    "P 1"
_symmetry_int_tables_number       1

loop_
  _symmetry_equiv_pos_as_xyz
  'x, y, z'

loop_
  _atom_site_label
  _atom_site_occupancy
  _atom_site_fract_x
  _atom_site_fract_y
  _atom_site_fract_z
  _atom_site_thermal_displace_type
  _atom_site_B_iso_or_equiv
  _atom_site_type_symbol
  O1       1.0000 0.73830  0.78540  0.87400  Biso   1.000  O
  O2       1.0000 0.84790  0.79260  0.73400  Biso   1.000  O
  C1       1.0000 0.73900  0.80170  0.78530  Biso   1.000  C
  C2       1.0000 0.61160  0.83560  0.73870  Biso   1.000  C
  H1       1.0000 0.52840  0.81750  0.77160  Biso   1.000  H
  H2       1.0000 0.60650  0.82020  0.67090  Biso   1.000  H
  C3       1.0000 0.61750  0.92170  0.74470  Biso   1.000  C
  C4       1.0000 0.61770  0.95680  0.83340  Biso   1.000  C
  H3       1.0000 0.61620  0.92820  0.89030  Biso   1.000  H
  C5       1.0000 0.62010  0.96500  0.66080  Biso   1.000  C
  H4       1.0000 0.62350  0.94150  0.60020  Biso   1.000  H
  N1       1.0000 0.92930  0.62680  0.84440  Biso   1.000  N
  C6       1.0000 0.70240  0.60960  0.08690  Biso   1.000  C
  H5       1.0000 0.76250  0.65050  0.08080  Biso   1.000  H
  C7       1.0000 0.00840  0.56850  0.87940  Biso   1.000  C
  H6       1.0000 0.09780  0.58240  0.89920  Biso   1.000  H
  C8       1.0000 0.97980  0.49530  0.89020  Biso   1.000  C
  H7       1.0000 0.04190  0.46060  0.91700  Biso   1.000  H
  C9       1.0000 0.85180  0.47700  0.85810  Biso   1.000  C
  C10      1.0000 0.75980  0.53260  0.82300  Biso   1.000  C
  H8       1.0000 0.67020  0.51970  0.80290  Biso   1.000  H
  C11      1.0000 0.67740  0.47700  0.07620  Biso   1.000  C
  C12      1.0000 0.75860  0.53920  0.07060  Biso   1.000  C
  H9       1.0000 0.85300  0.53440  0.05570  Biso   1.000  H
  C13      1.0000 0.80360  0.60470  0.81900  Biso   1.000  C
  H10      1.0000 0.74110  0.64100  0.79680  Biso   1.000  H
  N2       1.0000 0.57350  0.62450  0.11000  Biso   1.000  N
  C14      1.0000 0.72770  0.38750  0.94800  Biso   1.000  C
  H11      1.0000 0.67680  0.34060  0.93930  Biso   1.000  H
  H12      1.0000 0.65880  0.42740  0.94310  Biso   1.000  H
  C15      1.0000 0.81030  0.39460  0.86410  Biso   1.000  C
  H13      1.0000 0.75770  0.38000  0.80660  Biso   1.000  H
  H14      1.0000 0.89250  0.36280  0.86880  Biso   1.000  H
  O3       1.0000 0.23830  0.28540  0.37400  Biso   1.000  O
  O4       1.0000 0.34790  0.29260  0.23400  Biso   1.000  O
  C16      1.0000 0.23900  0.30170  0.28530  Biso   1.000  C
  C17      1.0000 0.11160  0.33560  0.23870  Biso   1.000  C
  H15      1.0000 0.02840  0.31750  0.27160  Biso   1.000  H
  H16      1.0000 0.10650  0.32020  0.17090  Biso   1.000  H
  C18      1.0000 0.11750  0.42170  0.24470  Biso   1.000  C
  C19      1.0000 0.11770  0.45680  0.33340  Biso   1.000  C
  H17      1.0000 0.11620  0.42820  0.39030  Biso   1.000  H
  C20      1.0000 0.12010  0.46500  0.16080  Biso   1.000  C
  H18      1.0000 0.12350  0.44150  0.10020  Biso   1.000  H
  N3       1.0000 0.42930  0.12680  0.34440  Biso   1.000  N
  C21      1.0000 0.20240  0.10960  0.58690  Biso   1.000  C
  H19      1.0000 0.26250  0.15050  0.58080  Biso   1.000  H
  C22      1.0000 0.50840  0.06850  0.37940  Biso   1.000  C
  H20      1.0000 0.59780  0.08240  0.39920  Biso   1.000  H
  C23      1.0000 0.47980  0.99530  0.39020  Biso   1.000  C
  H21      1.0000 0.54190  0.96060  0.41700  Biso   1.000  H
  C24      1.0000 0.35180  0.97700  0.35810  Biso   1.000  C
  C25      1.0000 0.25980  0.03260  0.32300  Biso   1.000  C
  H22      1.0000 0.17020  0.01970  0.30290  Biso   1.000  H
  C26      1.0000 0.17740  0.97700  0.57620  Biso   1.000  C
  C27      1.0000 0.25860  0.03920  0.57060  Biso   1.000  C
  H23      1.0000 0.35300  0.03440  0.55570  Biso   1.000  H
  C28      1.0000 0.30360  0.10470  0.31900  Biso   1.000  C
  H24      1.0000 0.24110  0.14100  0.29680  Biso   1.000  H
  N4       1.0000 0.07350  0.12450  0.61000  Biso   1.000  N
  C29      1.0000 0.22770  0.88750  0.44800  Biso   1.000  C
  H25      1.0000 0.17680  0.84060  0.43930  Biso   1.000  H
  H26      1.0000 0.15880  0.92740  0.44310  Biso   1.000  H
  C30      1.0000 0.31030  0.89460  0.36410  Biso   1.000  C
  H27      1.0000 0.25770  0.88000  0.30660  Biso   1.000  H
  H28      1.0000 0.39250  0.86280  0.36880  Biso   1.000  H
  O5       1.0000 0.76170  0.21460  0.37400  Biso   1.000  O
  O6       1.0000 0.65210  0.20740  0.23400  Biso   1.000  O
  C31      1.0000 0.76100  0.19830  0.28530  Biso   1.000  C
  C32      1.0000 0.88840  0.16440  0.23870  Biso   1.000  C
  H29      1.0000 0.97160  0.18250  0.27160  Biso   1.000  H
  H30      1.0000 0.89350  0.17980  0.17090  Biso   1.000  H
  C33      1.0000 0.88250  0.07830  0.24470  Biso   1.000  C
  C34      1.0000 0.88230  0.04320  0.33340  Biso   1.000  C
  H31      1.0000 0.88380  0.07180  0.39030  Biso   1.000  H
  C35      1.0000 0.87990  0.03500  0.16080  Biso   1.000  C
  H32      1.0000 0.87650  0.05850  0.10020  Biso   1.000  H
  N5       1.0000 0.57070  0.37320  0.34440  Biso   1.000  N
  C36      1.0000 0.79760  0.39040  0.58690  Biso   1.000  C
  H33      1.0000 0.73750  0.34950  0.58080  Biso   1.000  H
  C37      1.0000 0.49160  0.43150  0.37940  Biso   1.000  C
  H34      1.0000 0.40220  0.41760  0.39920  Biso   1.000  H
  C38      1.0000 0.52020  0.50470  0.39020  Biso   1.000  C
  H35      1.0000 0.45810  0.53940  0.41700  Biso   1.000  H
  C39      1.0000 0.64820  0.52300  0.35810  Biso   1.000  C
  C40      1.0000 0.74020  0.46740  0.32300  Biso   1.000  C
  H36      1.0000 0.82980  0.48030  0.30290  Biso   1.000  H
  C41      1.0000 0.82260  0.52300  0.57620  Biso   1.000  C
  C42      1.0000 0.74140  0.46080  0.57060  Biso   1.000  C
  H37      1.0000 0.64700  0.46560  0.55570  Biso   1.000  H
  C43      1.0000 0.69640  0.39530  0.31900  Biso   1.000  C
  H38      1.0000 0.75890  0.35900  0.29680  Biso   1.000  H
  N6       1.0000 0.92650  0.37550  0.61000  Biso   1.000  N
  C44      1.0000 0.77230  0.61250  0.44800  Biso   1.000  C
  H39      1.0000 0.82320  0.65940  0.43930  Biso   1.000  H
  H40      1.0000 0.84120  0.57260  0.44310  Biso   1.000  H
  C45      1.0000 0.68970  0.60540  0.36410  Biso   1.000  C
  H41      1.0000 0.74230  0.62000  0.30660  Biso   1.000  H
  H42      1.0000 0.60750  0.63720  0.36880  Biso   1.000  H
  O7       1.0000 0.26170  0.71460  0.87400  Biso   1.000  O
  O8       1.0000 0.15210  0.70740  0.73400  Biso   1.000  O
  C46      1.0000 0.26100  0.69830  0.78530  Biso   1.000  C
  C47      1.0000 0.38840  0.66440  0.73870  Biso   1.000  C
  H43      1.0000 0.47160  0.68250  0.77160  Biso   1.000  H
  H44      1.0000 0.39350  0.67980  0.67090  Biso   1.000  H
  C48      1.0000 0.38250  0.57830  0.74470  Biso   1.000  C
  C49      1.0000 0.38230  0.54320  0.83340  Biso   1.000  C
  H45      1.0000 0.38380  0.57180  0.89030  Biso   1.000  H
  C50      1.0000 0.37990  0.53500  0.66080  Biso   1.000  C
  H46      1.0000 0.37650  0.55850  0.60020  Biso   1.000  H
  N7       1.0000 0.07070  0.87320  0.84440  Biso   1.000  N
  C51      1.0000 0.29760  0.89040  0.08690  Biso   1.000  C
  H47      1.0000 0.23750  0.84950  0.08080  Biso   1.000  H
  C52      1.0000 0.99160  0.93150  0.87940  Biso   1.000  C
  H48      1.0000 0.90220  0.91760  0.89920  Biso   1.000  H
  C53      1.0000 0.02020  0.00470  0.89020  Biso   1.000  C
  H49      1.0000 0.95810  0.03940  0.91700  Biso   1.000  H
  C54      1.0000 0.14820  0.02300  0.85810  Biso   1.000  C
  C55      1.0000 0.24020  0.96740  0.82300  Biso   1.000  C
  H50      1.0000 0.32980  0.98030  0.80290  Biso   1.000  H
  C56      1.0000 0.32260  0.02300  0.07620  Biso   1.000  C
  C57      1.0000 0.24140  0.96080  0.07060  Biso   1.000  C
  H51      1.0000 0.14700  0.96560  0.05570  Biso   1.000  H
  C58      1.0000 0.19640  0.89530  0.81900  Biso   1.000  C
  H52      1.0000 0.25890  0.85900  0.79680  Biso   1.000  H
  N8       1.0000 0.42650  0.87550  0.11000  Biso   1.000  N
  C59      1.0000 0.27230  0.11250  0.94800  Biso   1.000  C
  H53      1.0000 0.32320  0.15940  0.93930  Biso   1.000  H
  H54      1.0000 0.34120  0.07260  0.94310  Biso   1.000  H
  C60      1.0000 0.18970  0.10540  0.86410  Biso   1.000  C
  H55      1.0000 0.24230  0.12000  0.80660  Biso   1.000  H
  H56      1.0000 0.10750  0.13720  0.86880  Biso   1.000  H
  O9       1.0000 0.26170  0.28540  0.62600  Biso   1.000  O
  O10      1.0000 0.15210  0.29260  0.76600  Biso   1.000  O
  C61      1.0000 0.26100  0.30170  0.71470  Biso   1.000  C
  C62      1.0000 0.38840  0.33560  0.76130  Biso   1.000  C
  H57      1.0000 0.47160  0.31750  0.72840  Biso   1.000  H
  H58      1.0000 0.39350  0.32020  0.82910  Biso   1.000  H
  C63      1.0000 0.38250  0.42170  0.75530  Biso   1.000  C
  C64      1.0000 0.38230  0.45680  0.66660  Biso   1.000  C
  H59      1.0000 0.38380  0.42820  0.60970  Biso   1.000  H
  C65      1.0000 0.37990  0.46500  0.83920  Biso   1.000  C
  H60      1.0000 0.37650  0.44150  0.89980  Biso   1.000  H
  N9       1.0000 0.07070  0.12680  0.65560  Biso   1.000  N
  C66      1.0000 0.29760  0.10960  0.41310  Biso   1.000  C
  H61      1.0000 0.23750  0.15050  0.41920  Biso   1.000  H
  C67      1.0000 0.99160  0.06850  0.62060  Biso   1.000  C
  H62      1.0000 0.90220  0.08240  0.60080  Biso   1.000  H
  C68      1.0000 0.02020  0.99530  0.60980  Biso   1.000  C
  H63      1.0000 0.95810  0.96060  0.58300  Biso   1.000  H
  C69      1.0000 0.14820  0.97700  0.64190  Biso   1.000  C
  C70      1.0000 0.24020  0.03260  0.67700  Biso   1.000  C
  H64      1.0000 0.32980  0.01970  0.69710  Biso   1.000  H
  C71      1.0000 0.32260  0.97700  0.42380  Biso   1.000  C
  C72      1.0000 0.24140  0.03920  0.42940  Biso   1.000  C
  H65      1.0000 0.14700  0.03440  0.44430  Biso   1.000  H
  C73      1.0000 0.19640  0.10470  0.68100  Biso   1.000  C
  H66      1.0000 0.25890  0.14100  0.70320  Biso   1.000  H
  N10      1.0000 0.42650  0.12450  0.39000  Biso   1.000  N
  C74      1.0000 0.27230  0.88750  0.55200  Biso   1.000  C
  H67      1.0000 0.32320  0.84060  0.56070  Biso   1.000  H
  H68      1.0000 0.34120  0.92740  0.55690  Biso   1.000  H
  C75      1.0000 0.18970  0.89460  0.63590  Biso   1.000  C
  H69      1.0000 0.24230  0.88000  0.69340  Biso   1.000  H
  H70      1.0000 0.10750  0.86280  0.63120  Biso   1.000  H
  O11      1.0000 0.76170  0.78540  0.12600  Biso   1.000  O
  O12      1.0000 0.65210  0.79260  0.26600  Biso   1.000  O
  C76      1.0000 0.76100  0.80170  0.21470  Biso   1.000  C
  C77      1.0000 0.88840  0.83560  0.26130  Biso   1.000  C
  H71      1.0000 0.97160  0.81750  0.22840  Biso   1.000  H
  H72      1.0000 0.89350  0.82020  0.32910  Biso   1.000  H
  C78      1.0000 0.88250  0.92170  0.25530  Biso   1.000  C
  C79      1.0000 0.88230  0.95680  0.16660  Biso   1.000  C
  H73      1.0000 0.88380  0.92820  0.10970  Biso   1.000  H
  C80      1.0000 0.87990  0.96500  0.33920  Biso   1.000  C
  H74      1.0000 0.87650  0.94150  0.39980  Biso   1.000  H
  N11      1.0000 0.57070  0.62680  0.15560  Biso   1.000  N
  C81      1.0000 0.79760  0.60960  0.91310  Biso   1.000  C
  H75      1.0000 0.73750  0.65050  0.91920  Biso   1.000  H
  C82      1.0000 0.49160  0.56850  0.12060  Biso   1.000  C
  H76      1.0000 0.40220  0.58240  0.10080  Biso   1.000  H
  C83      1.0000 0.52020  0.49530  0.10980  Biso   1.000  C
  H77      1.0000 0.45810  0.46060  0.08300  Biso   1.000  H
  C84      1.0000 0.64820  0.47700  0.14190  Biso   1.000  C
  C85      1.0000 0.74020  0.53260  0.17700  Biso   1.000  C
  H78      1.0000 0.82980  0.51970  0.19710  Biso   1.000  H
  C86      1.0000 0.82260  0.47700  0.92380  Biso   1.000  C
  C87      1.0000 0.74140  0.53920  0.92940  Biso   1.000  C
  H79      1.0000 0.64700  0.53440  0.94430  Biso   1.000  H
  C88      1.0000 0.69640  0.60470  0.18100  Biso   1.000  C
  H80      1.0000 0.75890  0.64100  0.20320  Biso   1.000  H
  N12      1.0000 0.92650  0.62450  0.89000  Biso   1.000  N
  C89      1.0000 0.77230  0.38750  0.05200  Biso   1.000  C
  H81      1.0000 0.82320  0.34060  0.06070  Biso   1.000  H
  H82      1.0000 0.84120  0.42740  0.05690  Biso   1.000  H
  C90      1.0000 0.68970  0.39460  0.13590  Biso   1.000  C
  H83      1.0000 0.74230  0.38000  0.19340  Biso   1.000  H
  H84      1.0000 0.60750  0.36280  0.13120  Biso   1.000  H
  O13      1.0000 0.23830  0.71460  0.12600  Biso   1.000  O
  O14      1.0000 0.34790  0.70740  0.26600  Biso   1.000  O
  C91      1.0000 0.23900  0.69830  0.21470  Biso   1.000  C
  C92      1.0000 0.11160  0.66440  0.26130  Biso   1.000  C
  H85      1.0000 0.02840  0.68250  0.22840  Biso   1.000  H
  H86      1.0000 0.10650  0.67980  0.32910  Biso   1.000  H
  C93      1.0000 0.11750  0.57830  0.25530  Biso   1.000  C
  C94      1.0000 0.11770  0.54320  0.16660  Biso   1.000  C
  H87      1.0000 0.11620  0.57180  0.10970  Biso   1.000  H
  C95      1.0000 0.12010  0.53500  0.33920  Biso   1.000  C
  H88      1.0000 0.12350  0.55850  0.39980  Biso   1.000  H
  N13      1.0000 0.42930  0.87320  0.15560  Biso   1.000  N
  C96      1.0000 0.20240  0.89040  0.91310  Biso   1.000  C
  H89      1.0000 0.26250  0.84950  0.91920  Biso   1.000  H
  C97      1.0000 0.50840  0.93150  0.12060  Biso   1.000  C
  H90      1.0000 0.59780  0.91760  0.10080  Biso   1.000  H
  C98      1.0000 0.47980  0.00470  0.10980  Biso   1.000  C
  H91      1.0000 0.54190  0.03940  0.08300  Biso   1.000  H
  C99      1.0000 0.35180  0.02300  0.14190  Biso   1.000  C
  C100     1.0000 0.25980  0.96740  0.17700  Biso   1.000  C
  H92      1.0000 0.17020  0.98030  0.19710  Biso   1.000  H
  C101     1.0000 0.17740  0.02300  0.92380  Biso   1.000  C
  C102     1.0000 0.25860  0.96080  0.92940  Biso   1.000  C
  H93      1.0000 0.35300  0.96560  0.94430  Biso   1.000  H
  C103     1.0000 0.30360  0.89530  0.18100  Biso   1.000  C
  H94      1.0000 0.24110  0.85900  0.20320  Biso   1.000  H
  N14      1.0000 0.07350  0.87550  0.89000  Biso   1.000  N
  C104     1.0000 0.22770  0.11250  0.05200  Biso   1.000  C
  H95      1.0000 0.17680  0.15940  0.06070  Biso   1.000  H
  H96      1.0000 0.15880  0.07260  0.05690  Biso   1.000  H
  C105     1.0000 0.31030  0.10540  0.13590  Biso   1.000  C
  H97      1.0000 0.25770  0.12000  0.19340  Biso   1.000  H
  H98      1.0000 0.39250  0.13720  0.13120  Biso   1.000  H
  O15      1.0000 0.73830  0.21460  0.62600  Biso   1.000  O
  O16      1.0000 0.84790  0.20740  0.76600  Biso   1.000  O
  C106     1.0000 0.73900  0.19830  0.71470  Biso   1.000  C
  C107     1.0000 0.61160  0.16440  0.76130  Biso   1.000  C
  H99      1.0000 0.52840  0.18250  0.72840  Biso   1.000  H
  H100     1.0000 0.60650  0.17980  0.82910  Biso   1.000  H
  C108     1.0000 0.61750  0.07830  0.75530  Biso   1.000  C
  C109     1.0000 0.61770  0.04320  0.66660  Biso   1.000  C
  H101     1.0000 0.61620  0.07180  0.60970  Biso   1.000  H
  C110     1.0000 0.62010  0.03500  0.83920  Biso   1.000  C
  H102     1.0000 0.62350  0.05850  0.89980  Biso   1.000  H
  N15      1.0000 0.92930  0.37320  0.65560  Biso   1.000  N
  C111     1.0000 0.70240  0.39040  0.41310  Biso   1.000  C
  H103     1.0000 0.76250  0.34950  0.41920  Biso   1.000  H
  C112     1.0000 0.00840  0.43150  0.62060  Biso   1.000  C
  H104     1.0000 0.09780  0.41760  0.60080  Biso   1.000  H
  C113     1.0000 0.97980  0.50470  0.60980  Biso   1.000  C
  H105     1.0000 0.04190  0.53940  0.58300  Biso   1.000  H
  C114     1.0000 0.85180  0.52300  0.64190  Biso   1.000  C
  C115     1.0000 0.75980  0.46740  0.67700  Biso   1.000  C
  H106     1.0000 0.67020  0.48030  0.69710  Biso   1.000  H
  C116     1.0000 0.67740  0.52300  0.42380  Biso   1.000  C
  C117     1.0000 0.75860  0.46080  0.42940  Biso   1.000  C
  H107     1.0000 0.85300  0.46560  0.44430  Biso   1.000  H
  C118     1.0000 0.80360  0.39530  0.68100  Biso   1.000  C
  H108     1.0000 0.74110  0.35900  0.70320  Biso   1.000  H
  N16      1.0000 0.57350  0.37550  0.39000  Biso   1.000  N
  C119     1.0000 0.72770  0.61250  0.55200  Biso   1.000  C
  H109     1.0000 0.67680  0.65940  0.56070  Biso   1.000  H
  H110     1.0000 0.65880  0.57260  0.55690  Biso   1.000  H
  C120     1.0000 0.81030  0.60540  0.63590  Biso   1.000  C
  H111     1.0000 0.75770  0.62000  0.69340  Biso   1.000  H
  H112     1.0000 0.89250  0.63720  0.63120  Biso   1.000  H
  Cd1      1.0000 0.00000  0.75000  0.85525  Biso   1.000  Cd
  Cd2      1.0000 0.50000  0.25000  0.35525  Biso   1.000  Cd
  Cd3      1.0000 0.00000  0.25000  0.64475  Biso   1.000  Cd
  Cd4      1.0000 0.50000  0.75000  0.14475  Biso   1.000  Cd
