data_image0
_cell_length_a       18.519
_cell_length_b       18.519
_cell_length_c       38.8764
_cell_angle_alpha    90
_cell_angle_beta     90
_cell_angle_gamma    120

_symmetry_space_group_name_H-M    "P 1"
_symmetry_int_tables_number       1

loop_
  _symmetry_equiv_pos_as_xyz
  'x, y, z'

loop_
  _atom_site_label
  _atom_site_occupancy
  _atom_site_fract_x
  _atom_site_fract_y
  _atom_site_fract_z
  _atom_site_thermal_displace_type
  _atom_site_B_iso_or_equiv
  _atom_site_type_symbol
  O1       1.0000 0.37120  0.89022  0.00238  Biso   1.000  O
  C1       1.0000 0.36015  0.90849  0.97241  Biso   1.000  C
  C2       1.0000 0.16820  0.76500  0.84445  Biso   1.000  C
  C3       1.0000 0.27925  0.85002  0.95543  Biso   1.000  C
  C4       1.0000 0.26333  0.86528  0.92196  Biso   1.000  C
  H1       1.0000 0.30170  0.91420  0.91090  Biso   1.000  H
  C5       1.0000 0.03350  0.81310  0.88080  Biso   1.000  C
  H2       1.0000 0.05200  0.86180  0.89490  Biso   1.000  H
  H3       1.0000 0.01660  0.76520  0.89520  Biso   1.000  H
  H4       1.0000 0.98720  0.80530  0.86690  Biso   1.000  H
  O2       1.0000 0.41161  0.97104  0.95553  Biso   1.000  O
  C6       1.0000 0.10510  0.82440  0.85731  Biso   1.000  C
  O3       1.0000 0.03787  0.22355  0.33571  Biso   1.000  O
  C7       1.0000 0.02682  0.24182  0.30574  Biso   1.000  C
  C8       1.0000 0.83487  0.09833  0.17778  Biso   1.000  C
  C9       1.0000 0.94592  0.18335  0.28876  Biso   1.000  C
  C10      1.0000 0.93000  0.19861  0.25529  Biso   1.000  C
  H5       1.0000 0.96837  0.24753  0.24423  Biso   1.000  H
  C11      1.0000 0.70017  0.14643  0.21413  Biso   1.000  C
  H6       1.0000 0.71867  0.19513  0.22823  Biso   1.000  H
  H7       1.0000 0.68327  0.09853  0.22853  Biso   1.000  H
  H8       1.0000 0.65387  0.13863  0.20023  Biso   1.000  H
  O4       1.0000 0.07828  0.30437  0.28886  Biso   1.000  O
  C12      1.0000 0.77177  0.15773  0.19064  Biso   1.000  C
  O5       1.0000 0.70453  0.55689  0.66905  Biso   1.000  O
  C13      1.0000 0.69348  0.57516  0.63908  Biso   1.000  C
  C14      1.0000 0.50153  0.43167  0.51112  Biso   1.000  C
  C15      1.0000 0.61258  0.51669  0.62210  Biso   1.000  C
  C16      1.0000 0.59666  0.53195  0.58863  Biso   1.000  C
  H9       1.0000 0.63503  0.58087  0.57757  Biso   1.000  H
  C17      1.0000 0.36683  0.47977  0.54747  Biso   1.000  C
  H10      1.0000 0.38533  0.52847  0.56157  Biso   1.000  H
  H11      1.0000 0.34993  0.43187  0.56187  Biso   1.000  H
  H12      1.0000 0.32053  0.47197  0.53357  Biso   1.000  H
  O6       1.0000 0.74494  0.63771  0.62220  Biso   1.000  O
  C18      1.0000 0.43843  0.49107  0.52398  Biso   1.000  C
  O7       1.0000 0.10978  0.48098  0.00238  Biso   1.000  O
  C19      1.0000 0.09151  0.45166  0.97241  Biso   1.000  C
  C20      1.0000 0.23500  0.40320  0.84445  Biso   1.000  C
  C21      1.0000 0.14998  0.42923  0.95543  Biso   1.000  C
  C22      1.0000 0.13472  0.39805  0.92196  Biso   1.000  C
  H13      1.0000 0.08580  0.38750  0.91090  Biso   1.000  H
  C23      1.0000 0.18690  0.22040  0.88080  Biso   1.000  C
  H14      1.0000 0.13820  0.19020  0.89490  Biso   1.000  H
  H15      1.0000 0.23480  0.25140  0.89520  Biso   1.000  H
  H16      1.0000 0.19470  0.18190  0.86690  Biso   1.000  H
  O8       1.0000 0.02896  0.44057  0.95553  Biso   1.000  O
  C24      1.0000 0.17560  0.28070  0.85731  Biso   1.000  C
  O9       1.0000 0.77645  0.81431  0.33571  Biso   1.000  O
  C25      1.0000 0.75818  0.78499  0.30574  Biso   1.000  C
  C26      1.0000 0.90167  0.73653  0.17778  Biso   1.000  C
  C27      1.0000 0.81665  0.76256  0.28876  Biso   1.000  C
  C28      1.0000 0.80139  0.73138  0.25529  Biso   1.000  C
  H17      1.0000 0.75247  0.72083  0.24423  Biso   1.000  H
  C29      1.0000 0.85357  0.55373  0.21413  Biso   1.000  C
  H18      1.0000 0.80487  0.52353  0.22823  Biso   1.000  H
  H19      1.0000 0.90147  0.58473  0.22853  Biso   1.000  H
  H20      1.0000 0.86137  0.51523  0.20023  Biso   1.000  H
  O10      1.0000 0.69563  0.77390  0.28886  Biso   1.000  O
  C30      1.0000 0.84227  0.61403  0.19064  Biso   1.000  C
  O11      1.0000 0.44311  0.14765  0.66905  Biso   1.000  O
  C31      1.0000 0.42484  0.11833  0.63908  Biso   1.000  C
  C32      1.0000 0.56833  0.06987  0.51112  Biso   1.000  C
  C33      1.0000 0.48331  0.09590  0.62210  Biso   1.000  C
  C34      1.0000 0.46805  0.06472  0.58863  Biso   1.000  C
  H21      1.0000 0.41913  0.05417  0.57757  Biso   1.000  H
  C35      1.0000 0.52023  0.88707  0.54747  Biso   1.000  C
  H22      1.0000 0.47153  0.85687  0.56157  Biso   1.000  H
  H23      1.0000 0.56813  0.91807  0.56187  Biso   1.000  H
  H24      1.0000 0.52803  0.84857  0.53357  Biso   1.000  H
  O12      1.0000 0.36229  0.10724  0.62220  Biso   1.000  O
  C36      1.0000 0.50893  0.94737  0.52398  Biso   1.000  C
  O13      1.0000 0.51902  0.62880  0.00238  Biso   1.000  O
  C37      1.0000 0.54834  0.63985  0.97241  Biso   1.000  C
  C38      1.0000 0.59680  0.83180  0.84445  Biso   1.000  C
  C39      1.0000 0.57077  0.72075  0.95543  Biso   1.000  C
  C40      1.0000 0.60195  0.73667  0.92196  Biso   1.000  C
  H25      1.0000 0.61250  0.69830  0.91090  Biso   1.000  H
  C41      1.0000 0.77960  0.96650  0.88080  Biso   1.000  C
  H26      1.0000 0.80980  0.94800  0.89490  Biso   1.000  H
  H27      1.0000 0.74860  0.98340  0.89520  Biso   1.000  H
  H28      1.0000 0.81810  0.01280  0.86690  Biso   1.000  H
  O14      1.0000 0.55943  0.58839  0.95553  Biso   1.000  O
  C42      1.0000 0.71930  0.89490  0.85731  Biso   1.000  C
  O15      1.0000 0.18569  0.96213  0.33571  Biso   1.000  O
  C43      1.0000 0.21501  0.97318  0.30574  Biso   1.000  C
  C44      1.0000 0.26347  0.16513  0.17778  Biso   1.000  C
  C45      1.0000 0.23744  0.05408  0.28876  Biso   1.000  C
  C46      1.0000 0.26862  0.07000  0.25529  Biso   1.000  C
  H29      1.0000 0.27917  0.03163  0.24423  Biso   1.000  H
  C47      1.0000 0.44627  0.29983  0.21413  Biso   1.000  C
  H30      1.0000 0.47647  0.28133  0.22823  Biso   1.000  H
  H31      1.0000 0.41527  0.31673  0.22853  Biso   1.000  H
  H32      1.0000 0.48477  0.34613  0.20023  Biso   1.000  H
  O16      1.0000 0.22610  0.92172  0.28886  Biso   1.000  O
  C48      1.0000 0.38597  0.22823  0.19064  Biso   1.000  C
  O17      1.0000 0.85235  0.29547  0.66905  Biso   1.000  O
  C49      1.0000 0.88167  0.30652  0.63908  Biso   1.000  C
  C50      1.0000 0.93013  0.49847  0.51112  Biso   1.000  C
  C51      1.0000 0.90410  0.38742  0.62210  Biso   1.000  C
  C52      1.0000 0.93528  0.40334  0.58863  Biso   1.000  C
  H33      1.0000 0.94583  0.36497  0.57757  Biso   1.000  H
  C53      1.0000 0.11293  0.63317  0.54747  Biso   1.000  C
  H34      1.0000 0.14313  0.61467  0.56157  Biso   1.000  H
  H35      1.0000 0.08193  0.65007  0.56187  Biso   1.000  H
  H36      1.0000 0.15143  0.67947  0.53357  Biso   1.000  H
  O18      1.0000 0.89276  0.25506  0.62220  Biso   1.000  O
  C54      1.0000 0.05263  0.56157  0.52398  Biso   1.000  C
  O19      1.0000 0.89022  0.37120  0.99762  Biso   1.000  O
  C55      1.0000 0.90849  0.36015  0.02759  Biso   1.000  C
  C56      1.0000 0.76500  0.16820  0.15555  Biso   1.000  C
  C57      1.0000 0.85002  0.27925  0.04457  Biso   1.000  C
  C58      1.0000 0.86528  0.26333  0.07804  Biso   1.000  C
  H37      1.0000 0.91420  0.30170  0.08910  Biso   1.000  H
  C59      1.0000 0.81310  0.03350  0.11920  Biso   1.000  C
  H38      1.0000 0.86180  0.05200  0.10510  Biso   1.000  H
  H39      1.0000 0.76520  0.01660  0.10480  Biso   1.000  H
  H40      1.0000 0.80530  0.98720  0.13310  Biso   1.000  H
  O20      1.0000 0.97104  0.41161  0.04447  Biso   1.000  O
  C60      1.0000 0.82440  0.10510  0.14269  Biso   1.000  C
  O21      1.0000 0.55689  0.70453  0.33095  Biso   1.000  O
  C61      1.0000 0.57516  0.69348  0.36092  Biso   1.000  C
  C62      1.0000 0.43167  0.50153  0.48888  Biso   1.000  C
  C63      1.0000 0.51669  0.61258  0.37790  Biso   1.000  C
  C64      1.0000 0.53195  0.59666  0.41137  Biso   1.000  C
  H41      1.0000 0.58087  0.63503  0.42243  Biso   1.000  H
  C65      1.0000 0.47977  0.36683  0.45253  Biso   1.000  C
  H42      1.0000 0.52847  0.38533  0.43843  Biso   1.000  H
  H43      1.0000 0.43187  0.34993  0.43813  Biso   1.000  H
  H44      1.0000 0.47197  0.32053  0.46643  Biso   1.000  H
  O22      1.0000 0.63771  0.74494  0.37780  Biso   1.000  O
  C66      1.0000 0.49107  0.43843  0.47602  Biso   1.000  C
  O23      1.0000 0.22355  0.03787  0.66429  Biso   1.000  O
  C67      1.0000 0.24182  0.02682  0.69426  Biso   1.000  C
  C68      1.0000 0.09833  0.83487  0.82222  Biso   1.000  C
  C69      1.0000 0.18335  0.94592  0.71124  Biso   1.000  C
  C70      1.0000 0.19861  0.93000  0.74471  Biso   1.000  C
  H45      1.0000 0.24753  0.96837  0.75577  Biso   1.000  H
  C71      1.0000 0.14643  0.70017  0.78587  Biso   1.000  C
  H46      1.0000 0.19513  0.71867  0.77177  Biso   1.000  H
  H47      1.0000 0.09853  0.68327  0.77147  Biso   1.000  H
  H48      1.0000 0.13863  0.65387  0.79977  Biso   1.000  H
  O24      1.0000 0.30437  0.07828  0.71114  Biso   1.000  O
  C72      1.0000 0.15773  0.77177  0.80936  Biso   1.000  C
  O25      1.0000 0.48098  0.10978  0.99762  Biso   1.000  O
  C73      1.0000 0.45166  0.09151  0.02759  Biso   1.000  C
  C74      1.0000 0.40320  0.23500  0.15555  Biso   1.000  C
  C75      1.0000 0.42923  0.14998  0.04457  Biso   1.000  C
  C76      1.0000 0.39805  0.13472  0.07804  Biso   1.000  C
  H49      1.0000 0.38750  0.08580  0.08910  Biso   1.000  H
  C77      1.0000 0.22040  0.18690  0.11920  Biso   1.000  C
  H50      1.0000 0.19020  0.13820  0.10510  Biso   1.000  H
  H51      1.0000 0.25140  0.23480  0.10480  Biso   1.000  H
  H52      1.0000 0.18190  0.19470  0.13310  Biso   1.000  H
  O26      1.0000 0.44057  0.02896  0.04447  Biso   1.000  O
  C78      1.0000 0.28070  0.17560  0.14269  Biso   1.000  C
  O27      1.0000 0.14765  0.44311  0.33095  Biso   1.000  O
  C79      1.0000 0.11833  0.42484  0.36092  Biso   1.000  C
  C80      1.0000 0.06987  0.56833  0.48888  Biso   1.000  C
  C81      1.0000 0.09590  0.48331  0.37790  Biso   1.000  C
  C82      1.0000 0.06472  0.46805  0.41137  Biso   1.000  C
  H53      1.0000 0.05417  0.41913  0.42243  Biso   1.000  H
  C83      1.0000 0.88707  0.52023  0.45253  Biso   1.000  C
  H54      1.0000 0.85687  0.47153  0.43843  Biso   1.000  H
  H55      1.0000 0.91807  0.56813  0.43813  Biso   1.000  H
  H56      1.0000 0.84857  0.52803  0.46643  Biso   1.000  H
  O28      1.0000 0.10724  0.36229  0.37780  Biso   1.000  O
  C84      1.0000 0.94737  0.50893  0.47602  Biso   1.000  C
  O29      1.0000 0.81431  0.77645  0.66429  Biso   1.000  O
  C85      1.0000 0.78499  0.75818  0.69426  Biso   1.000  C
  C86      1.0000 0.73653  0.90167  0.82222  Biso   1.000  C
  C87      1.0000 0.76256  0.81665  0.71124  Biso   1.000  C
  C88      1.0000 0.73138  0.80139  0.74471  Biso   1.000  C
  H57      1.0000 0.72083  0.75247  0.75577  Biso   1.000  H
  C89      1.0000 0.55373  0.85357  0.78587  Biso   1.000  C
  H58      1.0000 0.52353  0.80487  0.77177  Biso   1.000  H
  H59      1.0000 0.58473  0.90147  0.77147  Biso   1.000  H
  H60      1.0000 0.51523  0.86137  0.79977  Biso   1.000  H
  O30      1.0000 0.77390  0.69563  0.71114  Biso   1.000  O
  C90      1.0000 0.61403  0.84227  0.80936  Biso   1.000  C
  O31      1.0000 0.62880  0.51902  0.99762  Biso   1.000  O
  C91      1.0000 0.63985  0.54834  0.02759  Biso   1.000  C
  C92      1.0000 0.83180  0.59680  0.15555  Biso   1.000  C
  C93      1.0000 0.72075  0.57077  0.04457  Biso   1.000  C
  C94      1.0000 0.73667  0.60195  0.07804  Biso   1.000  C
  H61      1.0000 0.69830  0.61250  0.08910  Biso   1.000  H
  C95      1.0000 0.96650  0.77960  0.11920  Biso   1.000  C
  H62      1.0000 0.94800  0.80980  0.10510  Biso   1.000  H
  H63      1.0000 0.98340  0.74860  0.10480  Biso   1.000  H
  H64      1.0000 0.01280  0.81810  0.13310  Biso   1.000  H
  O32      1.0000 0.58839  0.55943  0.04447  Biso   1.000  O
  C96      1.0000 0.89490  0.71930  0.14269  Biso   1.000  C
  O33      1.0000 0.29547  0.85235  0.33095  Biso   1.000  O
  C97      1.0000 0.30652  0.88167  0.36092  Biso   1.000  C
  C98      1.0000 0.49847  0.93013  0.48888  Biso   1.000  C
  C99      1.0000 0.38742  0.90410  0.37790  Biso   1.000  C
  C100     1.0000 0.40334  0.93528  0.41137  Biso   1.000  C
  H65      1.0000 0.36497  0.94583  0.42243  Biso   1.000  H
  C101     1.0000 0.63317  0.11293  0.45253  Biso   1.000  C
  H66      1.0000 0.61467  0.14313  0.43843  Biso   1.000  H
  H67      1.0000 0.65007  0.08193  0.43813  Biso   1.000  H
  H68      1.0000 0.67947  0.15143  0.46643  Biso   1.000  H
  O34      1.0000 0.25506  0.89276  0.37780  Biso   1.000  O
  C102     1.0000 0.56157  0.05263  0.47602  Biso   1.000  C
  O35      1.0000 0.96213  0.18569  0.66429  Biso   1.000  O
  C103     1.0000 0.97318  0.21501  0.69426  Biso   1.000  C
  C104     1.0000 0.16513  0.26347  0.82222  Biso   1.000  C
  C105     1.0000 0.05408  0.23744  0.71124  Biso   1.000  C
  C106     1.0000 0.07000  0.26862  0.74471  Biso   1.000  C
  H69      1.0000 0.03163  0.27917  0.75577  Biso   1.000  H
  C107     1.0000 0.29983  0.44627  0.78587  Biso   1.000  C
  H70      1.0000 0.28133  0.47647  0.77177  Biso   1.000  H
  H71      1.0000 0.31673  0.41527  0.77147  Biso   1.000  H
  H72      1.0000 0.34613  0.48477  0.79977  Biso   1.000  H
  O36      1.0000 0.92172  0.22610  0.71114  Biso   1.000  O
  C108     1.0000 0.22823  0.38597  0.80936  Biso   1.000  C
  O37      1.0000 0.62880  0.10978  0.99762  Biso   1.000  O
  C109     1.0000 0.63985  0.09151  0.02759  Biso   1.000  C
  C110     1.0000 0.83180  0.23500  0.15555  Biso   1.000  C
  C111     1.0000 0.72075  0.14998  0.04457  Biso   1.000  C
  C112     1.0000 0.73667  0.13472  0.07804  Biso   1.000  C
  H73      1.0000 0.69830  0.08580  0.08910  Biso   1.000  H
  C113     1.0000 0.96650  0.18690  0.11920  Biso   1.000  C
  H74      1.0000 0.94800  0.13820  0.10510  Biso   1.000  H
  H75      1.0000 0.98340  0.23480  0.10480  Biso   1.000  H
  H76      1.0000 0.01280  0.19470  0.13310  Biso   1.000  H
  O38      1.0000 0.58839  0.02896  0.04447  Biso   1.000  O
  C114     1.0000 0.89490  0.17560  0.14269  Biso   1.000  C
  O39      1.0000 0.29547  0.44311  0.33095  Biso   1.000  O
  C115     1.0000 0.30652  0.42484  0.36092  Biso   1.000  C
  C116     1.0000 0.49847  0.56833  0.48888  Biso   1.000  C
  C117     1.0000 0.38742  0.48331  0.37790  Biso   1.000  C
  C118     1.0000 0.40334  0.46805  0.41137  Biso   1.000  C
  H77      1.0000 0.36497  0.41913  0.42243  Biso   1.000  H
  C119     1.0000 0.63317  0.52023  0.45253  Biso   1.000  C
  H78      1.0000 0.61467  0.47153  0.43843  Biso   1.000  H
  H79      1.0000 0.65007  0.56813  0.43813  Biso   1.000  H
  H80      1.0000 0.67947  0.52803  0.46643  Biso   1.000  H
  O40      1.0000 0.25506  0.36229  0.37780  Biso   1.000  O
  C120     1.0000 0.56157  0.50893  0.47602  Biso   1.000  C
  O41      1.0000 0.96213  0.77645  0.66429  Biso   1.000  O
  C121     1.0000 0.97318  0.75818  0.69426  Biso   1.000  C
  C122     1.0000 0.16513  0.90167  0.82222  Biso   1.000  C
  C123     1.0000 0.05408  0.81665  0.71124  Biso   1.000  C
  C124     1.0000 0.07000  0.80139  0.74471  Biso   1.000  C
  H81      1.0000 0.03163  0.75247  0.75577  Biso   1.000  H
  C125     1.0000 0.29983  0.85357  0.78587  Biso   1.000  C
  H82      1.0000 0.28133  0.80487  0.77177  Biso   1.000  H
  H83      1.0000 0.31673  0.90147  0.77147  Biso   1.000  H
  H84      1.0000 0.34613  0.86137  0.79977  Biso   1.000  H
  O42      1.0000 0.92172  0.69563  0.71114  Biso   1.000  O
  C126     1.0000 0.22823  0.84227  0.80936  Biso   1.000  C
  O43      1.0000 0.89022  0.51902  0.99762  Biso   1.000  O
  C127     1.0000 0.90849  0.54834  0.02759  Biso   1.000  C
  C128     1.0000 0.76500  0.59680  0.15555  Biso   1.000  C
  C129     1.0000 0.85002  0.57077  0.04457  Biso   1.000  C
  C130     1.0000 0.86528  0.60195  0.07804  Biso   1.000  C
  H85      1.0000 0.91420  0.61250  0.08910  Biso   1.000  H
  C131     1.0000 0.81310  0.77960  0.11920  Biso   1.000  C
  H86      1.0000 0.86180  0.80980  0.10510  Biso   1.000  H
  H87      1.0000 0.76520  0.74860  0.10480  Biso   1.000  H
  H88      1.0000 0.80530  0.81810  0.13310  Biso   1.000  H
  O44      1.0000 0.97104  0.55943  0.04447  Biso   1.000  O
  C132     1.0000 0.82440  0.71930  0.14269  Biso   1.000  C
  O45      1.0000 0.55689  0.85235  0.33095  Biso   1.000  O
  C133     1.0000 0.57516  0.88167  0.36092  Biso   1.000  C
  C134     1.0000 0.43167  0.93013  0.48888  Biso   1.000  C
  C135     1.0000 0.51669  0.90410  0.37790  Biso   1.000  C
  C136     1.0000 0.53195  0.93528  0.41137  Biso   1.000  C
  H89      1.0000 0.58087  0.94583  0.42243  Biso   1.000  H
  C137     1.0000 0.47977  0.11293  0.45253  Biso   1.000  C
  H90      1.0000 0.52847  0.14313  0.43843  Biso   1.000  H
  H91      1.0000 0.43187  0.08193  0.43813  Biso   1.000  H
  H92      1.0000 0.47197  0.15143  0.46643  Biso   1.000  H
  O46      1.0000 0.63771  0.89276  0.37780  Biso   1.000  O
  C138     1.0000 0.49107  0.05263  0.47602  Biso   1.000  C
  O47      1.0000 0.22355  0.18569  0.66429  Biso   1.000  O
  C139     1.0000 0.24182  0.21501  0.69426  Biso   1.000  C
  C140     1.0000 0.09833  0.26347  0.82222  Biso   1.000  C
  C141     1.0000 0.18335  0.23744  0.71124  Biso   1.000  C
  C142     1.0000 0.19861  0.26862  0.74471  Biso   1.000  C
  H93      1.0000 0.24753  0.27917  0.75577  Biso   1.000  H
  C143     1.0000 0.14643  0.44627  0.78587  Biso   1.000  C
  H94      1.0000 0.19513  0.47647  0.77177  Biso   1.000  H
  H95      1.0000 0.09853  0.41527  0.77147  Biso   1.000  H
  H96      1.0000 0.13863  0.48477  0.79977  Biso   1.000  H
  O48      1.0000 0.30437  0.22610  0.71114  Biso   1.000  O
  C144     1.0000 0.15773  0.38597  0.80936  Biso   1.000  C
  O49      1.0000 0.48098  0.37120  0.99762  Biso   1.000  O
  C145     1.0000 0.45166  0.36015  0.02759  Biso   1.000  C
  C146     1.0000 0.40320  0.16820  0.15555  Biso   1.000  C
  C147     1.0000 0.42923  0.27925  0.04457  Biso   1.000  C
  C148     1.0000 0.39805  0.26333  0.07804  Biso   1.000  C
  H97      1.0000 0.38750  0.30170  0.08910  Biso   1.000  H
  C149     1.0000 0.22040  0.03350  0.11920  Biso   1.000  C
  H98      1.0000 0.19020  0.05200  0.10510  Biso   1.000  H
  H99      1.0000 0.25140  0.01660  0.10480  Biso   1.000  H
  H100     1.0000 0.18190  0.98720  0.13310  Biso   1.000  H
  O50      1.0000 0.44057  0.41161  0.04447  Biso   1.000  O
  C150     1.0000 0.28070  0.10510  0.14269  Biso   1.000  C
  O51      1.0000 0.14765  0.70453  0.33095  Biso   1.000  O
  C151     1.0000 0.11833  0.69348  0.36092  Biso   1.000  C
  C152     1.0000 0.06987  0.50153  0.48888  Biso   1.000  C
  C153     1.0000 0.09590  0.61258  0.37790  Biso   1.000  C
  C154     1.0000 0.06472  0.59666  0.41137  Biso   1.000  C
  H101     1.0000 0.05417  0.63503  0.42243  Biso   1.000  H
  C155     1.0000 0.88707  0.36683  0.45253  Biso   1.000  C
  H102     1.0000 0.85687  0.38533  0.43843  Biso   1.000  H
  H103     1.0000 0.91807  0.34993  0.43813  Biso   1.000  H
  H104     1.0000 0.84857  0.32053  0.46643  Biso   1.000  H
  O52      1.0000 0.10724  0.74494  0.37780  Biso   1.000  O
  C156     1.0000 0.94737  0.43843  0.47602  Biso   1.000  C
  O53      1.0000 0.81431  0.03787  0.66429  Biso   1.000  O
  C157     1.0000 0.78499  0.02682  0.69426  Biso   1.000  C
  C158     1.0000 0.73653  0.83487  0.82222  Biso   1.000  C
  C159     1.0000 0.76256  0.94592  0.71124  Biso   1.000  C
  C160     1.0000 0.73138  0.93000  0.74471  Biso   1.000  C
  H105     1.0000 0.72083  0.96837  0.75577  Biso   1.000  H
  C161     1.0000 0.55373  0.70017  0.78587  Biso   1.000  C
  H106     1.0000 0.52353  0.71867  0.77177  Biso   1.000  H
  H107     1.0000 0.58473  0.68327  0.77147  Biso   1.000  H
  H108     1.0000 0.51523  0.65387  0.79977  Biso   1.000  H
  O54      1.0000 0.77390  0.07828  0.71114  Biso   1.000  O
  C162     1.0000 0.61403  0.77177  0.80936  Biso   1.000  C
  O55      1.0000 0.10978  0.62880  0.00238  Biso   1.000  O
  C163     1.0000 0.09151  0.63985  0.97241  Biso   1.000  C
  C164     1.0000 0.23500  0.83180  0.84445  Biso   1.000  C
  C165     1.0000 0.14998  0.72075  0.95543  Biso   1.000  C
  C166     1.0000 0.13472  0.73667  0.92196  Biso   1.000  C
  H109     1.0000 0.08580  0.69830  0.91090  Biso   1.000  H
  C167     1.0000 0.18690  0.96650  0.88080  Biso   1.000  C
  H110     1.0000 0.13820  0.94800  0.89490  Biso   1.000  H
  H111     1.0000 0.23480  0.98340  0.89520  Biso   1.000  H
  H112     1.0000 0.19470  0.01280  0.86690  Biso   1.000  H
  O56      1.0000 0.02896  0.58839  0.95553  Biso   1.000  O
  C168     1.0000 0.17560  0.89490  0.85731  Biso   1.000  C
  O57      1.0000 0.77645  0.96213  0.33571  Biso   1.000  O
  C169     1.0000 0.75818  0.97318  0.30574  Biso   1.000  C
  C170     1.0000 0.90167  0.16513  0.17778  Biso   1.000  C
  C171     1.0000 0.81665  0.05408  0.28876  Biso   1.000  C
  C172     1.0000 0.80139  0.07000  0.25529  Biso   1.000  C
  H113     1.0000 0.75247  0.03163  0.24423  Biso   1.000  H
  C173     1.0000 0.85357  0.29983  0.21413  Biso   1.000  C
  H114     1.0000 0.80487  0.28133  0.22823  Biso   1.000  H
  H115     1.0000 0.90147  0.31673  0.22853  Biso   1.000  H
  H116     1.0000 0.86137  0.34613  0.20023  Biso   1.000  H
  O58      1.0000 0.69563  0.92172  0.28886  Biso   1.000  O
  C174     1.0000 0.84227  0.22823  0.19064  Biso   1.000  C
  O59      1.0000 0.44311  0.29547  0.66905  Biso   1.000  O
  C175     1.0000 0.42484  0.30652  0.63908  Biso   1.000  C
  C176     1.0000 0.56833  0.49847  0.51112  Biso   1.000  C
  C177     1.0000 0.48331  0.38742  0.62210  Biso   1.000  C
  C178     1.0000 0.46805  0.40334  0.58863  Biso   1.000  C
  H117     1.0000 0.41913  0.36497  0.57757  Biso   1.000  H
  C179     1.0000 0.52023  0.63317  0.54747  Biso   1.000  C
  H118     1.0000 0.47153  0.61467  0.56157  Biso   1.000  H
  H119     1.0000 0.56813  0.65007  0.56187  Biso   1.000  H
  H120     1.0000 0.52803  0.67947  0.53357  Biso   1.000  H
  O60      1.0000 0.36229  0.25506  0.62220  Biso   1.000  O
  C180     1.0000 0.50893  0.56157  0.52398  Biso   1.000  C
  O61      1.0000 0.51902  0.89022  0.00238  Biso   1.000  O
  C181     1.0000 0.54834  0.90849  0.97241  Biso   1.000  C
  C182     1.0000 0.59680  0.76500  0.84445  Biso   1.000  C
  C183     1.0000 0.57077  0.85002  0.95543  Biso   1.000  C
  C184     1.0000 0.60195  0.86528  0.92196  Biso   1.000  C
  H121     1.0000 0.61250  0.91420  0.91090  Biso   1.000  H
  C185     1.0000 0.77960  0.81310  0.88080  Biso   1.000  C
  H122     1.0000 0.80980  0.86180  0.89490  Biso   1.000  H
  H123     1.0000 0.74860  0.76520  0.89520  Biso   1.000  H
  H124     1.0000 0.81810  0.80530  0.86690  Biso   1.000  H
  O62      1.0000 0.55943  0.97104  0.95553  Biso   1.000  O
  C186     1.0000 0.71930  0.82440  0.85731  Biso   1.000  C
  O63      1.0000 0.18569  0.22355  0.33571  Biso   1.000  O
  C187     1.0000 0.21501  0.24182  0.30574  Biso   1.000  C
  C188     1.0000 0.26347  0.09833  0.17778  Biso   1.000  C
  C189     1.0000 0.23744  0.18335  0.28876  Biso   1.000  C
  C190     1.0000 0.26862  0.19861  0.25529  Biso   1.000  C
  H125     1.0000 0.27917  0.24753  0.24423  Biso   1.000  H
  C191     1.0000 0.44627  0.14643  0.21413  Biso   1.000  C
  H126     1.0000 0.47647  0.19513  0.22823  Biso   1.000  H
  H127     1.0000 0.41527  0.09853  0.22853  Biso   1.000  H
  H128     1.0000 0.48477  0.13863  0.20023  Biso   1.000  H
  O64      1.0000 0.22610  0.30437  0.28886  Biso   1.000  O
  C192     1.0000 0.38597  0.15773  0.19064  Biso   1.000  C
  O65      1.0000 0.85235  0.55689  0.66905  Biso   1.000  O
  C193     1.0000 0.88167  0.57516  0.63908  Biso   1.000  C
  C194     1.0000 0.93013  0.43167  0.51112  Biso   1.000  C
  C195     1.0000 0.90410  0.51669  0.62210  Biso   1.000  C
  C196     1.0000 0.93528  0.53195  0.58863  Biso   1.000  C
  H129     1.0000 0.94583  0.58087  0.57757  Biso   1.000  H
  C197     1.0000 0.11293  0.47977  0.54747  Biso   1.000  C
  H130     1.0000 0.14313  0.52847  0.56157  Biso   1.000  H
  H131     1.0000 0.08193  0.43187  0.56187  Biso   1.000  H
  H132     1.0000 0.15143  0.47197  0.53357  Biso   1.000  H
  O66      1.0000 0.89276  0.63771  0.62220  Biso   1.000  O
  C198     1.0000 0.05263  0.49107  0.52398  Biso   1.000  C
  O67      1.0000 0.37120  0.48098  0.00238  Biso   1.000  O
  C199     1.0000 0.36015  0.45166  0.97241  Biso   1.000  C
  C200     1.0000 0.16820  0.40320  0.84445  Biso   1.000  C
  C201     1.0000 0.27925  0.42923  0.95543  Biso   1.000  C
  C202     1.0000 0.26333  0.39805  0.92196  Biso   1.000  C
  H133     1.0000 0.30170  0.38750  0.91090  Biso   1.000  H
  C203     1.0000 0.03350  0.22040  0.88080  Biso   1.000  C
  H134     1.0000 0.05200  0.19020  0.89490  Biso   1.000  H
  H135     1.0000 0.01660  0.25140  0.89520  Biso   1.000  H
  H136     1.0000 0.98720  0.18190  0.86690  Biso   1.000  H
  O68      1.0000 0.41161  0.44057  0.95553  Biso   1.000  O
  C204     1.0000 0.10510  0.28070  0.85731  Biso   1.000  C
  O69      1.0000 0.03787  0.81431  0.33571  Biso   1.000  O
  C205     1.0000 0.02682  0.78499  0.30574  Biso   1.000  C
  C206     1.0000 0.83487  0.73653  0.17778  Biso   1.000  C
  C207     1.0000 0.94592  0.76256  0.28876  Biso   1.000  C
  C208     1.0000 0.93000  0.73138  0.25529  Biso   1.000  C
  H137     1.0000 0.96837  0.72083  0.24423  Biso   1.000  H
  C209     1.0000 0.70017  0.55373  0.21413  Biso   1.000  C
  H138     1.0000 0.71867  0.52353  0.22823  Biso   1.000  H
  H139     1.0000 0.68327  0.58473  0.22853  Biso   1.000  H
  H140     1.0000 0.65387  0.51523  0.20023  Biso   1.000  H
  O70      1.0000 0.07828  0.77390  0.28886  Biso   1.000  O
  C210     1.0000 0.77177  0.61403  0.19064  Biso   1.000  C
  O71      1.0000 0.70453  0.14765  0.66905  Biso   1.000  O
  C211     1.0000 0.69348  0.11833  0.63908  Biso   1.000  C
  C212     1.0000 0.50153  0.06987  0.51112  Biso   1.000  C
  C213     1.0000 0.61258  0.09590  0.62210  Biso   1.000  C
  C214     1.0000 0.59666  0.06472  0.58863  Biso   1.000  C
  H141     1.0000 0.63503  0.05417  0.57757  Biso   1.000  H
  C215     1.0000 0.36683  0.88707  0.54747  Biso   1.000  C
  H142     1.0000 0.38533  0.85687  0.56157  Biso   1.000  H
  H143     1.0000 0.34993  0.91807  0.56187  Biso   1.000  H
  H144     1.0000 0.32053  0.84857  0.53357  Biso   1.000  H
  O72      1.0000 0.74494  0.10724  0.62220  Biso   1.000  O
  C216     1.0000 0.43843  0.94737  0.52398  Biso   1.000  C
  Cu1      1.0000 0.47601  0.95202  0.02764  Biso   1.000  Cu
  Cu2      1.0000 0.14268  0.28535  0.36097  Biso   1.000  Cu
  Cu3      1.0000 0.80934  0.61869  0.69431  Biso   1.000  Cu
  Cu4      1.0000 0.04798  0.52399  0.02764  Biso   1.000  Cu
  Cu5      1.0000 0.71465  0.85732  0.36097  Biso   1.000  Cu
  Cu6      1.0000 0.38131  0.19066  0.69431  Biso   1.000  Cu
  Cu7      1.0000 0.47601  0.52399  0.02764  Biso   1.000  Cu
  Cu8      1.0000 0.14268  0.85732  0.36097  Biso   1.000  Cu
  Cu9      1.0000 0.80934  0.19066  0.69431  Biso   1.000  Cu
  Cu10     1.0000 0.95202  0.47601  0.97236  Biso   1.000  Cu
  Cu11     1.0000 0.61869  0.80934  0.30569  Biso   1.000  Cu
  Cu12     1.0000 0.28535  0.14268  0.63903  Biso   1.000  Cu
  Cu13     1.0000 0.52399  0.04798  0.97236  Biso   1.000  Cu
  Cu14     1.0000 0.19066  0.38131  0.30569  Biso   1.000  Cu
  Cu15     1.0000 0.85732  0.71465  0.63903  Biso   1.000  Cu
  Cu16     1.0000 0.52399  0.47601  0.97236  Biso   1.000  Cu
  Cu17     1.0000 0.19066  0.80934  0.30569  Biso   1.000  Cu
  Cu18     1.0000 0.85732  0.14268  0.63903  Biso   1.000  Cu
  C217     1.0000 0.22187  0.77813  0.97196  Biso   1.000  C
  H145     1.0000 0.23180  0.76820  0.99440  Biso   1.000  H
  C218     1.0000 0.19128  0.80872  0.90489  Biso   1.000  C
  C219     1.0000 0.17716  0.82284  0.86798  Biso   1.000  C
  C220     1.0000 0.88854  0.11146  0.30529  Biso   1.000  C
  H146     1.0000 0.89847  0.10153  0.32773  Biso   1.000  H
  C221     1.0000 0.85795  0.14205  0.23822  Biso   1.000  C
  C222     1.0000 0.84383  0.15617  0.20131  Biso   1.000  C
  C223     1.0000 0.55520  0.44480  0.63863  Biso   1.000  C
  H147     1.0000 0.56513  0.43487  0.66107  Biso   1.000  H
  C224     1.0000 0.52461  0.47539  0.57156  Biso   1.000  C
  C225     1.0000 0.51049  0.48951  0.53465  Biso   1.000  C
  C226     1.0000 0.22187  0.44374  0.97196  Biso   1.000  C
  H148     1.0000 0.23180  0.46360  0.99440  Biso   1.000  H
  C227     1.0000 0.19128  0.38256  0.90489  Biso   1.000  C
  C228     1.0000 0.17716  0.35432  0.86798  Biso   1.000  C
  C229     1.0000 0.88854  0.77707  0.30529  Biso   1.000  C
  H149     1.0000 0.89847  0.79693  0.32773  Biso   1.000  H
  C230     1.0000 0.85795  0.71589  0.23822  Biso   1.000  C
  C231     1.0000 0.84383  0.68765  0.20131  Biso   1.000  C
  C232     1.0000 0.55520  0.11041  0.63863  Biso   1.000  C
  H150     1.0000 0.56513  0.13027  0.66107  Biso   1.000  H
  C233     1.0000 0.52461  0.04923  0.57156  Biso   1.000  C
  C234     1.0000 0.51049  0.02099  0.53465  Biso   1.000  C
  C235     1.0000 0.55626  0.77813  0.97196  Biso   1.000  C
  H151     1.0000 0.53640  0.76820  0.99440  Biso   1.000  H
  C236     1.0000 0.61744  0.80872  0.90489  Biso   1.000  C
  C237     1.0000 0.64568  0.82284  0.86798  Biso   1.000  C
  C238     1.0000 0.22293  0.11146  0.30529  Biso   1.000  C
  H152     1.0000 0.20307  0.10153  0.32773  Biso   1.000  H
  C239     1.0000 0.28411  0.14205  0.23822  Biso   1.000  C
  C240     1.0000 0.31235  0.15617  0.20131  Biso   1.000  C
  C241     1.0000 0.88959  0.44480  0.63863  Biso   1.000  C
  H153     1.0000 0.86973  0.43487  0.66107  Biso   1.000  H
  C242     1.0000 0.95077  0.47539  0.57156  Biso   1.000  C
  C243     1.0000 0.97901  0.48951  0.53465  Biso   1.000  C
  C244     1.0000 0.77813  0.22187  0.02804  Biso   1.000  C
  H154     1.0000 0.76820  0.23180  0.00560  Biso   1.000  H
  C245     1.0000 0.80872  0.19128  0.09511  Biso   1.000  C
  C246     1.0000 0.82284  0.17716  0.13202  Biso   1.000  C
  C247     1.0000 0.44480  0.55520  0.36137  Biso   1.000  C
  H155     1.0000 0.43487  0.56513  0.33893  Biso   1.000  H
  C248     1.0000 0.47539  0.52461  0.42844  Biso   1.000  C
  C249     1.0000 0.48951  0.51049  0.46535  Biso   1.000  C
  C250     1.0000 0.11146  0.88854  0.69471  Biso   1.000  C
  H156     1.0000 0.10153  0.89847  0.67227  Biso   1.000  H
  C251     1.0000 0.14205  0.85795  0.76178  Biso   1.000  C
  C252     1.0000 0.15617  0.84383  0.79869  Biso   1.000  C
  C253     1.0000 0.44374  0.22187  0.02804  Biso   1.000  C
  H157     1.0000 0.46360  0.23180  0.00560  Biso   1.000  H
  C254     1.0000 0.38256  0.19128  0.09511  Biso   1.000  C
  C255     1.0000 0.35432  0.17716  0.13202  Biso   1.000  C
  C256     1.0000 0.11041  0.55520  0.36137  Biso   1.000  C
  H158     1.0000 0.13027  0.56513  0.33893  Biso   1.000  H
  C257     1.0000 0.04923  0.52461  0.42844  Biso   1.000  C
  C258     1.0000 0.02099  0.51049  0.46535  Biso   1.000  C
  C259     1.0000 0.77707  0.88854  0.69471  Biso   1.000  C
  H159     1.0000 0.79693  0.89847  0.67227  Biso   1.000  H
  C260     1.0000 0.71589  0.85795  0.76178  Biso   1.000  C
  C261     1.0000 0.68765  0.84383  0.79869  Biso   1.000  C
  C262     1.0000 0.77813  0.55626  0.02804  Biso   1.000  C
  H160     1.0000 0.76820  0.53640  0.00560  Biso   1.000  H
  C263     1.0000 0.80872  0.61744  0.09511  Biso   1.000  C
  C264     1.0000 0.82284  0.64568  0.13202  Biso   1.000  C
  C265     1.0000 0.44480  0.88959  0.36137  Biso   1.000  C
  H161     1.0000 0.43487  0.86973  0.33893  Biso   1.000  H
  C266     1.0000 0.47539  0.95077  0.42844  Biso   1.000  C
  C267     1.0000 0.48951  0.97901  0.46535  Biso   1.000  C
  C268     1.0000 0.11146  0.22293  0.69471  Biso   1.000  C
  H162     1.0000 0.10153  0.20307  0.67227  Biso   1.000  H
  C269     1.0000 0.14205  0.28411  0.76178  Biso   1.000  C
  C270     1.0000 0.15617  0.31235  0.79869  Biso   1.000  C
