data_image0
_cell_length_a       18.5396
_cell_length_b       18.5396
_cell_length_c       38.826
_cell_angle_alpha    90
_cell_angle_beta     90
_cell_angle_gamma    120

_symmetry_space_group_name_H-M    "P 1"
_symmetry_int_tables_number       1

loop_
  _symmetry_equiv_pos_as_xyz
  'x, y, z'

loop_
  _atom_site_label
  _atom_site_occupancy
  _atom_site_fract_x
  _atom_site_fract_y
  _atom_site_fract_z
  _atom_site_thermal_displace_type
  _atom_site_B_iso_or_equiv
  _atom_site_type_symbol
  O1       1.0000 0.10961  0.48080  0.00283  Biso   1.000  O
  O2       1.0000 0.02923  0.44070  0.95539  Biso   1.000  O
  O3       1.0000 0.29150  0.42310  0.78520  Biso   1.000  O
  C1       1.0000 0.09160  0.45270  0.97271  Biso   1.000  C
  C2       1.0000 0.15060  0.43040  0.95522  Biso   1.000  C
  C3       1.0000 0.13590  0.40020  0.92227  Biso   1.000  C
  H1       1.0000 0.08680  0.38920  0.91130  Biso   1.000  H
  C4       1.0000 0.22790  0.37480  0.80960  Biso   1.000  C
  C5       1.0000 0.24270  0.40210  0.84440  Biso   1.000  C
  C6       1.0000 0.36860  0.47510  0.79630  Biso   1.000  C
  H2       1.0000 0.40400  0.50280  0.77700  Biso   1.000  H
  H3       1.0000 0.36780  0.51560  0.81140  Biso   1.000  H
  H4       1.0000 0.38940  0.44420  0.80850  Biso   1.000  H
  O4       1.0000 0.77628  0.81413  0.33616  Biso   1.000  O
  O5       1.0000 0.69590  0.77403  0.28872  Biso   1.000  O
  O6       1.0000 0.95817  0.75643  0.11853  Biso   1.000  O
  C7       1.0000 0.75827  0.78603  0.30604  Biso   1.000  C
  C8       1.0000 0.81727  0.76373  0.28855  Biso   1.000  C
  C9       1.0000 0.80257  0.73353  0.25560  Biso   1.000  C
  H5       1.0000 0.75347  0.72253  0.24463  Biso   1.000  H
  C10      1.0000 0.89457  0.70813  0.14293  Biso   1.000  C
  C11      1.0000 0.90937  0.73543  0.17773  Biso   1.000  C
  C12      1.0000 0.03527  0.80843  0.12963  Biso   1.000  C
  H6       1.0000 0.07067  0.83613  0.11033  Biso   1.000  H
  H7       1.0000 0.03447  0.84893  0.14473  Biso   1.000  H
  H8       1.0000 0.05607  0.77753  0.14183  Biso   1.000  H
  O7       1.0000 0.44294  0.14747  0.66950  Biso   1.000  O
  O8       1.0000 0.36256  0.10737  0.62206  Biso   1.000  O
  O9       1.0000 0.62483  0.08977  0.45187  Biso   1.000  O
  C13      1.0000 0.42493  0.11937  0.63938  Biso   1.000  C
  C14      1.0000 0.48393  0.09707  0.62189  Biso   1.000  C
  C15      1.0000 0.46923  0.06687  0.58894  Biso   1.000  C
  H9       1.0000 0.42013  0.05587  0.57797  Biso   1.000  H
  C16      1.0000 0.56123  0.04147  0.47627  Biso   1.000  C
  C17      1.0000 0.57603  0.06877  0.51107  Biso   1.000  C
  C18      1.0000 0.70193  0.14177  0.46297  Biso   1.000  C
  H10      1.0000 0.73733  0.16947  0.44367  Biso   1.000  H
  H11      1.0000 0.70113  0.18227  0.47807  Biso   1.000  H
  H12      1.0000 0.72273  0.11087  0.47517  Biso   1.000  H
  O10      1.0000 0.51920  0.62881  0.00283  Biso   1.000  O
  O11      1.0000 0.55930  0.58853  0.95539  Biso   1.000  O
  O12      1.0000 0.57690  0.86840  0.78520  Biso   1.000  O
  C19      1.0000 0.54730  0.63890  0.97271  Biso   1.000  C
  C20      1.0000 0.56960  0.72020  0.95522  Biso   1.000  C
  C21      1.0000 0.59980  0.73570  0.92227  Biso   1.000  C
  H13      1.0000 0.61080  0.69760  0.91130  Biso   1.000  H
  C22      1.0000 0.62520  0.85310  0.80960  Biso   1.000  C
  C23      1.0000 0.59790  0.84060  0.84440  Biso   1.000  C
  C24      1.0000 0.52490  0.89350  0.79630  Biso   1.000  C
  H14      1.0000 0.49720  0.90120  0.77700  Biso   1.000  H
  H15      1.0000 0.48440  0.85220  0.81140  Biso   1.000  H
  H16      1.0000 0.55580  0.94520  0.80850  Biso   1.000  H
  O13      1.0000 0.18587  0.96214  0.33616  Biso   1.000  O
  O14      1.0000 0.22597  0.92186  0.28872  Biso   1.000  O
  O15      1.0000 0.24357  0.20173  0.11853  Biso   1.000  O
  C25      1.0000 0.21397  0.97223  0.30604  Biso   1.000  C
  C26      1.0000 0.23627  0.05353  0.28855  Biso   1.000  C
  C27      1.0000 0.26647  0.06903  0.25560  Biso   1.000  C
  H17      1.0000 0.27747  0.03093  0.24463  Biso   1.000  H
  C28      1.0000 0.29187  0.18643  0.14293  Biso   1.000  C
  C29      1.0000 0.26457  0.17393  0.17773  Biso   1.000  C
  C30      1.0000 0.19157  0.22683  0.12963  Biso   1.000  C
  H18      1.0000 0.16387  0.23453  0.11033  Biso   1.000  H
  H19      1.0000 0.15107  0.18553  0.14473  Biso   1.000  H
  H20      1.0000 0.22247  0.27853  0.14183  Biso   1.000  H
  O16      1.0000 0.85253  0.29548  0.66950  Biso   1.000  O
  O17      1.0000 0.89263  0.25520  0.62206  Biso   1.000  O
  O18      1.0000 0.91023  0.53507  0.45187  Biso   1.000  O
  C31      1.0000 0.88063  0.30557  0.63938  Biso   1.000  C
  C32      1.0000 0.90293  0.38687  0.62189  Biso   1.000  C
  C33      1.0000 0.93313  0.40237  0.58894  Biso   1.000  C
  H21      1.0000 0.94413  0.36427  0.57797  Biso   1.000  H
  C34      1.0000 0.95853  0.51977  0.47627  Biso   1.000  C
  C35      1.0000 0.93123  0.50727  0.51107  Biso   1.000  C
  C36      1.0000 0.85823  0.56017  0.46297  Biso   1.000  C
  H22      1.0000 0.83053  0.56787  0.44367  Biso   1.000  H
  H23      1.0000 0.81773  0.51887  0.47807  Biso   1.000  H
  H24      1.0000 0.88913  0.61187  0.47517  Biso   1.000  H
  O19      1.0000 0.37119  0.89039  0.00283  Biso   1.000  O
  O20      1.0000 0.41147  0.97077  0.95539  Biso   1.000  O
  O21      1.0000 0.13160  0.70850  0.78520  Biso   1.000  O
  C37      1.0000 0.36110  0.90840  0.97271  Biso   1.000  C
  C38      1.0000 0.27980  0.84940  0.95522  Biso   1.000  C
  C39      1.0000 0.26430  0.86410  0.92227  Biso   1.000  C
  H25      1.0000 0.30240  0.91320  0.91130  Biso   1.000  H
  C40      1.0000 0.14690  0.77210  0.80960  Biso   1.000  C
  C41      1.0000 0.15940  0.75730  0.84440  Biso   1.000  C
  C42      1.0000 0.10650  0.63140  0.79630  Biso   1.000  C
  H26      1.0000 0.09880  0.59600  0.77700  Biso   1.000  H
  H27      1.0000 0.14780  0.63220  0.81140  Biso   1.000  H
  H28      1.0000 0.05480  0.61060  0.80850  Biso   1.000  H
  O22      1.0000 0.03786  0.22372  0.33616  Biso   1.000  O
  O23      1.0000 0.07814  0.30410  0.28872  Biso   1.000  O
  O24      1.0000 0.79827  0.04183  0.11853  Biso   1.000  O
  C43      1.0000 0.02777  0.24173  0.30604  Biso   1.000  C
  C44      1.0000 0.94647  0.18273  0.28855  Biso   1.000  C
  C45      1.0000 0.93097  0.19743  0.25560  Biso   1.000  C
  H29      1.0000 0.96907  0.24653  0.24463  Biso   1.000  H
  C46      1.0000 0.81357  0.10543  0.14293  Biso   1.000  C
  C47      1.0000 0.82607  0.09063  0.17773  Biso   1.000  C
  C48      1.0000 0.77317  0.96473  0.12963  Biso   1.000  C
  H30      1.0000 0.76547  0.92933  0.11033  Biso   1.000  H
  H31      1.0000 0.81447  0.96553  0.14473  Biso   1.000  H
  H32      1.0000 0.72147  0.94393  0.14183  Biso   1.000  H
  O25      1.0000 0.70452  0.55706  0.66950  Biso   1.000  O
  O26      1.0000 0.74480  0.63744  0.62206  Biso   1.000  O
  O27      1.0000 0.46493  0.37517  0.45187  Biso   1.000  O
  C49      1.0000 0.69443  0.57507  0.63938  Biso   1.000  C
  C50      1.0000 0.61313  0.51607  0.62189  Biso   1.000  C
  C51      1.0000 0.59763  0.53077  0.58894  Biso   1.000  C
  H33      1.0000 0.63573  0.57987  0.57797  Biso   1.000  H
  C52      1.0000 0.48023  0.43877  0.47627  Biso   1.000  C
  C53      1.0000 0.49273  0.42397  0.51107  Biso   1.000  C
  C54      1.0000 0.43983  0.29807  0.46297  Biso   1.000  C
  H34      1.0000 0.43213  0.26267  0.44367  Biso   1.000  H
  H35      1.0000 0.48113  0.29887  0.47807  Biso   1.000  H
  H36      1.0000 0.38813  0.27727  0.47517  Biso   1.000  H
  O28      1.0000 0.48080  0.10961  0.99717  Biso   1.000  O
  O29      1.0000 0.44070  0.02923  0.04461  Biso   1.000  O
  O30      1.0000 0.42310  0.29150  0.21480  Biso   1.000  O
  C55      1.0000 0.45270  0.09160  0.02729  Biso   1.000  C
  C56      1.0000 0.43040  0.15060  0.04478  Biso   1.000  C
  C57      1.0000 0.40020  0.13590  0.07773  Biso   1.000  C
  H37      1.0000 0.38920  0.08680  0.08870  Biso   1.000  H
  C58      1.0000 0.37480  0.22790  0.19040  Biso   1.000  C
  C59      1.0000 0.40210  0.24270  0.15560  Biso   1.000  C
  C60      1.0000 0.47510  0.36860  0.20370  Biso   1.000  C
  H38      1.0000 0.50280  0.40400  0.22300  Biso   1.000  H
  H39      1.0000 0.51560  0.36780  0.18860  Biso   1.000  H
  H40      1.0000 0.44420  0.38940  0.19150  Biso   1.000  H
  O31      1.0000 0.14747  0.44294  0.33050  Biso   1.000  O
  O32      1.0000 0.10737  0.36256  0.37794  Biso   1.000  O
  O33      1.0000 0.08977  0.62483  0.54813  Biso   1.000  O
  C61      1.0000 0.11937  0.42493  0.36062  Biso   1.000  C
  C62      1.0000 0.09707  0.48393  0.37811  Biso   1.000  C
  C63      1.0000 0.06687  0.46923  0.41106  Biso   1.000  C
  H41      1.0000 0.05587  0.42013  0.42203  Biso   1.000  H
  C64      1.0000 0.04147  0.56123  0.52373  Biso   1.000  C
  C65      1.0000 0.06877  0.57603  0.48893  Biso   1.000  C
  C66      1.0000 0.14177  0.70193  0.53703  Biso   1.000  C
  H42      1.0000 0.16947  0.73733  0.55633  Biso   1.000  H
  H43      1.0000 0.18227  0.70113  0.52193  Biso   1.000  H
  H44      1.0000 0.11087  0.72273  0.52483  Biso   1.000  H
  O34      1.0000 0.81413  0.77628  0.66384  Biso   1.000  O
  O35      1.0000 0.77403  0.69590  0.71128  Biso   1.000  O
  O36      1.0000 0.75643  0.95817  0.88147  Biso   1.000  O
  C67      1.0000 0.78603  0.75827  0.69396  Biso   1.000  C
  C68      1.0000 0.76373  0.81727  0.71145  Biso   1.000  C
  C69      1.0000 0.73353  0.80257  0.74440  Biso   1.000  C
  H45      1.0000 0.72253  0.75347  0.75537  Biso   1.000  H
  C70      1.0000 0.70813  0.89457  0.85707  Biso   1.000  C
  C71      1.0000 0.73543  0.90937  0.82227  Biso   1.000  C
  C72      1.0000 0.80843  0.03527  0.87037  Biso   1.000  C
  H46      1.0000 0.83613  0.07067  0.88967  Biso   1.000  H
  H47      1.0000 0.84893  0.03447  0.85527  Biso   1.000  H
  H48      1.0000 0.77753  0.05607  0.85817  Biso   1.000  H
  O37      1.0000 0.62881  0.51920  0.99717  Biso   1.000  O
  O38      1.0000 0.58853  0.55930  0.04461  Biso   1.000  O
  O39      1.0000 0.86840  0.57690  0.21480  Biso   1.000  O
  C73      1.0000 0.63890  0.54730  0.02729  Biso   1.000  C
  C74      1.0000 0.72020  0.56960  0.04478  Biso   1.000  C
  C75      1.0000 0.73570  0.59980  0.07773  Biso   1.000  C
  H49      1.0000 0.69760  0.61080  0.08870  Biso   1.000  H
  C76      1.0000 0.85310  0.62520  0.19040  Biso   1.000  C
  C77      1.0000 0.84060  0.59790  0.15560  Biso   1.000  C
  C78      1.0000 0.89350  0.52490  0.20370  Biso   1.000  C
  H50      1.0000 0.90120  0.49720  0.22300  Biso   1.000  H
  H51      1.0000 0.85220  0.48440  0.18860  Biso   1.000  H
  H52      1.0000 0.94520  0.55580  0.19150  Biso   1.000  H
  O40      1.0000 0.29548  0.85253  0.33050  Biso   1.000  O
  O41      1.0000 0.25520  0.89263  0.37794  Biso   1.000  O
  O42      1.0000 0.53507  0.91023  0.54813  Biso   1.000  O
  C79      1.0000 0.30557  0.88063  0.36062  Biso   1.000  C
  C80      1.0000 0.38687  0.90293  0.37811  Biso   1.000  C
  C81      1.0000 0.40237  0.93313  0.41106  Biso   1.000  C
  H53      1.0000 0.36427  0.94413  0.42203  Biso   1.000  H
  C82      1.0000 0.51977  0.95853  0.52373  Biso   1.000  C
  C83      1.0000 0.50727  0.93123  0.48893  Biso   1.000  C
  C84      1.0000 0.56017  0.85823  0.53703  Biso   1.000  C
  H54      1.0000 0.56787  0.83053  0.55633  Biso   1.000  H
  H55      1.0000 0.51887  0.81773  0.52193  Biso   1.000  H
  H56      1.0000 0.61187  0.88913  0.52483  Biso   1.000  H
  O43      1.0000 0.96214  0.18587  0.66384  Biso   1.000  O
  O44      1.0000 0.92186  0.22597  0.71128  Biso   1.000  O
  O45      1.0000 0.20173  0.24357  0.88147  Biso   1.000  O
  C85      1.0000 0.97223  0.21397  0.69396  Biso   1.000  C
  C86      1.0000 0.05353  0.23627  0.71145  Biso   1.000  C
  C87      1.0000 0.06903  0.26647  0.74440  Biso   1.000  C
  H57      1.0000 0.03093  0.27747  0.75537  Biso   1.000  H
  C88      1.0000 0.18643  0.29187  0.85707  Biso   1.000  C
  C89      1.0000 0.17393  0.26457  0.82227  Biso   1.000  C
  C90      1.0000 0.22683  0.19157  0.87037  Biso   1.000  C
  H58      1.0000 0.23453  0.16387  0.88967  Biso   1.000  H
  H59      1.0000 0.18553  0.15107  0.85527  Biso   1.000  H
  H60      1.0000 0.27853  0.22247  0.85817  Biso   1.000  H
  O46      1.0000 0.89039  0.37119  0.99717  Biso   1.000  O
  O47      1.0000 0.97077  0.41147  0.04461  Biso   1.000  O
  O48      1.0000 0.70850  0.13160  0.21480  Biso   1.000  O
  C91      1.0000 0.90840  0.36110  0.02729  Biso   1.000  C
  C92      1.0000 0.84940  0.27980  0.04478  Biso   1.000  C
  C93      1.0000 0.86410  0.26430  0.07773  Biso   1.000  C
  H61      1.0000 0.91320  0.30240  0.08870  Biso   1.000  H
  C94      1.0000 0.77210  0.14690  0.19040  Biso   1.000  C
  C95      1.0000 0.75730  0.15940  0.15560  Biso   1.000  C
  C96      1.0000 0.63140  0.10650  0.20370  Biso   1.000  C
  H62      1.0000 0.59600  0.09880  0.22300  Biso   1.000  H
  H63      1.0000 0.63220  0.14780  0.18860  Biso   1.000  H
  H64      1.0000 0.61060  0.05480  0.19150  Biso   1.000  H
  O49      1.0000 0.55706  0.70452  0.33050  Biso   1.000  O
  O50      1.0000 0.63744  0.74480  0.37794  Biso   1.000  O
  O51      1.0000 0.37517  0.46493  0.54813  Biso   1.000  O
  C97      1.0000 0.57507  0.69443  0.36062  Biso   1.000  C
  C98      1.0000 0.51607  0.61313  0.37811  Biso   1.000  C
  C99      1.0000 0.53077  0.59763  0.41106  Biso   1.000  C
  H65      1.0000 0.57987  0.63573  0.42203  Biso   1.000  H
  C100     1.0000 0.43877  0.48023  0.52373  Biso   1.000  C
  C101     1.0000 0.42397  0.49273  0.48893  Biso   1.000  C
  C102     1.0000 0.29807  0.43983  0.53703  Biso   1.000  C
  H66      1.0000 0.26267  0.43213  0.55633  Biso   1.000  H
  H67      1.0000 0.29887  0.48113  0.52193  Biso   1.000  H
  H68      1.0000 0.27727  0.38813  0.52483  Biso   1.000  H
  O52      1.0000 0.22372  0.03786  0.66384  Biso   1.000  O
  O53      1.0000 0.30410  0.07814  0.71128  Biso   1.000  O
  O54      1.0000 0.04183  0.79827  0.88147  Biso   1.000  O
  C103     1.0000 0.24173  0.02777  0.69396  Biso   1.000  C
  C104     1.0000 0.18273  0.94647  0.71145  Biso   1.000  C
  C105     1.0000 0.19743  0.93097  0.74440  Biso   1.000  C
  H69      1.0000 0.24653  0.96907  0.75537  Biso   1.000  H
  C106     1.0000 0.10543  0.81357  0.85707  Biso   1.000  C
  C107     1.0000 0.09063  0.82607  0.82227  Biso   1.000  C
  C108     1.0000 0.96473  0.77317  0.87037  Biso   1.000  C
  H70      1.0000 0.92933  0.76547  0.88967  Biso   1.000  H
  H71      1.0000 0.96553  0.81447  0.85527  Biso   1.000  H
  H72      1.0000 0.94393  0.72147  0.85817  Biso   1.000  H
  O55      1.0000 0.89039  0.51920  0.99717  Biso   1.000  O
  O56      1.0000 0.97077  0.55930  0.04461  Biso   1.000  O
  O57      1.0000 0.70850  0.57690  0.21480  Biso   1.000  O
  C109     1.0000 0.90840  0.54730  0.02729  Biso   1.000  C
  C110     1.0000 0.84940  0.56960  0.04478  Biso   1.000  C
  C111     1.0000 0.86410  0.59980  0.07773  Biso   1.000  C
  H73      1.0000 0.91320  0.61080  0.08870  Biso   1.000  H
  C112     1.0000 0.77210  0.62520  0.19040  Biso   1.000  C
  C113     1.0000 0.75730  0.59790  0.15560  Biso   1.000  C
  C114     1.0000 0.63140  0.52490  0.20370  Biso   1.000  C
  H74      1.0000 0.59600  0.49720  0.22300  Biso   1.000  H
  H75      1.0000 0.63220  0.48440  0.18860  Biso   1.000  H
  H76      1.0000 0.61060  0.55580  0.19150  Biso   1.000  H
  O58      1.0000 0.55706  0.85253  0.33050  Biso   1.000  O
  O59      1.0000 0.63744  0.89263  0.37794  Biso   1.000  O
  O60      1.0000 0.37517  0.91023  0.54813  Biso   1.000  O
  C115     1.0000 0.57507  0.88063  0.36062  Biso   1.000  C
  C116     1.0000 0.51607  0.90293  0.37811  Biso   1.000  C
  C117     1.0000 0.53077  0.93313  0.41106  Biso   1.000  C
  H77      1.0000 0.57987  0.94413  0.42203  Biso   1.000  H
  C118     1.0000 0.43877  0.95853  0.52373  Biso   1.000  C
  C119     1.0000 0.42397  0.93123  0.48893  Biso   1.000  C
  C120     1.0000 0.29807  0.85823  0.53703  Biso   1.000  C
  H78      1.0000 0.26267  0.83053  0.55633  Biso   1.000  H
  H79      1.0000 0.29887  0.81773  0.52193  Biso   1.000  H
  H80      1.0000 0.27727  0.88913  0.52483  Biso   1.000  H
  O61      1.0000 0.22372  0.18587  0.66384  Biso   1.000  O
  O62      1.0000 0.30410  0.22597  0.71128  Biso   1.000  O
  O63      1.0000 0.04183  0.24357  0.88147  Biso   1.000  O
  C121     1.0000 0.24173  0.21397  0.69396  Biso   1.000  C
  C122     1.0000 0.18273  0.23627  0.71145  Biso   1.000  C
  C123     1.0000 0.19743  0.26647  0.74440  Biso   1.000  C
  H81      1.0000 0.24653  0.27747  0.75537  Biso   1.000  H
  C124     1.0000 0.10543  0.29187  0.85707  Biso   1.000  C
  C125     1.0000 0.09063  0.26457  0.82227  Biso   1.000  C
  C126     1.0000 0.96473  0.19157  0.87037  Biso   1.000  C
  H82      1.0000 0.92933  0.16387  0.88967  Biso   1.000  H
  H83      1.0000 0.96553  0.15107  0.85527  Biso   1.000  H
  H84      1.0000 0.94393  0.22247  0.85817  Biso   1.000  H
  O64      1.0000 0.48080  0.37119  0.99717  Biso   1.000  O
  O65      1.0000 0.44070  0.41147  0.04461  Biso   1.000  O
  O66      1.0000 0.42310  0.13160  0.21480  Biso   1.000  O
  C127     1.0000 0.45270  0.36110  0.02729  Biso   1.000  C
  C128     1.0000 0.43040  0.27980  0.04478  Biso   1.000  C
  C129     1.0000 0.40020  0.26430  0.07773  Biso   1.000  C
  H85      1.0000 0.38920  0.30240  0.08870  Biso   1.000  H
  C130     1.0000 0.37480  0.14690  0.19040  Biso   1.000  C
  C131     1.0000 0.40210  0.15940  0.15560  Biso   1.000  C
  C132     1.0000 0.47510  0.10650  0.20370  Biso   1.000  C
  H86      1.0000 0.50280  0.09880  0.22300  Biso   1.000  H
  H87      1.0000 0.51560  0.14780  0.18860  Biso   1.000  H
  H88      1.0000 0.44420  0.05480  0.19150  Biso   1.000  H
  O67      1.0000 0.14747  0.70452  0.33050  Biso   1.000  O
  O68      1.0000 0.10737  0.74480  0.37794  Biso   1.000  O
  O69      1.0000 0.08977  0.46493  0.54813  Biso   1.000  O
  C133     1.0000 0.11937  0.69443  0.36062  Biso   1.000  C
  C134     1.0000 0.09707  0.61313  0.37811  Biso   1.000  C
  C135     1.0000 0.06687  0.59763  0.41106  Biso   1.000  C
  H89      1.0000 0.05587  0.63573  0.42203  Biso   1.000  H
  C136     1.0000 0.04147  0.48023  0.52373  Biso   1.000  C
  C137     1.0000 0.06877  0.49273  0.48893  Biso   1.000  C
  C138     1.0000 0.14177  0.43983  0.53703  Biso   1.000  C
  H90      1.0000 0.16947  0.43213  0.55633  Biso   1.000  H
  H91      1.0000 0.18227  0.48113  0.52193  Biso   1.000  H
  H92      1.0000 0.11087  0.38813  0.52483  Biso   1.000  H
  O70      1.0000 0.81413  0.03786  0.66384  Biso   1.000  O
  O71      1.0000 0.77403  0.07814  0.71128  Biso   1.000  O
  O72      1.0000 0.75643  0.79827  0.88147  Biso   1.000  O
  C139     1.0000 0.78603  0.02777  0.69396  Biso   1.000  C
  C140     1.0000 0.76373  0.94647  0.71145  Biso   1.000  C
  C141     1.0000 0.73353  0.93097  0.74440  Biso   1.000  C
  H93      1.0000 0.72253  0.96907  0.75537  Biso   1.000  H
  C142     1.0000 0.70813  0.81357  0.85707  Biso   1.000  C
  C143     1.0000 0.73543  0.82607  0.82227  Biso   1.000  C
  C144     1.0000 0.80843  0.77317  0.87037  Biso   1.000  C
  H94      1.0000 0.83613  0.76547  0.88967  Biso   1.000  H
  H95      1.0000 0.84893  0.81447  0.85527  Biso   1.000  H
  H96      1.0000 0.77753  0.72147  0.85817  Biso   1.000  H
  O73      1.0000 0.62881  0.10961  0.99717  Biso   1.000  O
  O74      1.0000 0.58853  0.02923  0.04461  Biso   1.000  O
  O75      1.0000 0.86840  0.29150  0.21480  Biso   1.000  O
  C145     1.0000 0.63890  0.09160  0.02729  Biso   1.000  C
  C146     1.0000 0.72020  0.15060  0.04478  Biso   1.000  C
  C147     1.0000 0.73570  0.13590  0.07773  Biso   1.000  C
  H97      1.0000 0.69760  0.08680  0.08870  Biso   1.000  H
  C148     1.0000 0.85310  0.22790  0.19040  Biso   1.000  C
  C149     1.0000 0.84060  0.24270  0.15560  Biso   1.000  C
  C150     1.0000 0.89350  0.36860  0.20370  Biso   1.000  C
  H98      1.0000 0.90120  0.40400  0.22300  Biso   1.000  H
  H99      1.0000 0.85220  0.36780  0.18860  Biso   1.000  H
  H100     1.0000 0.94520  0.38940  0.19150  Biso   1.000  H
  O76      1.0000 0.29548  0.44294  0.33050  Biso   1.000  O
  O77      1.0000 0.25520  0.36256  0.37794  Biso   1.000  O
  O78      1.0000 0.53507  0.62483  0.54813  Biso   1.000  O
  C151     1.0000 0.30557  0.42493  0.36062  Biso   1.000  C
  C152     1.0000 0.38687  0.48393  0.37811  Biso   1.000  C
  C153     1.0000 0.40237  0.46923  0.41106  Biso   1.000  C
  H101     1.0000 0.36427  0.42013  0.42203  Biso   1.000  H
  C154     1.0000 0.51977  0.56123  0.52373  Biso   1.000  C
  C155     1.0000 0.50727  0.57603  0.48893  Biso   1.000  C
  C156     1.0000 0.56017  0.70193  0.53703  Biso   1.000  C
  H102     1.0000 0.56787  0.73733  0.55633  Biso   1.000  H
  H103     1.0000 0.51887  0.70113  0.52193  Biso   1.000  H
  H104     1.0000 0.61187  0.72273  0.52483  Biso   1.000  H
  O79      1.0000 0.96214  0.77628  0.66384  Biso   1.000  O
  O80      1.0000 0.92186  0.69590  0.71128  Biso   1.000  O
  O81      1.0000 0.20173  0.95817  0.88147  Biso   1.000  O
  C157     1.0000 0.97223  0.75827  0.69396  Biso   1.000  C
  C158     1.0000 0.05353  0.81727  0.71145  Biso   1.000  C
  C159     1.0000 0.06903  0.80257  0.74440  Biso   1.000  C
  H105     1.0000 0.03093  0.75347  0.75537  Biso   1.000  H
  C160     1.0000 0.18643  0.89457  0.85707  Biso   1.000  C
  C161     1.0000 0.17393  0.90937  0.82227  Biso   1.000  C
  C162     1.0000 0.22683  0.03527  0.87037  Biso   1.000  C
  H106     1.0000 0.23453  0.07067  0.88967  Biso   1.000  H
  H107     1.0000 0.18553  0.03447  0.85527  Biso   1.000  H
  H108     1.0000 0.27853  0.05607  0.85817  Biso   1.000  H
  O82      1.0000 0.51920  0.89039  0.00283  Biso   1.000  O
  O83      1.0000 0.55930  0.97077  0.95539  Biso   1.000  O
  O84      1.0000 0.57690  0.70850  0.78520  Biso   1.000  O
  C163     1.0000 0.54730  0.90840  0.97271  Biso   1.000  C
  C164     1.0000 0.56960  0.84940  0.95522  Biso   1.000  C
  C165     1.0000 0.59980  0.86410  0.92227  Biso   1.000  C
  H109     1.0000 0.61080  0.91320  0.91130  Biso   1.000  H
  C166     1.0000 0.62520  0.77210  0.80960  Biso   1.000  C
  C167     1.0000 0.59790  0.75730  0.84440  Biso   1.000  C
  C168     1.0000 0.52490  0.63140  0.79630  Biso   1.000  C
  H110     1.0000 0.49720  0.59600  0.77700  Biso   1.000  H
  H111     1.0000 0.48440  0.63220  0.81140  Biso   1.000  H
  H112     1.0000 0.55580  0.61060  0.80850  Biso   1.000  H
  O85      1.0000 0.18587  0.22372  0.33616  Biso   1.000  O
  O86      1.0000 0.22597  0.30410  0.28872  Biso   1.000  O
  O87      1.0000 0.24357  0.04183  0.11853  Biso   1.000  O
  C169     1.0000 0.21397  0.24173  0.30604  Biso   1.000  C
  C170     1.0000 0.23627  0.18273  0.28855  Biso   1.000  C
  C171     1.0000 0.26647  0.19743  0.25560  Biso   1.000  C
  H113     1.0000 0.27747  0.24653  0.24463  Biso   1.000  H
  C172     1.0000 0.29187  0.10543  0.14293  Biso   1.000  C
  C173     1.0000 0.26457  0.09063  0.17773  Biso   1.000  C
  C174     1.0000 0.19157  0.96473  0.12963  Biso   1.000  C
  H114     1.0000 0.16387  0.92933  0.11033  Biso   1.000  H
  H115     1.0000 0.15107  0.96553  0.14473  Biso   1.000  H
  H116     1.0000 0.22247  0.94393  0.14183  Biso   1.000  H
  O88      1.0000 0.85253  0.55706  0.66950  Biso   1.000  O
  O89      1.0000 0.89263  0.63744  0.62206  Biso   1.000  O
  O90      1.0000 0.91023  0.37517  0.45187  Biso   1.000  O
  C175     1.0000 0.88063  0.57507  0.63938  Biso   1.000  C
  C176     1.0000 0.90293  0.51607  0.62189  Biso   1.000  C
  C177     1.0000 0.93313  0.53077  0.58894  Biso   1.000  C
  H117     1.0000 0.94413  0.57987  0.57797  Biso   1.000  H
  C178     1.0000 0.95853  0.43877  0.47627  Biso   1.000  C
  C179     1.0000 0.93123  0.42397  0.51107  Biso   1.000  C
  C180     1.0000 0.85823  0.29807  0.46297  Biso   1.000  C
  H118     1.0000 0.83053  0.26267  0.44367  Biso   1.000  H
  H119     1.0000 0.81773  0.29887  0.47807  Biso   1.000  H
  H120     1.0000 0.88913  0.27727  0.47517  Biso   1.000  H
  O91      1.0000 0.37119  0.48080  0.00283  Biso   1.000  O
  O92      1.0000 0.41147  0.44070  0.95539  Biso   1.000  O
  O93      1.0000 0.13160  0.42310  0.78520  Biso   1.000  O
  C181     1.0000 0.36110  0.45270  0.97271  Biso   1.000  C
  C182     1.0000 0.27980  0.43040  0.95522  Biso   1.000  C
  C183     1.0000 0.26430  0.40020  0.92227  Biso   1.000  C
  H121     1.0000 0.30240  0.38920  0.91130  Biso   1.000  H
  C184     1.0000 0.14690  0.37480  0.80960  Biso   1.000  C
  C185     1.0000 0.15940  0.40210  0.84440  Biso   1.000  C
  C186     1.0000 0.10650  0.47510  0.79630  Biso   1.000  C
  H122     1.0000 0.09880  0.50280  0.77700  Biso   1.000  H
  H123     1.0000 0.14780  0.51560  0.81140  Biso   1.000  H
  H124     1.0000 0.05480  0.44420  0.80850  Biso   1.000  H
  O94      1.0000 0.03786  0.81413  0.33616  Biso   1.000  O
  O95      1.0000 0.07814  0.77403  0.28872  Biso   1.000  O
  O96      1.0000 0.79827  0.75643  0.11853  Biso   1.000  O
  C187     1.0000 0.02777  0.78603  0.30604  Biso   1.000  C
  C188     1.0000 0.94647  0.76373  0.28855  Biso   1.000  C
  C189     1.0000 0.93097  0.73353  0.25560  Biso   1.000  C
  H125     1.0000 0.96907  0.72253  0.24463  Biso   1.000  H
  C190     1.0000 0.81357  0.70813  0.14293  Biso   1.000  C
  C191     1.0000 0.82607  0.73543  0.17773  Biso   1.000  C
  C192     1.0000 0.77317  0.80843  0.12963  Biso   1.000  C
  H126     1.0000 0.76547  0.83613  0.11033  Biso   1.000  H
  H127     1.0000 0.81447  0.84893  0.14473  Biso   1.000  H
  H128     1.0000 0.72147  0.77753  0.14183  Biso   1.000  H
  O97      1.0000 0.70452  0.14747  0.66950  Biso   1.000  O
  O98      1.0000 0.74480  0.10737  0.62206  Biso   1.000  O
  O99      1.0000 0.46493  0.08977  0.45187  Biso   1.000  O
  C193     1.0000 0.69443  0.11937  0.63938  Biso   1.000  C
  C194     1.0000 0.61313  0.09707  0.62189  Biso   1.000  C
  C195     1.0000 0.59763  0.06687  0.58894  Biso   1.000  C
  H129     1.0000 0.63573  0.05587  0.57797  Biso   1.000  H
  C196     1.0000 0.48023  0.04147  0.47627  Biso   1.000  C
  C197     1.0000 0.49273  0.06877  0.51107  Biso   1.000  C
  C198     1.0000 0.43983  0.14177  0.46297  Biso   1.000  C
  H130     1.0000 0.43213  0.16947  0.44367  Biso   1.000  H
  H131     1.0000 0.48113  0.18227  0.47807  Biso   1.000  H
  H132     1.0000 0.38813  0.11087  0.47517  Biso   1.000  H
  O100     1.0000 0.10961  0.62881  0.00283  Biso   1.000  O
  O101     1.0000 0.02923  0.58853  0.95539  Biso   1.000  O
  O102     1.0000 0.29150  0.86840  0.78520  Biso   1.000  O
  C199     1.0000 0.09160  0.63890  0.97271  Biso   1.000  C
  C200     1.0000 0.15060  0.72020  0.95522  Biso   1.000  C
  C201     1.0000 0.13590  0.73570  0.92227  Biso   1.000  C
  H133     1.0000 0.08680  0.69760  0.91130  Biso   1.000  H
  C202     1.0000 0.22790  0.85310  0.80960  Biso   1.000  C
  C203     1.0000 0.24270  0.84060  0.84440  Biso   1.000  C
  C204     1.0000 0.36860  0.89350  0.79630  Biso   1.000  C
  H134     1.0000 0.40400  0.90120  0.77700  Biso   1.000  H
  H135     1.0000 0.36780  0.85220  0.81140  Biso   1.000  H
  H136     1.0000 0.38940  0.94520  0.80850  Biso   1.000  H
  O103     1.0000 0.77628  0.96214  0.33616  Biso   1.000  O
  O104     1.0000 0.69590  0.92186  0.28872  Biso   1.000  O
  O105     1.0000 0.95817  0.20173  0.11853  Biso   1.000  O
  C205     1.0000 0.75827  0.97223  0.30604  Biso   1.000  C
  C206     1.0000 0.81727  0.05353  0.28855  Biso   1.000  C
  C207     1.0000 0.80257  0.06903  0.25560  Biso   1.000  C
  H137     1.0000 0.75347  0.03093  0.24463  Biso   1.000  H
  C208     1.0000 0.89457  0.18643  0.14293  Biso   1.000  C
  C209     1.0000 0.90937  0.17393  0.17773  Biso   1.000  C
  C210     1.0000 0.03527  0.22683  0.12963  Biso   1.000  C
  H138     1.0000 0.07067  0.23453  0.11033  Biso   1.000  H
  H139     1.0000 0.03447  0.18553  0.14473  Biso   1.000  H
  H140     1.0000 0.05607  0.27853  0.14183  Biso   1.000  H
  O106     1.0000 0.44294  0.29548  0.66950  Biso   1.000  O
  O107     1.0000 0.36256  0.25520  0.62206  Biso   1.000  O
  O108     1.0000 0.62483  0.53507  0.45187  Biso   1.000  O
  C211     1.0000 0.42493  0.30557  0.63938  Biso   1.000  C
  C212     1.0000 0.48393  0.38687  0.62189  Biso   1.000  C
  C213     1.0000 0.46923  0.40237  0.58894  Biso   1.000  C
  H141     1.0000 0.42013  0.36427  0.57797  Biso   1.000  H
  C214     1.0000 0.56123  0.51977  0.47627  Biso   1.000  C
  C215     1.0000 0.57603  0.50727  0.51107  Biso   1.000  C
  C216     1.0000 0.70193  0.56017  0.46297  Biso   1.000  C
  H142     1.0000 0.73733  0.56787  0.44367  Biso   1.000  H
  H143     1.0000 0.70113  0.51887  0.47807  Biso   1.000  H
  H144     1.0000 0.72273  0.61187  0.47517  Biso   1.000  H
  Cu1      1.0000 0.04785  0.52393  0.02758  Biso   1.000  Cu
  Cu2      1.0000 0.71452  0.85726  0.36091  Biso   1.000  Cu
  Cu3      1.0000 0.38118  0.19059  0.69425  Biso   1.000  Cu
  Cu4      1.0000 0.47607  0.52393  0.02758  Biso   1.000  Cu
  Cu5      1.0000 0.14274  0.85726  0.36091  Biso   1.000  Cu
  Cu6      1.0000 0.80941  0.19059  0.69425  Biso   1.000  Cu
  Cu7      1.0000 0.47607  0.95215  0.02758  Biso   1.000  Cu
  Cu8      1.0000 0.14274  0.28548  0.36091  Biso   1.000  Cu
  Cu9      1.0000 0.80941  0.61882  0.69425  Biso   1.000  Cu
  Cu10     1.0000 0.52393  0.04785  0.97242  Biso   1.000  Cu
  Cu11     1.0000 0.19059  0.38118  0.30575  Biso   1.000  Cu
  Cu12     1.0000 0.85726  0.71452  0.63909  Biso   1.000  Cu
  Cu13     1.0000 0.52393  0.47607  0.97242  Biso   1.000  Cu
  Cu14     1.0000 0.19059  0.80941  0.30575  Biso   1.000  Cu
  Cu15     1.0000 0.85726  0.14274  0.63909  Biso   1.000  Cu
  Cu16     1.0000 0.95215  0.47607  0.97242  Biso   1.000  Cu
  Cu17     1.0000 0.61882  0.80941  0.30575  Biso   1.000  Cu
  Cu18     1.0000 0.28548  0.14274  0.63909  Biso   1.000  Cu
  C217     1.0000 0.22255  0.44510  0.97205  Biso   1.000  C
  H145     1.0000 0.23240  0.46480  0.99460  Biso   1.000  H
  C218     1.0000 0.19280  0.38560  0.90484  Biso   1.000  C
  C219     1.0000 0.17945  0.35890  0.86769  Biso   1.000  C
  C220     1.0000 0.88922  0.77843  0.30538  Biso   1.000  C
  H146     1.0000 0.89907  0.79813  0.32793  Biso   1.000  H
  C221     1.0000 0.85947  0.71893  0.23817  Biso   1.000  C
  C222     1.0000 0.84612  0.69223  0.20102  Biso   1.000  C
  C223     1.0000 0.55588  0.11177  0.63872  Biso   1.000  C
  H147     1.0000 0.56573  0.13147  0.66127  Biso   1.000  H
  C224     1.0000 0.52613  0.05227  0.57151  Biso   1.000  C
  C225     1.0000 0.51278  0.02557  0.53436  Biso   1.000  C
  C226     1.0000 0.55490  0.77745  0.97205  Biso   1.000  C
  H148     1.0000 0.53520  0.76760  0.99460  Biso   1.000  H
  C227     1.0000 0.61440  0.80720  0.90484  Biso   1.000  C
  C228     1.0000 0.64110  0.82055  0.86769  Biso   1.000  C
  C229     1.0000 0.22157  0.11078  0.30538  Biso   1.000  C
  H149     1.0000 0.20187  0.10093  0.32793  Biso   1.000  H
  C230     1.0000 0.28107  0.14053  0.23817  Biso   1.000  C
  C231     1.0000 0.30777  0.15388  0.20102  Biso   1.000  C
  C232     1.0000 0.88823  0.44412  0.63872  Biso   1.000  C
  H150     1.0000 0.86853  0.43427  0.66127  Biso   1.000  H
  C233     1.0000 0.94773  0.47387  0.57151  Biso   1.000  C
  C234     1.0000 0.97443  0.48722  0.53436  Biso   1.000  C
  C235     1.0000 0.22255  0.77745  0.97205  Biso   1.000  C
  H151     1.0000 0.23240  0.76760  0.99460  Biso   1.000  H
  C236     1.0000 0.19280  0.80720  0.90484  Biso   1.000  C
  C237     1.0000 0.17945  0.82055  0.86769  Biso   1.000  C
  C238     1.0000 0.88922  0.11078  0.30538  Biso   1.000  C
  H152     1.0000 0.89907  0.10093  0.32793  Biso   1.000  H
  C239     1.0000 0.85947  0.14053  0.23817  Biso   1.000  C
  C240     1.0000 0.84612  0.15388  0.20102  Biso   1.000  C
  C241     1.0000 0.55588  0.44412  0.63872  Biso   1.000  C
  H153     1.0000 0.56573  0.43427  0.66127  Biso   1.000  H
  C242     1.0000 0.52613  0.47387  0.57151  Biso   1.000  C
  C243     1.0000 0.51278  0.48722  0.53436  Biso   1.000  C
  C244     1.0000 0.44510  0.22255  0.02795  Biso   1.000  C
  H154     1.0000 0.46480  0.23240  0.00540  Biso   1.000  H
  C245     1.0000 0.38560  0.19280  0.09516  Biso   1.000  C
  C246     1.0000 0.35890  0.17945  0.13231  Biso   1.000  C
  C247     1.0000 0.11177  0.55588  0.36128  Biso   1.000  C
  H155     1.0000 0.13147  0.56573  0.33873  Biso   1.000  H
  C248     1.0000 0.05227  0.52613  0.42849  Biso   1.000  C
  C249     1.0000 0.02557  0.51278  0.46564  Biso   1.000  C
  C250     1.0000 0.77843  0.88922  0.69462  Biso   1.000  C
  H156     1.0000 0.79813  0.89907  0.67207  Biso   1.000  H
  C251     1.0000 0.71893  0.85947  0.76183  Biso   1.000  C
  C252     1.0000 0.69223  0.84612  0.79898  Biso   1.000  C
  C253     1.0000 0.77745  0.55490  0.02795  Biso   1.000  C
  H157     1.0000 0.76760  0.53520  0.00540  Biso   1.000  H
  C254     1.0000 0.80720  0.61440  0.09516  Biso   1.000  C
  C255     1.0000 0.82055  0.64110  0.13231  Biso   1.000  C
  C256     1.0000 0.44412  0.88823  0.36128  Biso   1.000  C
  H158     1.0000 0.43427  0.86853  0.33873  Biso   1.000  H
  C257     1.0000 0.47387  0.94773  0.42849  Biso   1.000  C
  C258     1.0000 0.48722  0.97443  0.46564  Biso   1.000  C
  C259     1.0000 0.11078  0.22157  0.69462  Biso   1.000  C
  H159     1.0000 0.10093  0.20187  0.67207  Biso   1.000  H
  C260     1.0000 0.14053  0.28107  0.76183  Biso   1.000  C
  C261     1.0000 0.15388  0.30777  0.79898  Biso   1.000  C
  C262     1.0000 0.77745  0.22255  0.02795  Biso   1.000  C
  H160     1.0000 0.76760  0.23240  0.00540  Biso   1.000  H
  C263     1.0000 0.80720  0.19280  0.09516  Biso   1.000  C
  C264     1.0000 0.82055  0.17945  0.13231  Biso   1.000  C
  C265     1.0000 0.44412  0.55588  0.36128  Biso   1.000  C
  H161     1.0000 0.43427  0.56573  0.33873  Biso   1.000  H
  C266     1.0000 0.47387  0.52613  0.42849  Biso   1.000  C
  C267     1.0000 0.48722  0.51278  0.46564  Biso   1.000  C
  C268     1.0000 0.11078  0.88922  0.69462  Biso   1.000  C
  H162     1.0000 0.10093  0.89907  0.67207  Biso   1.000  H
  C269     1.0000 0.14053  0.85947  0.76183  Biso   1.000  C
  C270     1.0000 0.15388  0.84612  0.79898  Biso   1.000  C
