data_image0
_cell_length_a       29.524
_cell_length_b       11.342
_cell_length_c       23.007
_cell_angle_alpha    90
_cell_angle_beta     90
_cell_angle_gamma    90

_symmetry_space_group_name_H-M    "P 1"
_symmetry_int_tables_number       1

loop_
  _symmetry_equiv_pos_as_xyz
  'x, y, z'

loop_
  _atom_site_label
  _atom_site_occupancy
  _atom_site_fract_x
  _atom_site_fract_y
  _atom_site_fract_z
  _atom_site_thermal_displace_type
  _atom_site_B_iso_or_equiv
  _atom_site_type_symbol
  Cd1      1.0000 0.11325  0.55651  0.31050  Biso   1.000  Cd
  Cd2      1.0000 0.06162  0.73467  0.90868  Biso   1.000  Cd
  C1       1.0000 0.04402  0.53770  0.71760  Biso   1.000  C
  H1       1.0000 0.02230  0.52850  0.74660  Biso   1.000  H
  C2       1.0000 0.08295  0.60610  0.72840  Biso   1.000  C
  C3       1.0000 0.11621  0.61780  0.68590  Biso   1.000  C
  H2       1.0000 0.14170  0.66390  0.69280  Biso   1.000  H
  C4       1.0000 0.11102  0.55960  0.63250  Biso   1.000  C
  C5       1.0000 0.07166  0.49410  0.62230  Biso   1.000  C
  H3       1.0000 0.06800  0.45630  0.58680  Biso   1.000  H
  C6       1.0000 0.03784  0.48420  0.66430  Biso   1.000  C
  C7       1.0000 0.14537  0.56610  0.58560  Biso   1.000  C
  C8       1.0000 0.19148  0.57460  0.59860  Biso   1.000  C
  H4       1.0000 0.20020  0.57860  0.63740  Biso   1.000  H
  C9       1.0000 0.22503  0.57730  0.55580  Biso   1.000  C
  C10      1.0000 0.27411  0.58440  0.57050  Biso   1.000  C
  C11      1.0000 0.35140  0.62580  0.54130  Biso   1.000  C
  C12      1.0000 0.30601  0.61450  0.52820  Biso   1.000  C
  H5       1.0000 0.29640  0.62720  0.49030  Biso   1.000  H
  C13      1.0000 0.35200  0.55250  0.70160  Biso   1.000  C
  C14      1.0000 0.16418  0.56980  0.48370  Biso   1.000  C
  C15      1.0000 0.21093  0.57280  0.49720  Biso   1.000  C
  H6       1.0000 0.23230  0.57180  0.46750  Biso   1.000  H
  C16      1.0000 0.13249  0.56510  0.52710  Biso   1.000  C
  H7       1.0000 0.10190  0.56130  0.51750  Biso   1.000  H
  C17      1.0000 0.14964  0.56990  0.42130  Biso   1.000  C
  C18      1.0000 0.38455  0.66190  0.49460  Biso   1.000  C
  C19      1.0000 0.08820  0.66600  0.78700  Biso   1.000  C
  C20      1.0000 0.99581  0.41570  0.65220  Biso   1.000  C
  O1       1.0000 0.32381  0.54590  0.74203  Biso   1.000  O
  O2       1.0000 0.39376  0.54620  0.71041  Biso   1.000  O
  O3       1.0000 0.17691  0.55310  0.38148  Biso   1.000  O
  O4       1.0000 0.10774  0.58870  0.41046  Biso   1.000  O
  O5       1.0000 0.37193  0.65290  0.44283  Biso   1.000  O
  O6       1.0000 0.42285  0.69810  0.50845  Biso   1.000  O
  O7       1.0000 0.99400  0.35940  0.60484  Biso   1.000  O
  O8       1.0000 0.96448  0.41910  0.68914  Biso   1.000  O
  O9       1.0000 0.11996  0.73970  0.79324  Biso   1.000  O
  O10      1.0000 0.05938  0.64070  0.82444  Biso   1.000  O
  O11      1.0000 0.10870  0.35060  0.32110  Biso   1.000  O
  C21      1.0000 0.28994  0.56400  0.62690  Biso   1.000  C
  H8       1.0000 0.26940  0.54390  0.65590  Biso   1.000  H
  C22      1.0000 0.36678  0.60610  0.59790  Biso   1.000  C
  H9       1.0000 0.39730  0.61480  0.60680  Biso   1.000  H
  C23      1.0000 0.33601  0.57330  0.64060  Biso   1.000  C
  N1       1.0000 0.02900  0.30080  0.38100  Biso   1.000  N
  C24      1.0000 0.99010  0.21710  0.37650  Biso   1.000  C
  H10      1.0000 0.96300  0.25500  0.39020  Biso   1.000  H
  H11      1.0000 0.99610  0.14860  0.39980  Biso   1.000  H
  H12      1.0000 0.98610  0.19410  0.33670  Biso   1.000  H
  C25      1.0000 0.03820  0.36030  0.43660  Biso   1.000  C
  H13      1.0000 0.06020  0.31580  0.45820  Biso   1.000  H
  H14      1.0000 0.01070  0.36600  0.45860  Biso   1.000  H
  H15      1.0000 0.04980  0.43790  0.42920  Biso   1.000  H
  O12      1.0000 0.09280  0.37750  0.33900  Biso   1.000  O
  C26      1.0000 0.06020  0.31260  0.33130  Biso   1.000  C
  C27      1.0000 0.05350  0.26870  0.26920  Biso   1.000  C
  H16      1.0000 0.04320  0.33270  0.24520  Biso   1.000  H
  H17      1.0000 0.03130  0.20690  0.26890  Biso   1.000  H
  H18      1.0000 0.08160  0.23910  0.25430  Biso   1.000  H
  Cd3      1.0000 0.38675  0.94349  0.31050  Biso   1.000  Cd
  Cd4      1.0000 0.43838  0.76533  0.90868  Biso   1.000  Cd
  C28      1.0000 0.45598  0.96230  0.71760  Biso   1.000  C
  H19      1.0000 0.47770  0.97150  0.74660  Biso   1.000  H
  C29      1.0000 0.41705  0.89390  0.72840  Biso   1.000  C
  C30      1.0000 0.38379  0.88220  0.68590  Biso   1.000  C
  H20      1.0000 0.35830  0.83610  0.69280  Biso   1.000  H
  C31      1.0000 0.38898  0.94040  0.63250  Biso   1.000  C
  C32      1.0000 0.42834  0.00590  0.62230  Biso   1.000  C
  H21      1.0000 0.43200  0.04370  0.58680  Biso   1.000  H
  C33      1.0000 0.46216  0.01580  0.66430  Biso   1.000  C
  C34      1.0000 0.35463  0.93390  0.58560  Biso   1.000  C
  C35      1.0000 0.30852  0.92540  0.59860  Biso   1.000  C
  H22      1.0000 0.29980  0.92140  0.63740  Biso   1.000  H
  C36      1.0000 0.27497  0.92270  0.55580  Biso   1.000  C
  C37      1.0000 0.22589  0.91560  0.57050  Biso   1.000  C
  C38      1.0000 0.14860  0.87420  0.54130  Biso   1.000  C
  C39      1.0000 0.19399  0.88550  0.52820  Biso   1.000  C
  H23      1.0000 0.20360  0.87280  0.49030  Biso   1.000  H
  C40      1.0000 0.14800  0.94750  0.70160  Biso   1.000  C
  C41      1.0000 0.33582  0.93020  0.48370  Biso   1.000  C
  C42      1.0000 0.28907  0.92720  0.49720  Biso   1.000  C
  H24      1.0000 0.26770  0.92820  0.46750  Biso   1.000  H
  C43      1.0000 0.36751  0.93490  0.52710  Biso   1.000  C
  H25      1.0000 0.39810  0.93870  0.51750  Biso   1.000  H
  C44      1.0000 0.35036  0.93010  0.42130  Biso   1.000  C
  C45      1.0000 0.11545  0.83810  0.49460  Biso   1.000  C
  C46      1.0000 0.41180  0.83400  0.78700  Biso   1.000  C
  C47      1.0000 0.50419  0.08430  0.65220  Biso   1.000  C
  O13      1.0000 0.17619  0.95410  0.74203  Biso   1.000  O
  O14      1.0000 0.10624  0.95380  0.71041  Biso   1.000  O
  O15      1.0000 0.32309  0.94690  0.38148  Biso   1.000  O
  O16      1.0000 0.39226  0.91130  0.41046  Biso   1.000  O
  O17      1.0000 0.12807  0.84710  0.44283  Biso   1.000  O
  O18      1.0000 0.07715  0.80190  0.50845  Biso   1.000  O
  O19      1.0000 0.50600  0.14060  0.60484  Biso   1.000  O
  O20      1.0000 0.53552  0.08090  0.68914  Biso   1.000  O
  O21      1.0000 0.38004  0.76030  0.79324  Biso   1.000  O
  O22      1.0000 0.44062  0.85930  0.82444  Biso   1.000  O
  O23      1.0000 0.39130  0.14940  0.32110  Biso   1.000  O
  C48      1.0000 0.21006  0.93600  0.62690  Biso   1.000  C
  H26      1.0000 0.23060  0.95610  0.65590  Biso   1.000  H
  C49      1.0000 0.13322  0.89390  0.59790  Biso   1.000  C
  H27      1.0000 0.10270  0.88520  0.60680  Biso   1.000  H
  C50      1.0000 0.16399  0.92670  0.64060  Biso   1.000  C
  N2       1.0000 0.47100  0.19920  0.38100  Biso   1.000  N
  C51      1.0000 0.50990  0.28290  0.37650  Biso   1.000  C
  H28      1.0000 0.53700  0.24500  0.39020  Biso   1.000  H
  H29      1.0000 0.50390  0.35140  0.39980  Biso   1.000  H
  H30      1.0000 0.51390  0.30590  0.33670  Biso   1.000  H
  C52      1.0000 0.46180  0.13970  0.43660  Biso   1.000  C
  H31      1.0000 0.43980  0.18420  0.45820  Biso   1.000  H
  H32      1.0000 0.48930  0.13400  0.45860  Biso   1.000  H
  H33      1.0000 0.45020  0.06210  0.42920  Biso   1.000  H
  O24      1.0000 0.40720  0.12250  0.33900  Biso   1.000  O
  C53      1.0000 0.43980  0.18740  0.33130  Biso   1.000  C
  C54      1.0000 0.44650  0.23130  0.26920  Biso   1.000  C
  H34      1.0000 0.45680  0.16730  0.24520  Biso   1.000  H
  H35      1.0000 0.46870  0.29310  0.26890  Biso   1.000  H
  H36      1.0000 0.41840  0.26090  0.25430  Biso   1.000  H
  Cd5      1.0000 0.88675  0.05651  0.18950  Biso   1.000  Cd
  Cd6      1.0000 0.93838  0.23467  0.59132  Biso   1.000  Cd
  C55      1.0000 0.95598  0.03770  0.78240  Biso   1.000  C
  H37      1.0000 0.97770  0.02850  0.75340  Biso   1.000  H
  C56      1.0000 0.91705  0.10610  0.77160  Biso   1.000  C
  C57      1.0000 0.88379  0.11780  0.81410  Biso   1.000  C
  H38      1.0000 0.85830  0.16390  0.80720  Biso   1.000  H
  C58      1.0000 0.88898  0.05960  0.86750  Biso   1.000  C
  C59      1.0000 0.92834  0.99410  0.87770  Biso   1.000  C
  H39      1.0000 0.93200  0.95630  0.91320  Biso   1.000  H
  C60      1.0000 0.96216  0.98420  0.83570  Biso   1.000  C
  C61      1.0000 0.85463  0.06610  0.91440  Biso   1.000  C
  C62      1.0000 0.80852  0.07460  0.90140  Biso   1.000  C
  H40      1.0000 0.79980  0.07860  0.86260  Biso   1.000  H
  C63      1.0000 0.77497  0.07730  0.94420  Biso   1.000  C
  C64      1.0000 0.72589  0.08440  0.92950  Biso   1.000  C
  C65      1.0000 0.64860  0.12580  0.95870  Biso   1.000  C
  C66      1.0000 0.69399  0.11450  0.97180  Biso   1.000  C
  H41      1.0000 0.70360  0.12720  0.00970  Biso   1.000  H
  C67      1.0000 0.64800  0.05250  0.79840  Biso   1.000  C
  C68      1.0000 0.83582  0.06980  0.01630  Biso   1.000  C
  C69      1.0000 0.78907  0.07280  0.00280  Biso   1.000  C
  H42      1.0000 0.76770  0.07180  0.03250  Biso   1.000  H
  C70      1.0000 0.86751  0.06510  0.97290  Biso   1.000  C
  H43      1.0000 0.89810  0.06130  0.98250  Biso   1.000  H
  C71      1.0000 0.85036  0.06990  0.07870  Biso   1.000  C
  C72      1.0000 0.61545  0.16190  0.00540  Biso   1.000  C
  C73      1.0000 0.91180  0.16600  0.71300  Biso   1.000  C
  C74      1.0000 0.00419  0.91570  0.84780  Biso   1.000  C
  O25      1.0000 0.67619  0.04590  0.75797  Biso   1.000  O
  O26      1.0000 0.60624  0.04620  0.78959  Biso   1.000  O
  O27      1.0000 0.82309  0.05310  0.11852  Biso   1.000  O
  O28      1.0000 0.89226  0.08870  0.08954  Biso   1.000  O
  O29      1.0000 0.62807  0.15290  0.05717  Biso   1.000  O
  O30      1.0000 0.57715  0.19810  0.99155  Biso   1.000  O
  O31      1.0000 0.00600  0.85940  0.89516  Biso   1.000  O
  O32      1.0000 0.03552  0.91910  0.81086  Biso   1.000  O
  O33      1.0000 0.88004  0.23970  0.70676  Biso   1.000  O
  O34      1.0000 0.94062  0.14070  0.67556  Biso   1.000  O
  O35      1.0000 0.89130  0.85060  0.17890  Biso   1.000  O
  C75      1.0000 0.71006  0.06400  0.87310  Biso   1.000  C
  H44      1.0000 0.73060  0.04390  0.84410  Biso   1.000  H
  C76      1.0000 0.63322  0.10610  0.90210  Biso   1.000  C
  H45      1.0000 0.60270  0.11480  0.89320  Biso   1.000  H
  C77      1.0000 0.66399  0.07330  0.85940  Biso   1.000  C
  N3       1.0000 0.97100  0.80080  0.11900  Biso   1.000  N
  C78      1.0000 0.00990  0.71710  0.12350  Biso   1.000  C
  H46      1.0000 0.03700  0.75500  0.10980  Biso   1.000  H
  H47      1.0000 0.00390  0.64860  0.10020  Biso   1.000  H
  H48      1.0000 0.01390  0.69410  0.16330  Biso   1.000  H
  C79      1.0000 0.96180  0.86030  0.06340  Biso   1.000  C
  H49      1.0000 0.93980  0.81580  0.04180  Biso   1.000  H
  H50      1.0000 0.98930  0.86600  0.04140  Biso   1.000  H
  H51      1.0000 0.95020  0.93790  0.07080  Biso   1.000  H
  O36      1.0000 0.90720  0.87750  0.16100  Biso   1.000  O
  C80      1.0000 0.93980  0.81260  0.16870  Biso   1.000  C
  C81      1.0000 0.94650  0.76870  0.23080  Biso   1.000  C
  H52      1.0000 0.95680  0.83270  0.25480  Biso   1.000  H
  H53      1.0000 0.96870  0.70690  0.23110  Biso   1.000  H
  H54      1.0000 0.91840  0.73910  0.24570  Biso   1.000  H
  Cd7      1.0000 0.61325  0.44349  0.18950  Biso   1.000  Cd
  Cd8      1.0000 0.56162  0.26533  0.59132  Biso   1.000  Cd
  C82      1.0000 0.54402  0.46230  0.78240  Biso   1.000  C
  H55      1.0000 0.52230  0.47150  0.75340  Biso   1.000  H
  C83      1.0000 0.58295  0.39390  0.77160  Biso   1.000  C
  C84      1.0000 0.61621  0.38220  0.81410  Biso   1.000  C
  H56      1.0000 0.64170  0.33610  0.80720  Biso   1.000  H
  C85      1.0000 0.61102  0.44040  0.86750  Biso   1.000  C
  C86      1.0000 0.57166  0.50590  0.87770  Biso   1.000  C
  H57      1.0000 0.56800  0.54370  0.91320  Biso   1.000  H
  C87      1.0000 0.53784  0.51580  0.83570  Biso   1.000  C
  C88      1.0000 0.64537  0.43390  0.91440  Biso   1.000  C
  C89      1.0000 0.69148  0.42540  0.90140  Biso   1.000  C
  H58      1.0000 0.70020  0.42140  0.86260  Biso   1.000  H
  C90      1.0000 0.72503  0.42270  0.94420  Biso   1.000  C
  C91      1.0000 0.77411  0.41560  0.92950  Biso   1.000  C
  C92      1.0000 0.85140  0.37420  0.95870  Biso   1.000  C
  C93      1.0000 0.80601  0.38550  0.97180  Biso   1.000  C
  H59      1.0000 0.79640  0.37280  0.00970  Biso   1.000  H
  C94      1.0000 0.85200  0.44750  0.79840  Biso   1.000  C
  C95      1.0000 0.66418  0.43020  0.01630  Biso   1.000  C
  C96      1.0000 0.71093  0.42720  0.00280  Biso   1.000  C
  H60      1.0000 0.73230  0.42820  0.03250  Biso   1.000  H
  C97      1.0000 0.63249  0.43490  0.97290  Biso   1.000  C
  H61      1.0000 0.60190  0.43870  0.98250  Biso   1.000  H
  C98      1.0000 0.64964  0.43010  0.07870  Biso   1.000  C
  C99      1.0000 0.88455  0.33810  0.00540  Biso   1.000  C
  C100     1.0000 0.58820  0.33400  0.71300  Biso   1.000  C
  C101     1.0000 0.49581  0.58430  0.84780  Biso   1.000  C
  O37      1.0000 0.82381  0.45410  0.75797  Biso   1.000  O
  O38      1.0000 0.89376  0.45380  0.78959  Biso   1.000  O
  O39      1.0000 0.67691  0.44690  0.11852  Biso   1.000  O
  O40      1.0000 0.60774  0.41130  0.08954  Biso   1.000  O
  O41      1.0000 0.87193  0.34710  0.05717  Biso   1.000  O
  O42      1.0000 0.92285  0.30190  0.99155  Biso   1.000  O
  O43      1.0000 0.49400  0.64060  0.89516  Biso   1.000  O
  O44      1.0000 0.46448  0.58090  0.81086  Biso   1.000  O
  O45      1.0000 0.61996  0.26030  0.70676  Biso   1.000  O
  O46      1.0000 0.55938  0.35930  0.67556  Biso   1.000  O
  O47      1.0000 0.60870  0.64940  0.17890  Biso   1.000  O
  C102     1.0000 0.78994  0.43600  0.87310  Biso   1.000  C
  H62      1.0000 0.76940  0.45610  0.84410  Biso   1.000  H
  C103     1.0000 0.86678  0.39390  0.90210  Biso   1.000  C
  H63      1.0000 0.89730  0.38520  0.89320  Biso   1.000  H
  C104     1.0000 0.83601  0.42670  0.85940  Biso   1.000  C
  N4       1.0000 0.52900  0.69920  0.11900  Biso   1.000  N
  C105     1.0000 0.49010  0.78290  0.12350  Biso   1.000  C
  H64      1.0000 0.46300  0.74500  0.10980  Biso   1.000  H
  H65      1.0000 0.49610  0.85140  0.10020  Biso   1.000  H
  H66      1.0000 0.48610  0.80590  0.16330  Biso   1.000  H
  C106     1.0000 0.53820  0.63970  0.06340  Biso   1.000  C
  H67      1.0000 0.56020  0.68420  0.04180  Biso   1.000  H
  H68      1.0000 0.51070  0.63400  0.04140  Biso   1.000  H
  H69      1.0000 0.54980  0.56210  0.07080  Biso   1.000  H
  O48      1.0000 0.59280  0.62250  0.16100  Biso   1.000  O
  C107     1.0000 0.56020  0.68740  0.16870  Biso   1.000  C
  C108     1.0000 0.55350  0.73130  0.23080  Biso   1.000  C
  H70      1.0000 0.54320  0.66730  0.25480  Biso   1.000  H
  H71      1.0000 0.53130  0.79310  0.23110  Biso   1.000  H
  H72      1.0000 0.58160  0.76090  0.24570  Biso   1.000  H
  Cd9      1.0000 0.88675  0.44349  0.68950  Biso   1.000  Cd
  Cd10     1.0000 0.93838  0.26533  0.09132  Biso   1.000  Cd
  C109     1.0000 0.95598  0.46230  0.28240  Biso   1.000  C
  H73      1.0000 0.97770  0.47150  0.25340  Biso   1.000  H
  C110     1.0000 0.91705  0.39390  0.27160  Biso   1.000  C
  C111     1.0000 0.88379  0.38220  0.31410  Biso   1.000  C
  H74      1.0000 0.85830  0.33610  0.30720  Biso   1.000  H
  C112     1.0000 0.88898  0.44040  0.36750  Biso   1.000  C
  C113     1.0000 0.92834  0.50590  0.37770  Biso   1.000  C
  H75      1.0000 0.93200  0.54370  0.41320  Biso   1.000  H
  C114     1.0000 0.96216  0.51580  0.33570  Biso   1.000  C
  C115     1.0000 0.85463  0.43390  0.41440  Biso   1.000  C
  C116     1.0000 0.80852  0.42540  0.40140  Biso   1.000  C
  H76      1.0000 0.79980  0.42140  0.36260  Biso   1.000  H
  C117     1.0000 0.77497  0.42270  0.44420  Biso   1.000  C
  C118     1.0000 0.72589  0.41560  0.42950  Biso   1.000  C
  C119     1.0000 0.64860  0.37420  0.45870  Biso   1.000  C
  C120     1.0000 0.69399  0.38550  0.47180  Biso   1.000  C
  H77      1.0000 0.70360  0.37280  0.50970  Biso   1.000  H
  C121     1.0000 0.64800  0.44750  0.29840  Biso   1.000  C
  C122     1.0000 0.83582  0.43020  0.51630  Biso   1.000  C
  C123     1.0000 0.78907  0.42720  0.50280  Biso   1.000  C
  H78      1.0000 0.76770  0.42820  0.53250  Biso   1.000  H
  C124     1.0000 0.86751  0.43490  0.47290  Biso   1.000  C
  H79      1.0000 0.89810  0.43870  0.48250  Biso   1.000  H
  C125     1.0000 0.85036  0.43010  0.57870  Biso   1.000  C
  C126     1.0000 0.61545  0.33810  0.50540  Biso   1.000  C
  C127     1.0000 0.91180  0.33400  0.21300  Biso   1.000  C
  C128     1.0000 0.00419  0.58430  0.34780  Biso   1.000  C
  O49      1.0000 0.67619  0.45410  0.25797  Biso   1.000  O
  O50      1.0000 0.60624  0.45380  0.28959  Biso   1.000  O
  O51      1.0000 0.82309  0.44690  0.61852  Biso   1.000  O
  O52      1.0000 0.89226  0.41130  0.58954  Biso   1.000  O
  O53      1.0000 0.62807  0.34710  0.55717  Biso   1.000  O
  O54      1.0000 0.57715  0.30190  0.49155  Biso   1.000  O
  O55      1.0000 0.00600  0.64060  0.39516  Biso   1.000  O
  O56      1.0000 0.03552  0.58090  0.31086  Biso   1.000  O
  O57      1.0000 0.88004  0.26030  0.20676  Biso   1.000  O
  O58      1.0000 0.94062  0.35930  0.17556  Biso   1.000  O
  O59      1.0000 0.89130  0.64940  0.67890  Biso   1.000  O
  C129     1.0000 0.71006  0.43600  0.37310  Biso   1.000  C
  H80      1.0000 0.73060  0.45610  0.34410  Biso   1.000  H
  C130     1.0000 0.63322  0.39390  0.40210  Biso   1.000  C
  H81      1.0000 0.60270  0.38520  0.39320  Biso   1.000  H
  C131     1.0000 0.66399  0.42670  0.35940  Biso   1.000  C
  N5       1.0000 0.97100  0.69920  0.61900  Biso   1.000  N
  C132     1.0000 0.00990  0.78290  0.62350  Biso   1.000  C
  H82      1.0000 0.03700  0.74500  0.60980  Biso   1.000  H
  H83      1.0000 0.00390  0.85140  0.60020  Biso   1.000  H
  H84      1.0000 0.01390  0.80590  0.66330  Biso   1.000  H
  C133     1.0000 0.96180  0.63970  0.56340  Biso   1.000  C
  H85      1.0000 0.93980  0.68420  0.54180  Biso   1.000  H
  H86      1.0000 0.98930  0.63400  0.54140  Biso   1.000  H
  H87      1.0000 0.95020  0.56210  0.57080  Biso   1.000  H
  O60      1.0000 0.90720  0.62250  0.66100  Biso   1.000  O
  C134     1.0000 0.93980  0.68740  0.66870  Biso   1.000  C
  C135     1.0000 0.94650  0.73130  0.73080  Biso   1.000  C
  H88      1.0000 0.95680  0.66730  0.75480  Biso   1.000  H
  H89      1.0000 0.96870  0.79310  0.73110  Biso   1.000  H
  H90      1.0000 0.91840  0.76090  0.74570  Biso   1.000  H
  Cd11     1.0000 0.61325  0.05651  0.68950  Biso   1.000  Cd
  Cd12     1.0000 0.56162  0.23467  0.09132  Biso   1.000  Cd
  C136     1.0000 0.54402  0.03770  0.28240  Biso   1.000  C
  H91      1.0000 0.52230  0.02850  0.25340  Biso   1.000  H
  C137     1.0000 0.58295  0.10610  0.27160  Biso   1.000  C
  C138     1.0000 0.61621  0.11780  0.31410  Biso   1.000  C
  H92      1.0000 0.64170  0.16390  0.30720  Biso   1.000  H
  C139     1.0000 0.61102  0.05960  0.36750  Biso   1.000  C
  C140     1.0000 0.57166  0.99410  0.37770  Biso   1.000  C
  H93      1.0000 0.56800  0.95630  0.41320  Biso   1.000  H
  C141     1.0000 0.53784  0.98420  0.33570  Biso   1.000  C
  C142     1.0000 0.64537  0.06610  0.41440  Biso   1.000  C
  C143     1.0000 0.69148  0.07460  0.40140  Biso   1.000  C
  H94      1.0000 0.70020  0.07860  0.36260  Biso   1.000  H
  C144     1.0000 0.72503  0.07730  0.44420  Biso   1.000  C
  C145     1.0000 0.77411  0.08440  0.42950  Biso   1.000  C
  C146     1.0000 0.85140  0.12580  0.45870  Biso   1.000  C
  C147     1.0000 0.80601  0.11450  0.47180  Biso   1.000  C
  H95      1.0000 0.79640  0.12720  0.50970  Biso   1.000  H
  C148     1.0000 0.85200  0.05250  0.29840  Biso   1.000  C
  C149     1.0000 0.66418  0.06980  0.51630  Biso   1.000  C
  C150     1.0000 0.71093  0.07280  0.50280  Biso   1.000  C
  H96      1.0000 0.73230  0.07180  0.53250  Biso   1.000  H
  C151     1.0000 0.63249  0.06510  0.47290  Biso   1.000  C
  H97      1.0000 0.60190  0.06130  0.48250  Biso   1.000  H
  C152     1.0000 0.64964  0.06990  0.57870  Biso   1.000  C
  C153     1.0000 0.88455  0.16190  0.50540  Biso   1.000  C
  C154     1.0000 0.58820  0.16600  0.21300  Biso   1.000  C
  C155     1.0000 0.49581  0.91570  0.34780  Biso   1.000  C
  O61      1.0000 0.82381  0.04590  0.25797  Biso   1.000  O
  O62      1.0000 0.89376  0.04620  0.28959  Biso   1.000  O
  O63      1.0000 0.67691  0.05310  0.61852  Biso   1.000  O
  O64      1.0000 0.60774  0.08870  0.58954  Biso   1.000  O
  O65      1.0000 0.87193  0.15290  0.55717  Biso   1.000  O
  O66      1.0000 0.92285  0.19810  0.49155  Biso   1.000  O
  O67      1.0000 0.49400  0.85940  0.39516  Biso   1.000  O
  O68      1.0000 0.46448  0.91910  0.31086  Biso   1.000  O
  O69      1.0000 0.61996  0.23970  0.20676  Biso   1.000  O
  O70      1.0000 0.55938  0.14070  0.17556  Biso   1.000  O
  O71      1.0000 0.60870  0.85060  0.67890  Biso   1.000  O
  C156     1.0000 0.78994  0.06400  0.37310  Biso   1.000  C
  H98      1.0000 0.76940  0.04390  0.34410  Biso   1.000  H
  C157     1.0000 0.86678  0.10610  0.40210  Biso   1.000  C
  H99      1.0000 0.89730  0.11480  0.39320  Biso   1.000  H
  C158     1.0000 0.83601  0.07330  0.35940  Biso   1.000  C
  N6       1.0000 0.52900  0.80080  0.61900  Biso   1.000  N
  C159     1.0000 0.49010  0.71710  0.62350  Biso   1.000  C
  H100     1.0000 0.46300  0.75500  0.60980  Biso   1.000  H
  H101     1.0000 0.49610  0.64860  0.60020  Biso   1.000  H
  H102     1.0000 0.48610  0.69410  0.66330  Biso   1.000  H
  C160     1.0000 0.53820  0.86030  0.56340  Biso   1.000  C
  H103     1.0000 0.56020  0.81580  0.54180  Biso   1.000  H
  H104     1.0000 0.51070  0.86600  0.54140  Biso   1.000  H
  H105     1.0000 0.54980  0.93790  0.57080  Biso   1.000  H
  O72      1.0000 0.59280  0.87750  0.66100  Biso   1.000  O
  C161     1.0000 0.56020  0.81260  0.66870  Biso   1.000  C
  C162     1.0000 0.55350  0.76870  0.73080  Biso   1.000  C
  H106     1.0000 0.54320  0.83270  0.75480  Biso   1.000  H
  H107     1.0000 0.53130  0.70690  0.73110  Biso   1.000  H
  H108     1.0000 0.58160  0.73910  0.74570  Biso   1.000  H
  Cd13     1.0000 0.11325  0.94349  0.81050  Biso   1.000  Cd
  Cd14     1.0000 0.06162  0.76533  0.40868  Biso   1.000  Cd
  C163     1.0000 0.04402  0.96230  0.21760  Biso   1.000  C
  H109     1.0000 0.02230  0.97150  0.24660  Biso   1.000  H
  C164     1.0000 0.08295  0.89390  0.22840  Biso   1.000  C
  C165     1.0000 0.11621  0.88220  0.18590  Biso   1.000  C
  H110     1.0000 0.14170  0.83610  0.19280  Biso   1.000  H
  C166     1.0000 0.11102  0.94040  0.13250  Biso   1.000  C
  C167     1.0000 0.07166  0.00590  0.12230  Biso   1.000  C
  H111     1.0000 0.06800  0.04370  0.08680  Biso   1.000  H
  C168     1.0000 0.03784  0.01580  0.16430  Biso   1.000  C
  C169     1.0000 0.14537  0.93390  0.08560  Biso   1.000  C
  C170     1.0000 0.19148  0.92540  0.09860  Biso   1.000  C
  H112     1.0000 0.20020  0.92140  0.13740  Biso   1.000  H
  C171     1.0000 0.22503  0.92270  0.05580  Biso   1.000  C
  C172     1.0000 0.27411  0.91560  0.07050  Biso   1.000  C
  C173     1.0000 0.35140  0.87420  0.04130  Biso   1.000  C
  C174     1.0000 0.30601  0.88550  0.02820  Biso   1.000  C
  H113     1.0000 0.29640  0.87280  0.99030  Biso   1.000  H
  C175     1.0000 0.35200  0.94750  0.20160  Biso   1.000  C
  C176     1.0000 0.16418  0.93020  0.98370  Biso   1.000  C
  C177     1.0000 0.21093  0.92720  0.99720  Biso   1.000  C
  H114     1.0000 0.23230  0.92820  0.96750  Biso   1.000  H
  C178     1.0000 0.13249  0.93490  0.02710  Biso   1.000  C
  H115     1.0000 0.10190  0.93870  0.01750  Biso   1.000  H
  C179     1.0000 0.14964  0.93010  0.92130  Biso   1.000  C
  C180     1.0000 0.38455  0.83810  0.99460  Biso   1.000  C
  C181     1.0000 0.08820  0.83400  0.28700  Biso   1.000  C
  C182     1.0000 0.99581  0.08430  0.15220  Biso   1.000  C
  O73      1.0000 0.32381  0.95410  0.24203  Biso   1.000  O
  O74      1.0000 0.39376  0.95380  0.21041  Biso   1.000  O
  O75      1.0000 0.17691  0.94690  0.88148  Biso   1.000  O
  O76      1.0000 0.10774  0.91130  0.91046  Biso   1.000  O
  O77      1.0000 0.37193  0.84710  0.94283  Biso   1.000  O
  O78      1.0000 0.42285  0.80190  0.00845  Biso   1.000  O
  O79      1.0000 0.99400  0.14060  0.10484  Biso   1.000  O
  O80      1.0000 0.96448  0.08090  0.18914  Biso   1.000  O
  O81      1.0000 0.11996  0.76030  0.29324  Biso   1.000  O
  O82      1.0000 0.05938  0.85930  0.32444  Biso   1.000  O
  O83      1.0000 0.10870  0.14940  0.82110  Biso   1.000  O
  C183     1.0000 0.28994  0.93600  0.12690  Biso   1.000  C
  H116     1.0000 0.26940  0.95610  0.15590  Biso   1.000  H
  C184     1.0000 0.36678  0.89390  0.09790  Biso   1.000  C
  H117     1.0000 0.39730  0.88520  0.10680  Biso   1.000  H
  C185     1.0000 0.33601  0.92670  0.14060  Biso   1.000  C
  N7       1.0000 0.02900  0.19920  0.88100  Biso   1.000  N
  C186     1.0000 0.99010  0.28290  0.87650  Biso   1.000  C
  H118     1.0000 0.96300  0.24500  0.89020  Biso   1.000  H
  H119     1.0000 0.99610  0.35140  0.89980  Biso   1.000  H
  H120     1.0000 0.98610  0.30590  0.83670  Biso   1.000  H
  C187     1.0000 0.03820  0.13970  0.93660  Biso   1.000  C
  H121     1.0000 0.06020  0.18420  0.95820  Biso   1.000  H
  H122     1.0000 0.01070  0.13400  0.95860  Biso   1.000  H
  H123     1.0000 0.04980  0.06210  0.92920  Biso   1.000  H
  O84      1.0000 0.09280  0.12250  0.83900  Biso   1.000  O
  C188     1.0000 0.06020  0.18740  0.83130  Biso   1.000  C
  C189     1.0000 0.05350  0.23130  0.76920  Biso   1.000  C
  H124     1.0000 0.04320  0.16730  0.74520  Biso   1.000  H
  H125     1.0000 0.03130  0.29310  0.76890  Biso   1.000  H
  H126     1.0000 0.08160  0.26090  0.75430  Biso   1.000  H
  Cd15     1.0000 0.38675  0.55651  0.81050  Biso   1.000  Cd
  Cd16     1.0000 0.43838  0.73467  0.40868  Biso   1.000  Cd
  C190     1.0000 0.45598  0.53770  0.21760  Biso   1.000  C
  H127     1.0000 0.47770  0.52850  0.24660  Biso   1.000  H
  C191     1.0000 0.41705  0.60610  0.22840  Biso   1.000  C
  C192     1.0000 0.38379  0.61780  0.18590  Biso   1.000  C
  H128     1.0000 0.35830  0.66390  0.19280  Biso   1.000  H
  C193     1.0000 0.38898  0.55960  0.13250  Biso   1.000  C
  C194     1.0000 0.42834  0.49410  0.12230  Biso   1.000  C
  H129     1.0000 0.43200  0.45630  0.08680  Biso   1.000  H
  C195     1.0000 0.46216  0.48420  0.16430  Biso   1.000  C
  C196     1.0000 0.35463  0.56610  0.08560  Biso   1.000  C
  C197     1.0000 0.30852  0.57460  0.09860  Biso   1.000  C
  H130     1.0000 0.29980  0.57860  0.13740  Biso   1.000  H
  C198     1.0000 0.27497  0.57730  0.05580  Biso   1.000  C
  C199     1.0000 0.22589  0.58440  0.07050  Biso   1.000  C
  C200     1.0000 0.14860  0.62580  0.04130  Biso   1.000  C
  C201     1.0000 0.19399  0.61450  0.02820  Biso   1.000  C
  H131     1.0000 0.20360  0.62720  0.99030  Biso   1.000  H
  C202     1.0000 0.14800  0.55250  0.20160  Biso   1.000  C
  C203     1.0000 0.33582  0.56980  0.98370  Biso   1.000  C
  C204     1.0000 0.28907  0.57280  0.99720  Biso   1.000  C
  H132     1.0000 0.26770  0.57180  0.96750  Biso   1.000  H
  C205     1.0000 0.36751  0.56510  0.02710  Biso   1.000  C
  H133     1.0000 0.39810  0.56130  0.01750  Biso   1.000  H
  C206     1.0000 0.35036  0.56990  0.92130  Biso   1.000  C
  C207     1.0000 0.11545  0.66190  0.99460  Biso   1.000  C
  C208     1.0000 0.41180  0.66600  0.28700  Biso   1.000  C
  C209     1.0000 0.50419  0.41570  0.15220  Biso   1.000  C
  O85      1.0000 0.17619  0.54590  0.24203  Biso   1.000  O
  O86      1.0000 0.10624  0.54620  0.21041  Biso   1.000  O
  O87      1.0000 0.32309  0.55310  0.88148  Biso   1.000  O
  O88      1.0000 0.39226  0.58870  0.91046  Biso   1.000  O
  O89      1.0000 0.12807  0.65290  0.94283  Biso   1.000  O
  O90      1.0000 0.07715  0.69810  0.00845  Biso   1.000  O
  O91      1.0000 0.50600  0.35940  0.10484  Biso   1.000  O
  O92      1.0000 0.53552  0.41910  0.18914  Biso   1.000  O
  O93      1.0000 0.38004  0.73970  0.29324  Biso   1.000  O
  O94      1.0000 0.44062  0.64070  0.32444  Biso   1.000  O
  O95      1.0000 0.39130  0.35060  0.82110  Biso   1.000  O
  C210     1.0000 0.21006  0.56400  0.12690  Biso   1.000  C
  H134     1.0000 0.23060  0.54390  0.15590  Biso   1.000  H
  C211     1.0000 0.13322  0.60610  0.09790  Biso   1.000  C
  H135     1.0000 0.10270  0.61480  0.10680  Biso   1.000  H
  C212     1.0000 0.16399  0.57330  0.14060  Biso   1.000  C
  N8       1.0000 0.47100  0.30080  0.88100  Biso   1.000  N
  C213     1.0000 0.50990  0.21710  0.87650  Biso   1.000  C
  H136     1.0000 0.53700  0.25500  0.89020  Biso   1.000  H
  H137     1.0000 0.50390  0.14860  0.89980  Biso   1.000  H
  H138     1.0000 0.51390  0.19410  0.83670  Biso   1.000  H
  C214     1.0000 0.46180  0.36030  0.93660  Biso   1.000  C
  H139     1.0000 0.43980  0.31580  0.95820  Biso   1.000  H
  H140     1.0000 0.48930  0.36600  0.95860  Biso   1.000  H
  H141     1.0000 0.45020  0.43790  0.92920  Biso   1.000  H
  O96      1.0000 0.40720  0.37750  0.83900  Biso   1.000  O
  C215     1.0000 0.43980  0.31260  0.83130  Biso   1.000  C
  C216     1.0000 0.44650  0.26870  0.76920  Biso   1.000  C
  H142     1.0000 0.45680  0.33270  0.74520  Biso   1.000  H
  H143     1.0000 0.46870  0.20690  0.76890  Biso   1.000  H
  H144     1.0000 0.41840  0.23910  0.75430  Biso   1.000  H
