data_image0
_cell_length_a       16.279
_cell_length_b       6.82
_cell_length_c       23.711
_cell_angle_alpha    90
_cell_angle_beta     103.97
_cell_angle_gamma    90

_symmetry_space_group_name_H-M    "P 1"
_symmetry_int_tables_number       1

loop_
  _symmetry_equiv_pos_as_xyz
  'x, y, z'

loop_
  _atom_site_label
  _atom_site_occupancy
  _atom_site_fract_x
  _atom_site_fract_y
  _atom_site_fract_z
  _atom_site_thermal_displace_type
  _atom_site_B_iso_or_equiv
  _atom_site_type_symbol
  Zn1      1.0000 0.17448  0.58053  0.72299  Biso   1.000  Zn
  Zn2      1.0000 0.00321  0.32605  0.75473  Biso   1.000  Zn
  Br1      1.0000 0.09178  0.12275  0.57236  Biso   1.000  Br
  O1       1.0000 0.04550  0.59350  0.33225  Biso   1.000  O
  O2       1.0000 0.04600  0.26020  0.34115  Biso   1.000  O
  O3       1.0000 0.08170  0.58060  0.76425  Biso   1.000  O
  C1       1.0000 0.22120  0.07470  0.72240  Biso   1.000  C
  O4       1.0000 0.12660  0.54670  0.64027  Biso   1.000  O
  O5       1.0000 0.25270  0.56960  0.62820  Biso   1.000  O
  N1       1.0000 0.17320  0.91240  0.72041  Biso   1.000  N
  C2       1.0000 0.58600  0.08830  0.65880  Biso   1.000  C
  C3       1.0000 0.17920  0.54000  0.60970  Biso   1.000  C
  C4       1.0000 0.05500  0.43600  0.36080  Biso   1.000  C
  C5       1.0000 0.08340  0.46140  0.42570  Biso   1.000  C
  N2       1.0000 0.09790  0.98330  0.72527  Biso   1.000  N
  N3       1.0000 0.10170  0.17030  0.73067  Biso   1.000  N
  N4       1.0000 0.70260  0.08480  0.73190  Biso   1.000  N
  C6       1.0000 0.10270  0.33340  0.52360  Biso   1.000  C
  C7       1.0000 0.63500  0.08180  0.75300  Biso   1.000  C
  H1       1.0000 0.63600  0.07900  0.79240  Biso   1.000  H
  C8       1.0000 0.14900  0.65350  0.50690  Biso   1.000  C
  H2       1.0000 0.17450  0.77100  0.52140  Biso   1.000  H
  N5       1.0000 0.17870  0.23410  0.72991  Biso   1.000  N
  C9       1.0000 0.14440  0.50320  0.54580  Biso   1.000  C
  C10      1.0000 0.11820  0.63560  0.44900  Biso   1.000  C
  H3       1.0000 0.12050  0.74170  0.42480  Biso   1.000  H
  C11      1.0000 0.07410  0.30330  0.46440  Biso   1.000  C
  H4       1.0000 0.04950  0.18480  0.44990  Biso   1.000  H
  C12      1.0000 0.66880  0.08520  0.67400  Biso   1.000  C
  H5       1.0000 0.70180  0.08340  0.64700  Biso   1.000  H
  N6       1.0000 0.56610  0.08330  0.71110  Biso   1.000  N
  C13      1.0000 0.31150  0.05800  0.71940  Biso   1.000  C
  C14      1.0000 0.37400  0.08920  0.76876  Biso   1.000  C
  H6       1.0000 0.36010  0.11020  0.80410  Biso   1.000  H
  C15      1.0000 0.45719  0.08940  0.76612  Biso   1.000  C
  H7       1.0000 0.49970  0.11060  0.79960  Biso   1.000  H
  C16      1.0000 0.47780  0.05850  0.71411  Biso   1.000  C
  C17      1.0000 0.41520  0.02720  0.66476  Biso   1.000  C
  H8       1.0000 0.42920  0.00620  0.62950  Biso   1.000  H
  C18      1.0000 0.33210  0.02700  0.66739  Biso   1.000  C
  H9       1.0000 0.28960  0.00580  0.63390  Biso   1.000  H
  C19      1.0000 0.31130  0.08620  0.71949  Biso   1.000  C
  C20      1.0000 0.37480  0.09040  0.76989  Biso   1.000  C
  H10      1.0000 0.36120  0.08950  0.80580  Biso   1.000  H
  C21      1.0000 0.45830  0.09600  0.76705  Biso   1.000  C
  H11      1.0000 0.50110  0.09890  0.80110  Biso   1.000  H
  C22      1.0000 0.47840  0.09740  0.71379  Biso   1.000  C
  C23      1.0000 0.41490  0.09310  0.66338  Biso   1.000  C
  H12      1.0000 0.42850  0.09400  0.62750  Biso   1.000  H
  C24      1.0000 0.33140  0.08750  0.66623  Biso   1.000  C
  H13      1.0000 0.28850  0.08470  0.63220  Biso   1.000  H
  Zn3      1.0000 0.82552  0.08053  0.77701  Biso   1.000  Zn
  Zn4      1.0000 0.99679  0.82605  0.74527  Biso   1.000  Zn
  Br2      1.0000 0.90822  0.62275  0.92764  Biso   1.000  Br
  O6       1.0000 0.95450  0.09350  0.16775  Biso   1.000  O
  O7       1.0000 0.95400  0.76020  0.15885  Biso   1.000  O
  O8       1.0000 0.91830  0.08060  0.73575  Biso   1.000  O
  C25      1.0000 0.77880  0.57470  0.77760  Biso   1.000  C
  O9       1.0000 0.87340  0.04670  0.85973  Biso   1.000  O
  O10      1.0000 0.74730  0.06960  0.87180  Biso   1.000  O
  N7       1.0000 0.82680  0.41240  0.77959  Biso   1.000  N
  C26      1.0000 0.41400  0.58830  0.84120  Biso   1.000  C
  C27      1.0000 0.82080  0.04000  0.89030  Biso   1.000  C
  C28      1.0000 0.94500  0.93600  0.13920  Biso   1.000  C
  C29      1.0000 0.91660  0.96140  0.07430  Biso   1.000  C
  N8       1.0000 0.90210  0.48330  0.77473  Biso   1.000  N
  N9       1.0000 0.89830  0.67030  0.76933  Biso   1.000  N
  N10      1.0000 0.29740  0.58480  0.76810  Biso   1.000  N
  C30      1.0000 0.89730  0.83340  0.97640  Biso   1.000  C
  C31      1.0000 0.36500  0.58180  0.74700  Biso   1.000  C
  H14      1.0000 0.36400  0.57900  0.70760  Biso   1.000  H
  C32      1.0000 0.85100  0.15350  0.99310  Biso   1.000  C
  H15      1.0000 0.82550  0.27100  0.97860  Biso   1.000  H
  N11      1.0000 0.82130  0.73410  0.77009  Biso   1.000  N
  C33      1.0000 0.85560  0.00320  0.95420  Biso   1.000  C
  C34      1.0000 0.88180  0.13560  0.05100  Biso   1.000  C
  H16      1.0000 0.87950  0.24170  0.07520  Biso   1.000  H
  C35      1.0000 0.92590  0.80330  0.03560  Biso   1.000  C
  H17      1.0000 0.95050  0.68480  0.05010  Biso   1.000  H
  C36      1.0000 0.33120  0.58520  0.82600  Biso   1.000  C
  H18      1.0000 0.29820  0.58340  0.85300  Biso   1.000  H
  N12      1.0000 0.43390  0.58330  0.78890  Biso   1.000  N
  C37      1.0000 0.68850  0.55800  0.78060  Biso   1.000  C
  C38      1.0000 0.62600  0.58920  0.73124  Biso   1.000  C
  H19      1.0000 0.63990  0.61020  0.69590  Biso   1.000  H
  C39      1.0000 0.54281  0.58940  0.73388  Biso   1.000  C
  H20      1.0000 0.50030  0.61060  0.70040  Biso   1.000  H
  C40      1.0000 0.52220  0.55850  0.78589  Biso   1.000  C
  C41      1.0000 0.58480  0.52720  0.83524  Biso   1.000  C
  H21      1.0000 0.57080  0.50620  0.87050  Biso   1.000  H
  C42      1.0000 0.66790  0.52700  0.83261  Biso   1.000  C
  H22      1.0000 0.71040  0.50580  0.86610  Biso   1.000  H
  C43      1.0000 0.68870  0.58620  0.78051  Biso   1.000  C
  C44      1.0000 0.62520  0.59040  0.73011  Biso   1.000  C
  H23      1.0000 0.63880  0.58950  0.69420  Biso   1.000  H
  C45      1.0000 0.54170  0.59600  0.73295  Biso   1.000  C
  H24      1.0000 0.49890  0.59890  0.69890  Biso   1.000  H
  C46      1.0000 0.52160  0.59740  0.78621  Biso   1.000  C
  C47      1.0000 0.58510  0.59310  0.83662  Biso   1.000  C
  H25      1.0000 0.57150  0.59400  0.87250  Biso   1.000  H
  C48      1.0000 0.66860  0.58750  0.83377  Biso   1.000  C
  H26      1.0000 0.71150  0.58470  0.86780  Biso   1.000  H
  Zn5      1.0000 0.82552  0.41947  0.27701  Biso   1.000  Zn
  Zn6      1.0000 0.99679  0.67395  0.24527  Biso   1.000  Zn
  Br3      1.0000 0.90822  0.87725  0.42764  Biso   1.000  Br
  O11      1.0000 0.95450  0.40650  0.66775  Biso   1.000  O
  O12      1.0000 0.95400  0.73980  0.65885  Biso   1.000  O
  O13      1.0000 0.91830  0.41940  0.23575  Biso   1.000  O
  C49      1.0000 0.77880  0.92530  0.27760  Biso   1.000  C
  O14      1.0000 0.87340  0.45330  0.35973  Biso   1.000  O
  O15      1.0000 0.74730  0.43040  0.37180  Biso   1.000  O
  N13      1.0000 0.82680  0.08760  0.27959  Biso   1.000  N
  C50      1.0000 0.41400  0.91170  0.34120  Biso   1.000  C
  C51      1.0000 0.82080  0.46000  0.39030  Biso   1.000  C
  C52      1.0000 0.94500  0.56400  0.63920  Biso   1.000  C
  C53      1.0000 0.91660  0.53860  0.57430  Biso   1.000  C
  N14      1.0000 0.90210  0.01670  0.27473  Biso   1.000  N
  N15      1.0000 0.89830  0.82970  0.26933  Biso   1.000  N
  N16      1.0000 0.29740  0.91520  0.26810  Biso   1.000  N
  C54      1.0000 0.89730  0.66660  0.47640  Biso   1.000  C
  C55      1.0000 0.36500  0.91820  0.24700  Biso   1.000  C
  H27      1.0000 0.36400  0.92100  0.20760  Biso   1.000  H
  C56      1.0000 0.85100  0.34650  0.49310  Biso   1.000  C
  H28      1.0000 0.82550  0.22900  0.47860  Biso   1.000  H
  N17      1.0000 0.82130  0.76590  0.27009  Biso   1.000  N
  C57      1.0000 0.85560  0.49680  0.45420  Biso   1.000  C
  C58      1.0000 0.88180  0.36440  0.55100  Biso   1.000  C
  H29      1.0000 0.87950  0.25830  0.57520  Biso   1.000  H
  C59      1.0000 0.92590  0.69670  0.53560  Biso   1.000  C
  H30      1.0000 0.95050  0.81520  0.55010  Biso   1.000  H
  C60      1.0000 0.33120  0.91480  0.32600  Biso   1.000  C
  H31      1.0000 0.29820  0.91660  0.35300  Biso   1.000  H
  N18      1.0000 0.43390  0.91670  0.28890  Biso   1.000  N
  C61      1.0000 0.68850  0.94200  0.28060  Biso   1.000  C
  C62      1.0000 0.62600  0.91080  0.23124  Biso   1.000  C
  H32      1.0000 0.63990  0.88980  0.19590  Biso   1.000  H
  C63      1.0000 0.54281  0.91060  0.23388  Biso   1.000  C
  H33      1.0000 0.50030  0.88940  0.20040  Biso   1.000  H
  C64      1.0000 0.52220  0.94150  0.28589  Biso   1.000  C
  C65      1.0000 0.58480  0.97280  0.33524  Biso   1.000  C
  H34      1.0000 0.57080  0.99380  0.37050  Biso   1.000  H
  C66      1.0000 0.66790  0.97300  0.33261  Biso   1.000  C
  H35      1.0000 0.71040  0.99420  0.36610  Biso   1.000  H
  C67      1.0000 0.68870  0.91380  0.28051  Biso   1.000  C
  C68      1.0000 0.62520  0.90960  0.23011  Biso   1.000  C
  H36      1.0000 0.63880  0.91050  0.19420  Biso   1.000  H
  C69      1.0000 0.54170  0.90400  0.23295  Biso   1.000  C
  H37      1.0000 0.49890  0.90110  0.19890  Biso   1.000  H
  C70      1.0000 0.52160  0.90260  0.28621  Biso   1.000  C
  C71      1.0000 0.58510  0.90690  0.33662  Biso   1.000  C
  H38      1.0000 0.57150  0.90600  0.37250  Biso   1.000  H
  C72      1.0000 0.66860  0.91250  0.33377  Biso   1.000  C
  H39      1.0000 0.71150  0.91530  0.36780  Biso   1.000  H
  Zn7      1.0000 0.17448  0.91947  0.22299  Biso   1.000  Zn
  Zn8      1.0000 0.00321  0.17395  0.25473  Biso   1.000  Zn
  Br4      1.0000 0.09178  0.37725  0.07236  Biso   1.000  Br
  O16      1.0000 0.04550  0.90650  0.83225  Biso   1.000  O
  O17      1.0000 0.04600  0.23980  0.84115  Biso   1.000  O
  O18      1.0000 0.08170  0.91940  0.26425  Biso   1.000  O
  C73      1.0000 0.22120  0.42530  0.22240  Biso   1.000  C
  O19      1.0000 0.12660  0.95330  0.14027  Biso   1.000  O
  O20      1.0000 0.25270  0.93040  0.12820  Biso   1.000  O
  N19      1.0000 0.17320  0.58760  0.22041  Biso   1.000  N
  C74      1.0000 0.58600  0.41170  0.15880  Biso   1.000  C
  C75      1.0000 0.17920  0.96000  0.10970  Biso   1.000  C
  C76      1.0000 0.05500  0.06400  0.86080  Biso   1.000  C
  C77      1.0000 0.08340  0.03860  0.92570  Biso   1.000  C
  N20      1.0000 0.09790  0.51670  0.22527  Biso   1.000  N
  N21      1.0000 0.10170  0.32970  0.23067  Biso   1.000  N
  N22      1.0000 0.70260  0.41520  0.23190  Biso   1.000  N
  C78      1.0000 0.10270  0.16660  0.02360  Biso   1.000  C
  C79      1.0000 0.63500  0.41820  0.25300  Biso   1.000  C
  H40      1.0000 0.63600  0.42100  0.29240  Biso   1.000  H
  C80      1.0000 0.14900  0.84650  0.00690  Biso   1.000  C
  H41      1.0000 0.17450  0.72900  0.02140  Biso   1.000  H
  N23      1.0000 0.17870  0.26590  0.22991  Biso   1.000  N
  C81      1.0000 0.14440  0.99680  0.04580  Biso   1.000  C
  C82      1.0000 0.11820  0.86440  0.94900  Biso   1.000  C
  H42      1.0000 0.12050  0.75830  0.92480  Biso   1.000  H
  C83      1.0000 0.07410  0.19670  0.96440  Biso   1.000  C
  H43      1.0000 0.04950  0.31520  0.94990  Biso   1.000  H
  C84      1.0000 0.66880  0.41480  0.17400  Biso   1.000  C
  H44      1.0000 0.70180  0.41660  0.14700  Biso   1.000  H
  N24      1.0000 0.56610  0.41670  0.21110  Biso   1.000  N
  C85      1.0000 0.31150  0.44200  0.21940  Biso   1.000  C
  C86      1.0000 0.37400  0.41080  0.26876  Biso   1.000  C
  H45      1.0000 0.36010  0.38980  0.30410  Biso   1.000  H
  C87      1.0000 0.45719  0.41060  0.26612  Biso   1.000  C
  H46      1.0000 0.49970  0.38940  0.29960  Biso   1.000  H
  C88      1.0000 0.47780  0.44150  0.21411  Biso   1.000  C
  C89      1.0000 0.41520  0.47280  0.16476  Biso   1.000  C
  H47      1.0000 0.42920  0.49380  0.12950  Biso   1.000  H
  C90      1.0000 0.33210  0.47300  0.16739  Biso   1.000  C
  H48      1.0000 0.28960  0.49420  0.13390  Biso   1.000  H
  C91      1.0000 0.31130  0.41380  0.21949  Biso   1.000  C
  C92      1.0000 0.37480  0.40960  0.26989  Biso   1.000  C
  H49      1.0000 0.36120  0.41050  0.30580  Biso   1.000  H
  C93      1.0000 0.45830  0.40400  0.26705  Biso   1.000  C
  H50      1.0000 0.50110  0.40110  0.30110  Biso   1.000  H
  C94      1.0000 0.47840  0.40260  0.21379  Biso   1.000  C
  C95      1.0000 0.41490  0.40690  0.16338  Biso   1.000  C
  H51      1.0000 0.42850  0.40600  0.12750  Biso   1.000  H
  C96      1.0000 0.33140  0.41250  0.16623  Biso   1.000  C
  H52      1.0000 0.28850  0.41530  0.13220  Biso   1.000  H
