data_image0
_cell_length_a       9.489
_cell_length_b       26.246
_cell_length_c       9.898
_cell_angle_alpha    90
_cell_angle_beta     90
_cell_angle_gamma    90

_symmetry_space_group_name_H-M    "P 1"
_symmetry_int_tables_number       1

loop_
  _symmetry_equiv_pos_as_xyz
  'x, y, z'

loop_
  _atom_site_label
  _atom_site_occupancy
  _atom_site_fract_x
  _atom_site_fract_y
  _atom_site_fract_z
  _atom_site_thermal_displace_type
  _atom_site_B_iso_or_equiv
  _atom_site_type_symbol
  N1       1.0000 0.55860  0.29690  0.29870  Biso   1.000  N
  C1       1.0000 0.42850  0.27640  0.27570  Biso   1.000  C
  C2       1.0000 0.88400  0.20440  0.19200  Biso   1.000  C
  C3       1.0000 0.30780  0.30280  0.30370  Biso   1.000  C
  H1       1.0000 0.21800  0.28730  0.29240  Biso   1.000  H
  C4       1.0000 0.75100  0.27930  0.07280  Biso   1.000  C
  C5       1.0000 0.31880  0.35220  0.34870  Biso   1.000  C
  H2       1.0000 0.23580  0.37090  0.36930  Biso   1.000  H
  C6       1.0000 0.44830  0.37490  0.36420  Biso   1.000  C
  C7       1.0000 0.56650  0.34620  0.34190  Biso   1.000  C
  H3       1.0000 0.65650  0.36100  0.35690  Biso   1.000  H
  C8       1.0000 0.46870  0.43010  0.41010  Biso   1.000  C
  O1       1.0000 0.58400  0.43860  0.46400  Biso   1.000  O
  O2       1.0000 0.97190  0.17680  0.15960  Biso   1.000  O
  O3       1.0000 0.35730  0.45550  0.41080  Biso   1.000  O
  O4       1.0000 0.75800  0.30030  0.97110  Biso   1.000  O
  Cl1      1.0000 0.69870  0.29050  0.02190  Biso   1.000  Cl
  O5       1.0000 0.59200  0.05130  0.09400  Biso   1.000  O
  N2       1.0000 0.94140  0.70310  0.29870  Biso   1.000  N
  C9       1.0000 0.07150  0.72360  0.27570  Biso   1.000  C
  C10      1.0000 0.61600  0.79560  0.19200  Biso   1.000  C
  C11      1.0000 0.19220  0.69720  0.30370  Biso   1.000  C
  H4       1.0000 0.28200  0.71270  0.29240  Biso   1.000  H
  C12      1.0000 0.74900  0.72070  0.07280  Biso   1.000  C
  C13      1.0000 0.18120  0.64780  0.34870  Biso   1.000  C
  H5       1.0000 0.26420  0.62910  0.36930  Biso   1.000  H
  C14      1.0000 0.05170  0.62510  0.36420  Biso   1.000  C
  C15      1.0000 0.93350  0.65380  0.34190  Biso   1.000  C
  H6       1.0000 0.84350  0.63900  0.35690  Biso   1.000  H
  C16      1.0000 0.03130  0.56990  0.41010  Biso   1.000  C
  O6       1.0000 0.91600  0.56140  0.46400  Biso   1.000  O
  O7       1.0000 0.52810  0.82320  0.15960  Biso   1.000  O
  O8       1.0000 0.14270  0.54450  0.41080  Biso   1.000  O
  O9       1.0000 0.74200  0.69970  0.97110  Biso   1.000  O
  Cl2      1.0000 0.80130  0.70950  0.02190  Biso   1.000  Cl
  O10      1.0000 0.90800  0.94870  0.09400  Biso   1.000  O
  N3       1.0000 0.94140  0.79690  0.20130  Biso   1.000  N
  C17      1.0000 0.07150  0.77640  0.22430  Biso   1.000  C
  C18      1.0000 0.61600  0.70440  0.30800  Biso   1.000  C
  C19      1.0000 0.19220  0.80280  0.19630  Biso   1.000  C
  H7       1.0000 0.28200  0.78730  0.20760  Biso   1.000  H
  C20      1.0000 0.74900  0.77930  0.42720  Biso   1.000  C
  C21      1.0000 0.18120  0.85220  0.15130  Biso   1.000  C
  H8       1.0000 0.26420  0.87090  0.13070  Biso   1.000  H
  C22      1.0000 0.05170  0.87490  0.13580  Biso   1.000  C
  C23      1.0000 0.93350  0.84620  0.15810  Biso   1.000  C
  H9       1.0000 0.84350  0.86100  0.14310  Biso   1.000  H
  C24      1.0000 0.03130  0.93010  0.08990  Biso   1.000  C
  O11      1.0000 0.91600  0.93860  0.03600  Biso   1.000  O
  O12      1.0000 0.52810  0.67680  0.34040  Biso   1.000  O
  O13      1.0000 0.14270  0.95550  0.08920  Biso   1.000  O
  O14      1.0000 0.74200  0.80030  0.52890  Biso   1.000  O
  Cl3      1.0000 0.80130  0.79050  0.47810  Biso   1.000  Cl
  O15      1.0000 0.90800  0.55130  0.40600  Biso   1.000  O
  N4       1.0000 0.55860  0.20310  0.20130  Biso   1.000  N
  C25      1.0000 0.42850  0.22360  0.22430  Biso   1.000  C
  C26      1.0000 0.88400  0.29560  0.30800  Biso   1.000  C
  C27      1.0000 0.30780  0.19720  0.19630  Biso   1.000  C
  H10      1.0000 0.21800  0.21270  0.20760  Biso   1.000  H
  C28      1.0000 0.75100  0.22070  0.42720  Biso   1.000  C
  C29      1.0000 0.31880  0.14780  0.15130  Biso   1.000  C
  H11      1.0000 0.23580  0.12910  0.13070  Biso   1.000  H
  C30      1.0000 0.44830  0.12510  0.13580  Biso   1.000  C
  C31      1.0000 0.56650  0.15380  0.15810  Biso   1.000  C
  H12      1.0000 0.65650  0.13900  0.14310  Biso   1.000  H
  C32      1.0000 0.46870  0.06990  0.08990  Biso   1.000  C
  O16      1.0000 0.58400  0.06140  0.03600  Biso   1.000  O
  O17      1.0000 0.97190  0.32320  0.34040  Biso   1.000  O
  O18      1.0000 0.35730  0.04450  0.08920  Biso   1.000  O
  O19      1.0000 0.75800  0.19970  0.52890  Biso   1.000  O
  Cl4      1.0000 0.69870  0.20950  0.47810  Biso   1.000  Cl
  O20      1.0000 0.59200  0.44870  0.40600  Biso   1.000  O
  N5       1.0000 0.44140  0.70310  0.70130  Biso   1.000  N
  C33      1.0000 0.57150  0.72360  0.72430  Biso   1.000  C
  C34      1.0000 0.11600  0.79560  0.80800  Biso   1.000  C
  C35      1.0000 0.69220  0.69720  0.69630  Biso   1.000  C
  H13      1.0000 0.78200  0.71270  0.70760  Biso   1.000  H
  C36      1.0000 0.24900  0.72070  0.92720  Biso   1.000  C
  C37      1.0000 0.68120  0.64780  0.65130  Biso   1.000  C
  H14      1.0000 0.76420  0.62910  0.63070  Biso   1.000  H
  C38      1.0000 0.55170  0.62510  0.63580  Biso   1.000  C
  C39      1.0000 0.43350  0.65380  0.65810  Biso   1.000  C
  H15      1.0000 0.34350  0.63900  0.64310  Biso   1.000  H
  C40      1.0000 0.53130  0.56990  0.58990  Biso   1.000  C
  O21      1.0000 0.41600  0.56140  0.53600  Biso   1.000  O
  O22      1.0000 0.02810  0.82320  0.84040  Biso   1.000  O
  O23      1.0000 0.64270  0.54450  0.58920  Biso   1.000  O
  O24      1.0000 0.24200  0.69970  0.02890  Biso   1.000  O
  Cl5      1.0000 0.30130  0.70950  0.97810  Biso   1.000  Cl
  O25      1.0000 0.40800  0.94870  0.90600  Biso   1.000  O
  N6       1.0000 0.05860  0.29690  0.70130  Biso   1.000  N
  C41      1.0000 0.92850  0.27640  0.72430  Biso   1.000  C
  C42      1.0000 0.38400  0.20440  0.80800  Biso   1.000  C
  C43      1.0000 0.80780  0.30280  0.69630  Biso   1.000  C
  H16      1.0000 0.71800  0.28730  0.70760  Biso   1.000  H
  C44      1.0000 0.25100  0.27930  0.92720  Biso   1.000  C
  C45      1.0000 0.81880  0.35220  0.65130  Biso   1.000  C
  H17      1.0000 0.73580  0.37090  0.63070  Biso   1.000  H
  C46      1.0000 0.94830  0.37490  0.63580  Biso   1.000  C
  C47      1.0000 0.06650  0.34620  0.65810  Biso   1.000  C
  H18      1.0000 0.15650  0.36100  0.64310  Biso   1.000  H
  C48      1.0000 0.96870  0.43010  0.58990  Biso   1.000  C
  O26      1.0000 0.08400  0.43860  0.53600  Biso   1.000  O
  O27      1.0000 0.47190  0.17680  0.84040  Biso   1.000  O
  O28      1.0000 0.85730  0.45550  0.58920  Biso   1.000  O
  O29      1.0000 0.25800  0.30030  0.02890  Biso   1.000  O
  Cl6      1.0000 0.19870  0.29050  0.97810  Biso   1.000  Cl
  O30      1.0000 0.09200  0.05130  0.90600  Biso   1.000  O
  N7       1.0000 0.05860  0.20310  0.79870  Biso   1.000  N
  C49      1.0000 0.92850  0.22360  0.77570  Biso   1.000  C
  C50      1.0000 0.38400  0.29560  0.69200  Biso   1.000  C
  C51      1.0000 0.80780  0.19720  0.80370  Biso   1.000  C
  H19      1.0000 0.71800  0.21270  0.79240  Biso   1.000  H
  C52      1.0000 0.25100  0.22070  0.57280  Biso   1.000  C
  C53      1.0000 0.81880  0.14780  0.84870  Biso   1.000  C
  H20      1.0000 0.73580  0.12910  0.86930  Biso   1.000  H
  C54      1.0000 0.94830  0.12510  0.86420  Biso   1.000  C
  C55      1.0000 0.06650  0.15380  0.84190  Biso   1.000  C
  H21      1.0000 0.15650  0.13900  0.85690  Biso   1.000  H
  C56      1.0000 0.96870  0.06990  0.91010  Biso   1.000  C
  O31      1.0000 0.08400  0.06140  0.96400  Biso   1.000  O
  O32      1.0000 0.47190  0.32320  0.65960  Biso   1.000  O
  O33      1.0000 0.85730  0.04450  0.91080  Biso   1.000  O
  O34      1.0000 0.25800  0.19970  0.47110  Biso   1.000  O
  Cl7      1.0000 0.19870  0.20950  0.52190  Biso   1.000  Cl
  O35      1.0000 0.09200  0.44870  0.59400  Biso   1.000  O
  N8       1.0000 0.44140  0.79690  0.79870  Biso   1.000  N
  C57      1.0000 0.57150  0.77640  0.77570  Biso   1.000  C
  C58      1.0000 0.11600  0.70440  0.69200  Biso   1.000  C
  C59      1.0000 0.69220  0.80280  0.80370  Biso   1.000  C
  H22      1.0000 0.78200  0.78730  0.79240  Biso   1.000  H
  C60      1.0000 0.24900  0.77930  0.57280  Biso   1.000  C
  C61      1.0000 0.68120  0.85220  0.84870  Biso   1.000  C
  H23      1.0000 0.76420  0.87090  0.86930  Biso   1.000  H
  C62      1.0000 0.55170  0.87490  0.86420  Biso   1.000  C
  C63      1.0000 0.43350  0.84620  0.84190  Biso   1.000  C
  H24      1.0000 0.34350  0.86100  0.85690  Biso   1.000  H
  C64      1.0000 0.53130  0.93010  0.91010  Biso   1.000  C
  O36      1.0000 0.41600  0.93860  0.96400  Biso   1.000  O
  O37      1.0000 0.02810  0.67680  0.65960  Biso   1.000  O
  O38      1.0000 0.64270  0.95550  0.91080  Biso   1.000  O
  O39      1.0000 0.24200  0.80030  0.47110  Biso   1.000  O
  Cl8      1.0000 0.30130  0.79050  0.52190  Biso   1.000  Cl
  O40      1.0000 0.40800  0.55130  0.59400  Biso   1.000  O
  Re1      1.0000 0.73836  0.25000  0.25000  Biso   1.000  Re
  Re2      1.0000 0.76164  0.75000  0.25000  Biso   1.000  Re
  Re3      1.0000 0.26164  0.75000  0.75000  Biso   1.000  Re
  Re4      1.0000 0.23836  0.25000  0.75000  Biso   1.000  Re
  Mn1      1.0000 0.75000  0.50000  0.44040  Biso   1.000  Mn
  Mn2      1.0000 0.75000  0.00000  0.05960  Biso   1.000  Mn
  Mn3      1.0000 0.25000  0.50000  0.55960  Biso   1.000  Mn
  Mn4      1.0000 0.25000  0.00000  0.94040  Biso   1.000  Mn
