data_image0
_cell_length_a       18.6342
_cell_length_b       18.6342
_cell_length_c       37.709
_cell_angle_alpha    90
_cell_angle_beta     90
_cell_angle_gamma    120

_symmetry_space_group_name_H-M    "P 1"
_symmetry_int_tables_number       1

loop_
  _symmetry_equiv_pos_as_xyz
  'x, y, z'

loop_
  _atom_site_label
  _atom_site_occupancy
  _atom_site_fract_x
  _atom_site_fract_y
  _atom_site_fract_z
  _atom_site_thermal_displace_type
  _atom_site_B_iso_or_equiv
  _atom_site_type_symbol
  O1       1.0000 0.88984  0.63392  0.12274  Biso   1.000  O
  O2       1.0000 0.85093  0.55579  0.17124  Biso   1.000  O
  C1       1.0000 0.87865  0.57293  0.14039  Biso   1.000  C
  C2       1.0000 0.89843  0.51311  0.12314  Biso   1.000  C
  C3       1.0000 0.92820  0.52800  0.08868  Biso   1.000  C
  H1       1.0000 0.93850  0.57640  0.07720  Biso   1.000  H
  C4       1.0000 0.95130  0.53120  0.01240  Biso   1.000  C
  H2       1.0000 0.92200  0.55570  0.02110  Biso   1.000  H
  C5       1.0000 0.97970  0.54610  0.97769  Biso   1.000  C
  H3       1.0000 0.90780  0.54000  0.01860  Biso   1.000  H
  H4       1.0000 0.96630  0.57730  0.96260  Biso   1.000  H
  N1       1.0000 0.02030  0.56640  0.02231  Biso   1.000  N
  O3       1.0000 0.55651  0.96725  0.45607  Biso   1.000  O
  O4       1.0000 0.51760  0.88912  0.50457  Biso   1.000  O
  C6       1.0000 0.54532  0.90626  0.47372  Biso   1.000  C
  C7       1.0000 0.56510  0.84644  0.45647  Biso   1.000  C
  C8       1.0000 0.59487  0.86133  0.42201  Biso   1.000  C
  H5       1.0000 0.60517  0.90973  0.41053  Biso   1.000  H
  C9       1.0000 0.61797  0.86453  0.34573  Biso   1.000  C
  H6       1.0000 0.58867  0.88903  0.35443  Biso   1.000  H
  C10      1.0000 0.64637  0.87943  0.31102  Biso   1.000  C
  H7       1.0000 0.57447  0.87333  0.35193  Biso   1.000  H
  H8       1.0000 0.63297  0.91063  0.29593  Biso   1.000  H
  N2       1.0000 0.68697  0.89973  0.35564  Biso   1.000  N
  O5       1.0000 0.22317  0.30059  0.78941  Biso   1.000  O
  O6       1.0000 0.18426  0.22246  0.83791  Biso   1.000  O
  C11      1.0000 0.21198  0.23960  0.80706  Biso   1.000  C
  C12      1.0000 0.23176  0.17978  0.78981  Biso   1.000  C
  C13      1.0000 0.26153  0.19467  0.75535  Biso   1.000  C
  H9       1.0000 0.27183  0.24307  0.74387  Biso   1.000  H
  C14      1.0000 0.28463  0.19787  0.67907  Biso   1.000  C
  H10      1.0000 0.25533  0.22237  0.68777  Biso   1.000  H
  C15      1.0000 0.31303  0.21277  0.64436  Biso   1.000  C
  H11      1.0000 0.24113  0.20667  0.68527  Biso   1.000  H
  H12      1.0000 0.29963  0.24397  0.62927  Biso   1.000  H
  N3       1.0000 0.35363  0.23307  0.68898  Biso   1.000  N
  O7       1.0000 0.36608  0.25592  0.12274  Biso   1.000  O
  O8       1.0000 0.44421  0.29514  0.17124  Biso   1.000  O
  C16      1.0000 0.42707  0.30572  0.14039  Biso   1.000  C
  C17      1.0000 0.48689  0.38532  0.12314  Biso   1.000  C
  C18      1.0000 0.47200  0.40020  0.08868  Biso   1.000  C
  H13      1.0000 0.42360  0.36210  0.07720  Biso   1.000  H
  C19      1.0000 0.46880  0.42010  0.01240  Biso   1.000  C
  H14      1.0000 0.44430  0.36630  0.02110  Biso   1.000  H
  C20      1.0000 0.45390  0.43360  0.97769  Biso   1.000  C
  H15      1.0000 0.46000  0.36780  0.01860  Biso   1.000  H
  H16      1.0000 0.42270  0.38900  0.96260  Biso   1.000  H
  N4       1.0000 0.43360  0.45390  0.02231  Biso   1.000  N
  O9       1.0000 0.03275  0.58925  0.45607  Biso   1.000  O
  O10      1.0000 0.11088  0.62847  0.50457  Biso   1.000  O
  C21      1.0000 0.09374  0.63905  0.47372  Biso   1.000  C
  C22      1.0000 0.15356  0.71865  0.45647  Biso   1.000  C
  C23      1.0000 0.13867  0.73353  0.42201  Biso   1.000  C
  H17      1.0000 0.09027  0.69543  0.41053  Biso   1.000  H
  C24      1.0000 0.13547  0.75343  0.34573  Biso   1.000  C
  H18      1.0000 0.11097  0.69963  0.35443  Biso   1.000  H
  C25      1.0000 0.12057  0.76693  0.31102  Biso   1.000  C
  H19      1.0000 0.12667  0.70113  0.35193  Biso   1.000  H
  H20      1.0000 0.08937  0.72233  0.29593  Biso   1.000  H
  N5       1.0000 0.10027  0.78723  0.35564  Biso   1.000  N
  O11      1.0000 0.69941  0.92259  0.78941  Biso   1.000  O
  O12      1.0000 0.77754  0.96181  0.83791  Biso   1.000  O
  C26      1.0000 0.76040  0.97239  0.80706  Biso   1.000  C
  C27      1.0000 0.82022  0.05199  0.78981  Biso   1.000  C
  C28      1.0000 0.80533  0.06687  0.75535  Biso   1.000  C
  H21      1.0000 0.75693  0.02877  0.74387  Biso   1.000  H
  C29      1.0000 0.80213  0.08677  0.67907  Biso   1.000  C
  H22      1.0000 0.77763  0.03297  0.68777  Biso   1.000  H
  C30      1.0000 0.78723  0.10027  0.64436  Biso   1.000  C
  H23      1.0000 0.79333  0.03447  0.68527  Biso   1.000  H
  H24      1.0000 0.75603  0.05567  0.62927  Biso   1.000  H
  N6       1.0000 0.76693  0.12057  0.68898  Biso   1.000  N
  O13      1.0000 0.74408  0.11016  0.12274  Biso   1.000  O
  O14      1.0000 0.70486  0.14907  0.17124  Biso   1.000  O
  C31      1.0000 0.69428  0.12135  0.14039  Biso   1.000  C
  C32      1.0000 0.61468  0.10157  0.12314  Biso   1.000  C
  C33      1.0000 0.59980  0.07180  0.08868  Biso   1.000  C
  H25      1.0000 0.63790  0.06150  0.07720  Biso   1.000  H
  C34      1.0000 0.57990  0.04870  0.01240  Biso   1.000  C
  H26      1.0000 0.63370  0.07800  0.02110  Biso   1.000  H
  C35      1.0000 0.56640  0.02030  0.97769  Biso   1.000  C
  H27      1.0000 0.63220  0.09220  0.01860  Biso   1.000  H
  H28      1.0000 0.61100  0.03370  0.96260  Biso   1.000  H
  N7       1.0000 0.54610  0.97970  0.02231  Biso   1.000  N
  O15      1.0000 0.41075  0.44349  0.45607  Biso   1.000  O
  O16      1.0000 0.37153  0.48240  0.50457  Biso   1.000  O
  C36      1.0000 0.36095  0.45468  0.47372  Biso   1.000  C
  C37      1.0000 0.28135  0.43490  0.45647  Biso   1.000  C
  C38      1.0000 0.26647  0.40513  0.42201  Biso   1.000  C
  H29      1.0000 0.30457  0.39483  0.41053  Biso   1.000  H
  C39      1.0000 0.24657  0.38203  0.34573  Biso   1.000  C
  H30      1.0000 0.30037  0.41133  0.35443  Biso   1.000  H
  C40      1.0000 0.23307  0.35363  0.31102  Biso   1.000  C
  H31      1.0000 0.29887  0.42553  0.35193  Biso   1.000  H
  H32      1.0000 0.27767  0.36703  0.29593  Biso   1.000  H
  N8       1.0000 0.21277  0.31303  0.35564  Biso   1.000  N
  O17      1.0000 0.07741  0.77683  0.78941  Biso   1.000  O
  O18      1.0000 0.03819  0.81574  0.83791  Biso   1.000  O
  C41      1.0000 0.02761  0.78802  0.80706  Biso   1.000  C
  C42      1.0000 0.94801  0.76824  0.78981  Biso   1.000  C
  C43      1.0000 0.93313  0.73847  0.75535  Biso   1.000  C
  H33      1.0000 0.97123  0.72817  0.74387  Biso   1.000  H
  C44      1.0000 0.91323  0.71537  0.67907  Biso   1.000  C
  H34      1.0000 0.96703  0.74467  0.68777  Biso   1.000  H
  C45      1.0000 0.89973  0.68697  0.64436  Biso   1.000  C
  H35      1.0000 0.96553  0.75887  0.68527  Biso   1.000  H
  H36      1.0000 0.94433  0.70037  0.62927  Biso   1.000  H
  N9       1.0000 0.87943  0.64637  0.68898  Biso   1.000  N
  O19      1.0000 0.63392  0.88984  0.87726  Biso   1.000  O
  O20      1.0000 0.55579  0.85093  0.82876  Biso   1.000  O
  C46      1.0000 0.57293  0.87865  0.85961  Biso   1.000  C
  C47      1.0000 0.51311  0.89843  0.87686  Biso   1.000  C
  C48      1.0000 0.52800  0.92820  0.91132  Biso   1.000  C
  H37      1.0000 0.57640  0.93850  0.92280  Biso   1.000  H
  C49      1.0000 0.53120  0.95130  0.98760  Biso   1.000  C
  H38      1.0000 0.55570  0.92200  0.97890  Biso   1.000  H
  H39      1.0000 0.54000  0.90780  0.98140  Biso   1.000  H
  H40      1.0000 0.57730  0.96630  0.03740  Biso   1.000  H
  O21      1.0000 0.30059  0.22317  0.21059  Biso   1.000  O
  O22      1.0000 0.22246  0.18426  0.16209  Biso   1.000  O
  C50      1.0000 0.23960  0.21198  0.19294  Biso   1.000  C
  C51      1.0000 0.17978  0.23176  0.21019  Biso   1.000  C
  C52      1.0000 0.19467  0.26153  0.24465  Biso   1.000  C
  H41      1.0000 0.24307  0.27183  0.25613  Biso   1.000  H
  C53      1.0000 0.19787  0.28463  0.32093  Biso   1.000  C
  H42      1.0000 0.22237  0.25533  0.31223  Biso   1.000  H
  H43      1.0000 0.20667  0.24113  0.31473  Biso   1.000  H
  H44      1.0000 0.24397  0.29963  0.37073  Biso   1.000  H
  O23      1.0000 0.96725  0.55651  0.54393  Biso   1.000  O
  O24      1.0000 0.88912  0.51760  0.49543  Biso   1.000  O
  C54      1.0000 0.90626  0.54532  0.52628  Biso   1.000  C
  C55      1.0000 0.84644  0.56510  0.54353  Biso   1.000  C
  C56      1.0000 0.86133  0.59487  0.57799  Biso   1.000  C
  H45      1.0000 0.90973  0.60517  0.58947  Biso   1.000  H
  C57      1.0000 0.86453  0.61797  0.65427  Biso   1.000  C
  H46      1.0000 0.88903  0.58867  0.64557  Biso   1.000  H
  H47      1.0000 0.87333  0.57447  0.64807  Biso   1.000  H
  H48      1.0000 0.91063  0.63297  0.70407  Biso   1.000  H
  O25      1.0000 0.25592  0.36608  0.87726  Biso   1.000  O
  O26      1.0000 0.29514  0.44421  0.82876  Biso   1.000  O
  C58      1.0000 0.30572  0.42707  0.85961  Biso   1.000  C
  C59      1.0000 0.38532  0.48689  0.87686  Biso   1.000  C
  C60      1.0000 0.40020  0.47200  0.91132  Biso   1.000  C
  H49      1.0000 0.36210  0.42360  0.92280  Biso   1.000  H
  C61      1.0000 0.42010  0.46880  0.98760  Biso   1.000  C
  H50      1.0000 0.36630  0.44430  0.97890  Biso   1.000  H
  H51      1.0000 0.36780  0.46000  0.98140  Biso   1.000  H
  H52      1.0000 0.38900  0.42270  0.03740  Biso   1.000  H
  O27      1.0000 0.92259  0.69941  0.21059  Biso   1.000  O
  O28      1.0000 0.96181  0.77754  0.16209  Biso   1.000  O
  C62      1.0000 0.97239  0.76040  0.19294  Biso   1.000  C
  C63      1.0000 0.05199  0.82022  0.21019  Biso   1.000  C
  C64      1.0000 0.06687  0.80533  0.24465  Biso   1.000  C
  H53      1.0000 0.02877  0.75693  0.25613  Biso   1.000  H
  C65      1.0000 0.08677  0.80213  0.32093  Biso   1.000  C
  H54      1.0000 0.03297  0.77763  0.31223  Biso   1.000  H
  H55      1.0000 0.03447  0.79333  0.31473  Biso   1.000  H
  H56      1.0000 0.05567  0.75603  0.37073  Biso   1.000  H
  O29      1.0000 0.58925  0.03275  0.54393  Biso   1.000  O
  O30      1.0000 0.62847  0.11088  0.49543  Biso   1.000  O
  C66      1.0000 0.63905  0.09374  0.52628  Biso   1.000  C
  C67      1.0000 0.71865  0.15356  0.54353  Biso   1.000  C
  C68      1.0000 0.73353  0.13867  0.57799  Biso   1.000  C
  H57      1.0000 0.69543  0.09027  0.58947  Biso   1.000  H
  C69      1.0000 0.75343  0.13547  0.65427  Biso   1.000  C
  H58      1.0000 0.69963  0.11097  0.64557  Biso   1.000  H
  H59      1.0000 0.70113  0.12667  0.64807  Biso   1.000  H
  H60      1.0000 0.72233  0.08937  0.70407  Biso   1.000  H
  O31      1.0000 0.11016  0.74408  0.87726  Biso   1.000  O
  O32      1.0000 0.14907  0.70486  0.82876  Biso   1.000  O
  C70      1.0000 0.12135  0.69428  0.85961  Biso   1.000  C
  C71      1.0000 0.10157  0.61468  0.87686  Biso   1.000  C
  C72      1.0000 0.07180  0.59980  0.91132  Biso   1.000  C
  H61      1.0000 0.06150  0.63790  0.92280  Biso   1.000  H
  C73      1.0000 0.04870  0.57990  0.98760  Biso   1.000  C
  H62      1.0000 0.07800  0.63370  0.97890  Biso   1.000  H
  H63      1.0000 0.09220  0.63220  0.98140  Biso   1.000  H
  H64      1.0000 0.03370  0.61100  0.03740  Biso   1.000  H
  O33      1.0000 0.77683  0.07741  0.21059  Biso   1.000  O
  O34      1.0000 0.81574  0.03819  0.16209  Biso   1.000  O
  C74      1.0000 0.78802  0.02761  0.19294  Biso   1.000  C
  C75      1.0000 0.76824  0.94801  0.21019  Biso   1.000  C
  C76      1.0000 0.73847  0.93313  0.24465  Biso   1.000  C
  H65      1.0000 0.72817  0.97123  0.25613  Biso   1.000  H
  C77      1.0000 0.71537  0.91323  0.32093  Biso   1.000  C
  H66      1.0000 0.74467  0.96703  0.31223  Biso   1.000  H
  H67      1.0000 0.75887  0.96553  0.31473  Biso   1.000  H
  H68      1.0000 0.70037  0.94433  0.37073  Biso   1.000  H
  O35      1.0000 0.44349  0.41075  0.54393  Biso   1.000  O
  O36      1.0000 0.48240  0.37153  0.49543  Biso   1.000  O
  C78      1.0000 0.45468  0.36095  0.52628  Biso   1.000  C
  C79      1.0000 0.43490  0.28135  0.54353  Biso   1.000  C
  C80      1.0000 0.40513  0.26647  0.57799  Biso   1.000  C
  H69      1.0000 0.39483  0.30457  0.58947  Biso   1.000  H
  C81      1.0000 0.38203  0.24657  0.65427  Biso   1.000  C
  H70      1.0000 0.41133  0.30037  0.64557  Biso   1.000  H
  H71      1.0000 0.42553  0.29887  0.64807  Biso   1.000  H
  H72      1.0000 0.36703  0.27767  0.70407  Biso   1.000  H
  O37      1.0000 0.11016  0.36608  0.87726  Biso   1.000  O
  O38      1.0000 0.14907  0.44421  0.82876  Biso   1.000  O
  C82      1.0000 0.12135  0.42707  0.85961  Biso   1.000  C
  C83      1.0000 0.10157  0.48689  0.87686  Biso   1.000  C
  C84      1.0000 0.07180  0.47200  0.91132  Biso   1.000  C
  H73      1.0000 0.06150  0.42360  0.92280  Biso   1.000  H
  C85      1.0000 0.04870  0.46880  0.98760  Biso   1.000  C
  H74      1.0000 0.07800  0.44430  0.97890  Biso   1.000  H
  C86      1.0000 0.02030  0.45390  0.02231  Biso   1.000  C
  H75      1.0000 0.09220  0.46000  0.98140  Biso   1.000  H
  H76      1.0000 0.03370  0.42270  0.03740  Biso   1.000  H
  N10      1.0000 0.97970  0.43360  0.97769  Biso   1.000  N
  O39      1.0000 0.77683  0.69941  0.21059  Biso   1.000  O
  O40      1.0000 0.81574  0.77754  0.16209  Biso   1.000  O
  C87      1.0000 0.78802  0.76040  0.19294  Biso   1.000  C
  C88      1.0000 0.76824  0.82022  0.21019  Biso   1.000  C
  C89      1.0000 0.73847  0.80533  0.24465  Biso   1.000  C
  H77      1.0000 0.72817  0.75693  0.25613  Biso   1.000  H
  C90      1.0000 0.71537  0.80213  0.32093  Biso   1.000  C
  H78      1.0000 0.74467  0.77763  0.31223  Biso   1.000  H
  C91      1.0000 0.68697  0.78723  0.35564  Biso   1.000  C
  H79      1.0000 0.75887  0.79333  0.31473  Biso   1.000  H
  H80      1.0000 0.70037  0.75603  0.37073  Biso   1.000  H
  N11      1.0000 0.64637  0.76693  0.31102  Biso   1.000  N
  O41      1.0000 0.44349  0.03275  0.54393  Biso   1.000  O
  O42      1.0000 0.48240  0.11088  0.49543  Biso   1.000  O
  C92      1.0000 0.45468  0.09374  0.52628  Biso   1.000  C
  C93      1.0000 0.43490  0.15356  0.54353  Biso   1.000  C
  C94      1.0000 0.40513  0.13867  0.57799  Biso   1.000  C
  H81      1.0000 0.39483  0.09027  0.58947  Biso   1.000  H
  C95      1.0000 0.38203  0.13547  0.65427  Biso   1.000  C
  H82      1.0000 0.41133  0.11097  0.64557  Biso   1.000  H
  C96      1.0000 0.35363  0.12057  0.68898  Biso   1.000  C
  H83      1.0000 0.42553  0.12667  0.64807  Biso   1.000  H
  H84      1.0000 0.36703  0.08937  0.70407  Biso   1.000  H
  N12      1.0000 0.31303  0.10027  0.64436  Biso   1.000  N
  O43      1.0000 0.63392  0.74408  0.87726  Biso   1.000  O
  O44      1.0000 0.55579  0.70486  0.82876  Biso   1.000  O
  C97      1.0000 0.57293  0.69428  0.85961  Biso   1.000  C
  C98      1.0000 0.51311  0.61468  0.87686  Biso   1.000  C
  C99      1.0000 0.52800  0.59980  0.91132  Biso   1.000  C
  H85      1.0000 0.57640  0.63790  0.92280  Biso   1.000  H
  C100     1.0000 0.53120  0.57990  0.98760  Biso   1.000  C
  H86      1.0000 0.55570  0.63370  0.97890  Biso   1.000  H
  C101     1.0000 0.54610  0.56640  0.02231  Biso   1.000  C
  H87      1.0000 0.54000  0.63220  0.98140  Biso   1.000  H
  H88      1.0000 0.57730  0.61100  0.03740  Biso   1.000  H
  N13      1.0000 0.56640  0.54610  0.97769  Biso   1.000  N
  O45      1.0000 0.30059  0.07741  0.21059  Biso   1.000  O
  O46      1.0000 0.22246  0.03819  0.16209  Biso   1.000  O
  C102     1.0000 0.23960  0.02761  0.19294  Biso   1.000  C
  C103     1.0000 0.17978  0.94801  0.21019  Biso   1.000  C
  C104     1.0000 0.19467  0.93313  0.24465  Biso   1.000  C
  H89      1.0000 0.24307  0.97123  0.25613  Biso   1.000  H
  C105     1.0000 0.19787  0.91323  0.32093  Biso   1.000  C
  H90      1.0000 0.22237  0.96703  0.31223  Biso   1.000  H
  C106     1.0000 0.21277  0.89973  0.35564  Biso   1.000  C
  H91      1.0000 0.20667  0.96553  0.31473  Biso   1.000  H
  H92      1.0000 0.24397  0.94433  0.37073  Biso   1.000  H
  N14      1.0000 0.23307  0.87943  0.31102  Biso   1.000  N
  O47      1.0000 0.96725  0.41075  0.54393  Biso   1.000  O
  O48      1.0000 0.88912  0.37153  0.49543  Biso   1.000  O
  C107     1.0000 0.90626  0.36095  0.52628  Biso   1.000  C
  C108     1.0000 0.84644  0.28135  0.54353  Biso   1.000  C
  C109     1.0000 0.86133  0.26647  0.57799  Biso   1.000  C
  H93      1.0000 0.90973  0.30457  0.58947  Biso   1.000  H
  C110     1.0000 0.86453  0.24657  0.65427  Biso   1.000  C
  H94      1.0000 0.88903  0.30037  0.64557  Biso   1.000  H
  C111     1.0000 0.87943  0.23307  0.68898  Biso   1.000  C
  H95      1.0000 0.87333  0.29887  0.64807  Biso   1.000  H
  H96      1.0000 0.91063  0.27767  0.70407  Biso   1.000  H
  N15      1.0000 0.89973  0.21277  0.64436  Biso   1.000  N
  O49      1.0000 0.25592  0.88984  0.87726  Biso   1.000  O
  O50      1.0000 0.29514  0.85093  0.82876  Biso   1.000  O
  C112     1.0000 0.30572  0.87865  0.85961  Biso   1.000  C
  C113     1.0000 0.38532  0.89843  0.87686  Biso   1.000  C
  C114     1.0000 0.40020  0.92820  0.91132  Biso   1.000  C
  H97      1.0000 0.36210  0.93850  0.92280  Biso   1.000  H
  C115     1.0000 0.42010  0.95130  0.98760  Biso   1.000  C
  H98      1.0000 0.36630  0.92200  0.97890  Biso   1.000  H
  C116     1.0000 0.43360  0.97970  0.02231  Biso   1.000  C
  H99      1.0000 0.36780  0.90780  0.98140  Biso   1.000  H
  H100     1.0000 0.38900  0.96630  0.03740  Biso   1.000  H
  N16      1.0000 0.45390  0.02030  0.97769  Biso   1.000  N
  O51      1.0000 0.92259  0.22317  0.21059  Biso   1.000  O
  O52      1.0000 0.96181  0.18426  0.16209  Biso   1.000  O
  C117     1.0000 0.97239  0.21198  0.19294  Biso   1.000  C
  C118     1.0000 0.05199  0.23176  0.21019  Biso   1.000  C
  C119     1.0000 0.06687  0.26153  0.24465  Biso   1.000  C
  H101     1.0000 0.02877  0.27183  0.25613  Biso   1.000  H
  C120     1.0000 0.08677  0.28463  0.32093  Biso   1.000  C
  H102     1.0000 0.03297  0.25533  0.31223  Biso   1.000  H
  C121     1.0000 0.10027  0.31303  0.35564  Biso   1.000  C
  H103     1.0000 0.03447  0.24113  0.31473  Biso   1.000  H
  H104     1.0000 0.05567  0.29963  0.37073  Biso   1.000  H
  N17      1.0000 0.12057  0.35363  0.31102  Biso   1.000  N
  O53      1.0000 0.58925  0.55651  0.54393  Biso   1.000  O
  O54      1.0000 0.62847  0.51760  0.49543  Biso   1.000  O
  C122     1.0000 0.63905  0.54532  0.52628  Biso   1.000  C
  C123     1.0000 0.71865  0.56510  0.54353  Biso   1.000  C
  C124     1.0000 0.73353  0.59487  0.57799  Biso   1.000  C
  H105     1.0000 0.69543  0.60517  0.58947  Biso   1.000  H
  C125     1.0000 0.75343  0.61797  0.65427  Biso   1.000  C
  H106     1.0000 0.69963  0.58867  0.64557  Biso   1.000  H
  C126     1.0000 0.76693  0.64637  0.68898  Biso   1.000  C
  H107     1.0000 0.70113  0.57447  0.64807  Biso   1.000  H
  H108     1.0000 0.72233  0.63297  0.70407  Biso   1.000  H
  N18      1.0000 0.78723  0.68697  0.64436  Biso   1.000  N
  O55      1.0000 0.36608  0.11016  0.12274  Biso   1.000  O
  O56      1.0000 0.44421  0.14907  0.17124  Biso   1.000  O
  C127     1.0000 0.42707  0.12135  0.14039  Biso   1.000  C
  C128     1.0000 0.48689  0.10157  0.12314  Biso   1.000  C
  C129     1.0000 0.47200  0.07180  0.08868  Biso   1.000  C
  H109     1.0000 0.42360  0.06150  0.07720  Biso   1.000  H
  C130     1.0000 0.46880  0.04870  0.01240  Biso   1.000  C
  H110     1.0000 0.44430  0.07800  0.02110  Biso   1.000  H
  H111     1.0000 0.46000  0.09220  0.01860  Biso   1.000  H
  H112     1.0000 0.42270  0.03370  0.96260  Biso   1.000  H
  O57      1.0000 0.03275  0.44349  0.45607  Biso   1.000  O
  O58      1.0000 0.11088  0.48240  0.50457  Biso   1.000  O
  C131     1.0000 0.09374  0.45468  0.47372  Biso   1.000  C
  C132     1.0000 0.15356  0.43490  0.45647  Biso   1.000  C
  C133     1.0000 0.13867  0.40513  0.42201  Biso   1.000  C
  H113     1.0000 0.09027  0.39483  0.41053  Biso   1.000  H
  C134     1.0000 0.13547  0.38203  0.34573  Biso   1.000  C
  H114     1.0000 0.11097  0.41133  0.35443  Biso   1.000  H
  H115     1.0000 0.12667  0.42553  0.35193  Biso   1.000  H
  H116     1.0000 0.08937  0.36703  0.29593  Biso   1.000  H
  O59      1.0000 0.69941  0.77683  0.78941  Biso   1.000  O
  O60      1.0000 0.77754  0.81574  0.83791  Biso   1.000  O
  C135     1.0000 0.76040  0.78802  0.80706  Biso   1.000  C
  C136     1.0000 0.82022  0.76824  0.78981  Biso   1.000  C
  C137     1.0000 0.80533  0.73847  0.75535  Biso   1.000  C
  H117     1.0000 0.75693  0.72817  0.74387  Biso   1.000  H
  C138     1.0000 0.80213  0.71537  0.67907  Biso   1.000  C
  H118     1.0000 0.77763  0.74467  0.68777  Biso   1.000  H
  H119     1.0000 0.79333  0.75887  0.68527  Biso   1.000  H
  H120     1.0000 0.75603  0.70037  0.62927  Biso   1.000  H
  O61      1.0000 0.74408  0.63392  0.12274  Biso   1.000  O
  O62      1.0000 0.70486  0.55579  0.17124  Biso   1.000  O
  C139     1.0000 0.69428  0.57293  0.14039  Biso   1.000  C
  C140     1.0000 0.61468  0.51311  0.12314  Biso   1.000  C
  C141     1.0000 0.59980  0.52800  0.08868  Biso   1.000  C
  H121     1.0000 0.63790  0.57640  0.07720  Biso   1.000  H
  C142     1.0000 0.57990  0.53120  0.01240  Biso   1.000  C
  H122     1.0000 0.63370  0.55570  0.02110  Biso   1.000  H
  H123     1.0000 0.63220  0.54000  0.01860  Biso   1.000  H
  H124     1.0000 0.61100  0.57730  0.96260  Biso   1.000  H
  O63      1.0000 0.41075  0.96725  0.45607  Biso   1.000  O
  O64      1.0000 0.37153  0.88912  0.50457  Biso   1.000  O
  C143     1.0000 0.36095  0.90626  0.47372  Biso   1.000  C
  C144     1.0000 0.28135  0.84644  0.45647  Biso   1.000  C
  C145     1.0000 0.26647  0.86133  0.42201  Biso   1.000  C
  H125     1.0000 0.30457  0.90973  0.41053  Biso   1.000  H
  C146     1.0000 0.24657  0.86453  0.34573  Biso   1.000  C
  H126     1.0000 0.30037  0.88903  0.35443  Biso   1.000  H
  H127     1.0000 0.29887  0.87333  0.35193  Biso   1.000  H
  H128     1.0000 0.27767  0.91063  0.29593  Biso   1.000  H
  O65      1.0000 0.07741  0.30059  0.78941  Biso   1.000  O
  O66      1.0000 0.03819  0.22246  0.83791  Biso   1.000  O
  C147     1.0000 0.02761  0.23960  0.80706  Biso   1.000  C
  C148     1.0000 0.94801  0.17978  0.78981  Biso   1.000  C
  C149     1.0000 0.93313  0.19467  0.75535  Biso   1.000  C
  H129     1.0000 0.97123  0.24307  0.74387  Biso   1.000  H
  C150     1.0000 0.91323  0.19787  0.67907  Biso   1.000  C
  H130     1.0000 0.96703  0.22237  0.68777  Biso   1.000  H
  H131     1.0000 0.96553  0.20667  0.68527  Biso   1.000  H
  H132     1.0000 0.94433  0.24397  0.62927  Biso   1.000  H
  O67      1.0000 0.88984  0.25592  0.12274  Biso   1.000  O
  O68      1.0000 0.85093  0.29514  0.17124  Biso   1.000  O
  C151     1.0000 0.87865  0.30572  0.14039  Biso   1.000  C
  C152     1.0000 0.89843  0.38532  0.12314  Biso   1.000  C
  C153     1.0000 0.92820  0.40020  0.08868  Biso   1.000  C
  H133     1.0000 0.93850  0.36210  0.07720  Biso   1.000  H
  C154     1.0000 0.95130  0.42010  0.01240  Biso   1.000  C
  H134     1.0000 0.92200  0.36630  0.02110  Biso   1.000  H
  H135     1.0000 0.90780  0.36780  0.01860  Biso   1.000  H
  H136     1.0000 0.96630  0.38900  0.96260  Biso   1.000  H
  O69      1.0000 0.55651  0.58925  0.45607  Biso   1.000  O
  O70      1.0000 0.51760  0.62847  0.50457  Biso   1.000  O
  C155     1.0000 0.54532  0.63905  0.47372  Biso   1.000  C
  C156     1.0000 0.56510  0.71865  0.45647  Biso   1.000  C
  C157     1.0000 0.59487  0.73353  0.42201  Biso   1.000  C
  H137     1.0000 0.60517  0.69543  0.41053  Biso   1.000  H
  C158     1.0000 0.61797  0.75343  0.34573  Biso   1.000  C
  H138     1.0000 0.58867  0.69963  0.35443  Biso   1.000  H
  H139     1.0000 0.57447  0.70113  0.35193  Biso   1.000  H
  H140     1.0000 0.63297  0.72233  0.29593  Biso   1.000  H
  O71      1.0000 0.22317  0.92259  0.78941  Biso   1.000  O
  O72      1.0000 0.18426  0.96181  0.83791  Biso   1.000  O
  C159     1.0000 0.21198  0.97239  0.80706  Biso   1.000  C
  C160     1.0000 0.23176  0.05199  0.78981  Biso   1.000  C
  C161     1.0000 0.26153  0.06687  0.75535  Biso   1.000  C
  H141     1.0000 0.27183  0.02877  0.74387  Biso   1.000  H
  C162     1.0000 0.28463  0.08677  0.67907  Biso   1.000  C
  H142     1.0000 0.25533  0.03297  0.68777  Biso   1.000  H
  H143     1.0000 0.24113  0.03447  0.68527  Biso   1.000  H
  H144     1.0000 0.29963  0.05567  0.62927  Biso   1.000  H
  Cu1      1.0000 0.85620  0.71239  0.13782  Biso   1.000  Cu
  Cu2      1.0000 0.52286  0.04572  0.47115  Biso   1.000  Cu
  Cu3      1.0000 0.18953  0.37906  0.80449  Biso   1.000  Cu
  Cu4      1.0000 0.28761  0.14380  0.13782  Biso   1.000  Cu
  Cu5      1.0000 0.95428  0.47714  0.47115  Biso   1.000  Cu
  Cu6      1.0000 0.62094  0.81047  0.80449  Biso   1.000  Cu
  Cu7      1.0000 0.85620  0.14380  0.13782  Biso   1.000  Cu
  Cu8      1.0000 0.52286  0.47714  0.47115  Biso   1.000  Cu
  Cu9      1.0000 0.18953  0.81047  0.80449  Biso   1.000  Cu
  Cu10     1.0000 0.71239  0.85620  0.86218  Biso   1.000  Cu
  Cu11     1.0000 0.37906  0.18953  0.19551  Biso   1.000  Cu
  Cu12     1.0000 0.04572  0.52286  0.52885  Biso   1.000  Cu
  Cu13     1.0000 0.14380  0.28761  0.86218  Biso   1.000  Cu
  Cu14     1.0000 0.81047  0.62094  0.19551  Biso   1.000  Cu
  Cu15     1.0000 0.47714  0.95428  0.52885  Biso   1.000  Cu
  Cu16     1.0000 0.14380  0.85620  0.86218  Biso   1.000  Cu
  Cu17     1.0000 0.81047  0.18953  0.19551  Biso   1.000  Cu
  Cu18     1.0000 0.47714  0.52286  0.52885  Biso   1.000  Cu
  C163     1.0000 0.88410  0.44205  0.14077  Biso   1.000  C
  C164     1.0000 0.94280  0.47140  0.07121  Biso   1.000  C
  C165     1.0000 0.97330  0.48665  0.03481  Biso   1.000  C
  C166     1.0000 0.55077  0.77538  0.47410  Biso   1.000  C
  C167     1.0000 0.60947  0.80473  0.40454  Biso   1.000  C
  C168     1.0000 0.63997  0.81998  0.36814  Biso   1.000  C
  C169     1.0000 0.21743  0.10872  0.80744  Biso   1.000  C
  C170     1.0000 0.27613  0.13807  0.73788  Biso   1.000  C
  C171     1.0000 0.30663  0.15332  0.70148  Biso   1.000  C
  C172     1.0000 0.55795  0.44205  0.14077  Biso   1.000  C
  C173     1.0000 0.52860  0.47140  0.07121  Biso   1.000  C
  C174     1.0000 0.51335  0.48665  0.03481  Biso   1.000  C
  C175     1.0000 0.22462  0.77538  0.47410  Biso   1.000  C
  C176     1.0000 0.19527  0.80473  0.40454  Biso   1.000  C
  C177     1.0000 0.18002  0.81998  0.36814  Biso   1.000  C
  C178     1.0000 0.89128  0.10872  0.80744  Biso   1.000  C
  C179     1.0000 0.86193  0.13807  0.73788  Biso   1.000  C
  C180     1.0000 0.84668  0.15332  0.70148  Biso   1.000  C
  C181     1.0000 0.55795  0.11590  0.14077  Biso   1.000  C
  C182     1.0000 0.52860  0.05720  0.07121  Biso   1.000  C
  C183     1.0000 0.51335  0.02670  0.03481  Biso   1.000  C
  C184     1.0000 0.22462  0.44923  0.47410  Biso   1.000  C
  C185     1.0000 0.19527  0.39053  0.40454  Biso   1.000  C
  C186     1.0000 0.18002  0.36003  0.36814  Biso   1.000  C
  C187     1.0000 0.89128  0.78257  0.80744  Biso   1.000  C
  C188     1.0000 0.86193  0.72387  0.73788  Biso   1.000  C
  C189     1.0000 0.84668  0.69337  0.70148  Biso   1.000  C
  C190     1.0000 0.44205  0.88410  0.85923  Biso   1.000  C
  C191     1.0000 0.47140  0.94280  0.92879  Biso   1.000  C
  C192     1.0000 0.48665  0.97330  0.96519  Biso   1.000  C
  C193     1.0000 0.10872  0.21743  0.19256  Biso   1.000  C
  C194     1.0000 0.13807  0.27613  0.26212  Biso   1.000  C
  C195     1.0000 0.15332  0.30663  0.29852  Biso   1.000  C
  C196     1.0000 0.77538  0.55077  0.52590  Biso   1.000  C
  C197     1.0000 0.80473  0.60947  0.59546  Biso   1.000  C
  C198     1.0000 0.81998  0.63997  0.63186  Biso   1.000  C
  C199     1.0000 0.44205  0.55795  0.85923  Biso   1.000  C
  C200     1.0000 0.47140  0.52860  0.92879  Biso   1.000  C
  C201     1.0000 0.48665  0.51335  0.96519  Biso   1.000  C
  C202     1.0000 0.10872  0.89128  0.19256  Biso   1.000  C
  C203     1.0000 0.13807  0.86193  0.26212  Biso   1.000  C
  C204     1.0000 0.15332  0.84668  0.29852  Biso   1.000  C
  C205     1.0000 0.77538  0.22462  0.52590  Biso   1.000  C
  C206     1.0000 0.80473  0.19527  0.59546  Biso   1.000  C
  C207     1.0000 0.81998  0.18002  0.63186  Biso   1.000  C
  C208     1.0000 0.11590  0.55795  0.85923  Biso   1.000  C
  C209     1.0000 0.05720  0.52860  0.92879  Biso   1.000  C
  C210     1.0000 0.02670  0.51335  0.96519  Biso   1.000  C
  C211     1.0000 0.78257  0.89128  0.19256  Biso   1.000  C
  C212     1.0000 0.72387  0.86193  0.26212  Biso   1.000  C
  C213     1.0000 0.69337  0.84668  0.29852  Biso   1.000  C
  C214     1.0000 0.44923  0.22462  0.52590  Biso   1.000  C
  C215     1.0000 0.39053  0.19527  0.59546  Biso   1.000  C
  C216     1.0000 0.36003  0.18002  0.63186  Biso   1.000  C
