data_image0
_cell_length_a       17.2
_cell_length_b       17.2
_cell_length_c       17.2
_cell_angle_alpha    90
_cell_angle_beta     90
_cell_angle_gamma    90

_symmetry_space_group_name_H-M    "P 1"
_symmetry_int_tables_number       1

loop_
  _symmetry_equiv_pos_as_xyz
  'x, y, z'

loop_
  _atom_site_label
  _atom_site_occupancy
  _atom_site_fract_x
  _atom_site_fract_y
  _atom_site_fract_z
  _atom_site_thermal_displace_type
  _atom_site_B_iso_or_equiv
  _atom_site_type_symbol
  C1       1.0000 0.52810  0.16570  0.43790  Biso   1.000  C
  C2       1.0000 0.53400  0.08410  0.43700  Biso   1.000  C
  N1       1.0000 0.56700  0.04900  0.36800  Biso   1.000  N
  C3       1.0000 0.54430  0.00000  0.31600  Biso   1.000  C
  C4       1.0000 0.60000  0.97100  0.25400  Biso   1.000  C
  C5       1.0000 0.67900  0.96300  0.27100  Biso   1.000  C
  H1       1.0000 0.55650  0.19330  0.39820  Biso   1.000  H
  H2       1.0000 0.55800  0.05870  0.39710  Biso   1.000  H
  H3       1.0000 0.52060  0.95810  0.16840  Biso   1.000  H
  H4       1.0000 0.60640  0.91410  0.07410  Biso   1.000  H
  H5       1.0000 0.73750  0.90090  0.10310  Biso   1.000  H
  H6       1.0000 0.78280  0.93170  0.22630  Biso   1.000  H
  H7       1.0000 0.69700  0.97570  0.32060  Biso   1.000  H
  C6       1.0000 0.57300  0.95300  0.18000  Biso   1.000  C
  C7       1.0000 0.62500  0.92600  0.12400  Biso   1.000  C
  C8       1.0000 0.70300  0.91900  0.14100  Biso   1.000  C
  C9       1.0000 0.73000  0.93700  0.21500  Biso   1.000  C
  C10      1.0000 0.47190  0.83430  0.43790  Biso   1.000  C
  C11      1.0000 0.46600  0.91590  0.43700  Biso   1.000  C
  N2       1.0000 0.43300  0.95100  0.36800  Biso   1.000  N
  C12      1.0000 0.45570  0.00000  0.31600  Biso   1.000  C
  C13      1.0000 0.40000  0.02900  0.25400  Biso   1.000  C
  C14      1.0000 0.32100  0.03700  0.27100  Biso   1.000  C
  H8       1.0000 0.44350  0.80670  0.39820  Biso   1.000  H
  H9       1.0000 0.44200  0.94130  0.39710  Biso   1.000  H
  H10      1.0000 0.47940  0.04190  0.16840  Biso   1.000  H
  H11      1.0000 0.39360  0.08590  0.07410  Biso   1.000  H
  H12      1.0000 0.26250  0.09910  0.10310  Biso   1.000  H
  H13      1.0000 0.21720  0.06830  0.22630  Biso   1.000  H
  H14      1.0000 0.30300  0.02430  0.32060  Biso   1.000  H
  C15      1.0000 0.42700  0.04700  0.18000  Biso   1.000  C
  C16      1.0000 0.37500  0.07400  0.12400  Biso   1.000  C
  C17      1.0000 0.29700  0.08100  0.14100  Biso   1.000  C
  C18      1.0000 0.27000  0.06300  0.21500  Biso   1.000  C
  C19      1.0000 0.47190  0.16570  0.56210  Biso   1.000  C
  C20      1.0000 0.46600  0.08410  0.56300  Biso   1.000  C
  N3       1.0000 0.43300  0.04900  0.63200  Biso   1.000  N
  C21      1.0000 0.45570  0.00000  0.68400  Biso   1.000  C
  C22      1.0000 0.40000  0.97100  0.74600  Biso   1.000  C
  C23      1.0000 0.32100  0.96300  0.72900  Biso   1.000  C
  H15      1.0000 0.44350  0.19330  0.60180  Biso   1.000  H
  H16      1.0000 0.44200  0.05870  0.60290  Biso   1.000  H
  H17      1.0000 0.47940  0.95810  0.83160  Biso   1.000  H
  H18      1.0000 0.39360  0.91410  0.92590  Biso   1.000  H
  H19      1.0000 0.26250  0.90090  0.89690  Biso   1.000  H
  H20      1.0000 0.21720  0.93170  0.77370  Biso   1.000  H
  H21      1.0000 0.30300  0.97570  0.67940  Biso   1.000  H
  C24      1.0000 0.42700  0.95300  0.82000  Biso   1.000  C
  C25      1.0000 0.37500  0.92600  0.87600  Biso   1.000  C
  C26      1.0000 0.29700  0.91900  0.85900  Biso   1.000  C
  C27      1.0000 0.27000  0.93700  0.78500  Biso   1.000  C
  C28      1.0000 0.52810  0.83430  0.56210  Biso   1.000  C
  C29      1.0000 0.53400  0.91590  0.56300  Biso   1.000  C
  N4       1.0000 0.56700  0.95100  0.63200  Biso   1.000  N
  C30      1.0000 0.54430  0.00000  0.68400  Biso   1.000  C
  C31      1.0000 0.60000  0.02900  0.74600  Biso   1.000  C
  C32      1.0000 0.67900  0.03700  0.72900  Biso   1.000  C
  H22      1.0000 0.55650  0.80670  0.60180  Biso   1.000  H
  H23      1.0000 0.55800  0.94130  0.60290  Biso   1.000  H
  H24      1.0000 0.52060  0.04190  0.83160  Biso   1.000  H
  H25      1.0000 0.60640  0.08590  0.92590  Biso   1.000  H
  H26      1.0000 0.73750  0.09910  0.89690  Biso   1.000  H
  H27      1.0000 0.78280  0.06830  0.77370  Biso   1.000  H
  H28      1.0000 0.69700  0.02430  0.67940  Biso   1.000  H
  C33      1.0000 0.57300  0.04700  0.82000  Biso   1.000  C
  C34      1.0000 0.62500  0.07400  0.87600  Biso   1.000  C
  C35      1.0000 0.70300  0.08100  0.85900  Biso   1.000  C
  C36      1.0000 0.73000  0.06300  0.78500  Biso   1.000  C
  C37      1.0000 0.43790  0.52810  0.16570  Biso   1.000  C
  C38      1.0000 0.43700  0.53400  0.08410  Biso   1.000  C
  N5       1.0000 0.36800  0.56700  0.04900  Biso   1.000  N
  C39      1.0000 0.31600  0.54430  0.00000  Biso   1.000  C
  C40      1.0000 0.25400  0.60000  0.97100  Biso   1.000  C
  C41      1.0000 0.27100  0.67900  0.96300  Biso   1.000  C
  H29      1.0000 0.39820  0.55650  0.19330  Biso   1.000  H
  H30      1.0000 0.39710  0.55800  0.05870  Biso   1.000  H
  H31      1.0000 0.16840  0.52060  0.95810  Biso   1.000  H
  H32      1.0000 0.07410  0.60640  0.91410  Biso   1.000  H
  H33      1.0000 0.10310  0.73750  0.90090  Biso   1.000  H
  H34      1.0000 0.22630  0.78280  0.93170  Biso   1.000  H
  H35      1.0000 0.32060  0.69700  0.97570  Biso   1.000  H
  C42      1.0000 0.18000  0.57300  0.95300  Biso   1.000  C
  C43      1.0000 0.12400  0.62500  0.92600  Biso   1.000  C
  C44      1.0000 0.14100  0.70300  0.91900  Biso   1.000  C
  C45      1.0000 0.21500  0.73000  0.93700  Biso   1.000  C
  C46      1.0000 0.43790  0.47190  0.83430  Biso   1.000  C
  C47      1.0000 0.43700  0.46600  0.91590  Biso   1.000  C
  N6       1.0000 0.36800  0.43300  0.95100  Biso   1.000  N
  C48      1.0000 0.31600  0.45570  0.00000  Biso   1.000  C
  C49      1.0000 0.25400  0.40000  0.02900  Biso   1.000  C
  C50      1.0000 0.27100  0.32100  0.03700  Biso   1.000  C
  H36      1.0000 0.39820  0.44350  0.80670  Biso   1.000  H
  H37      1.0000 0.39710  0.44200  0.94130  Biso   1.000  H
  H38      1.0000 0.16840  0.47940  0.04190  Biso   1.000  H
  H39      1.0000 0.07410  0.39360  0.08590  Biso   1.000  H
  H40      1.0000 0.10310  0.26250  0.09910  Biso   1.000  H
  H41      1.0000 0.22630  0.21720  0.06830  Biso   1.000  H
  H42      1.0000 0.32060  0.30300  0.02430  Biso   1.000  H
  C51      1.0000 0.18000  0.42700  0.04700  Biso   1.000  C
  C52      1.0000 0.12400  0.37500  0.07400  Biso   1.000  C
  C53      1.0000 0.14100  0.29700  0.08100  Biso   1.000  C
  C54      1.0000 0.21500  0.27000  0.06300  Biso   1.000  C
  C55      1.0000 0.56210  0.47190  0.16570  Biso   1.000  C
  C56      1.0000 0.56300  0.46600  0.08410  Biso   1.000  C
  N7       1.0000 0.63200  0.43300  0.04900  Biso   1.000  N
  C57      1.0000 0.68400  0.45570  0.00000  Biso   1.000  C
  C58      1.0000 0.74600  0.40000  0.97100  Biso   1.000  C
  C59      1.0000 0.72900  0.32100  0.96300  Biso   1.000  C
  H43      1.0000 0.60180  0.44350  0.19330  Biso   1.000  H
  H44      1.0000 0.60290  0.44200  0.05870  Biso   1.000  H
  H45      1.0000 0.83160  0.47940  0.95810  Biso   1.000  H
  H46      1.0000 0.92590  0.39360  0.91410  Biso   1.000  H
  H47      1.0000 0.89690  0.26250  0.90090  Biso   1.000  H
  H48      1.0000 0.77370  0.21720  0.93170  Biso   1.000  H
  H49      1.0000 0.67940  0.30300  0.97570  Biso   1.000  H
  C60      1.0000 0.82000  0.42700  0.95300  Biso   1.000  C
  C61      1.0000 0.87600  0.37500  0.92600  Biso   1.000  C
  C62      1.0000 0.85900  0.29700  0.91900  Biso   1.000  C
  C63      1.0000 0.78500  0.27000  0.93700  Biso   1.000  C
  C64      1.0000 0.56210  0.52810  0.83430  Biso   1.000  C
  C65      1.0000 0.56300  0.53400  0.91590  Biso   1.000  C
  N8       1.0000 0.63200  0.56700  0.95100  Biso   1.000  N
  C66      1.0000 0.68400  0.54430  0.00000  Biso   1.000  C
  C67      1.0000 0.74600  0.60000  0.02900  Biso   1.000  C
  C68      1.0000 0.72900  0.67900  0.03700  Biso   1.000  C
  H50      1.0000 0.60180  0.55650  0.80670  Biso   1.000  H
  H51      1.0000 0.60290  0.55800  0.94130  Biso   1.000  H
  H52      1.0000 0.83160  0.52060  0.04190  Biso   1.000  H
  H53      1.0000 0.92590  0.60640  0.08590  Biso   1.000  H
  H54      1.0000 0.89690  0.73750  0.09910  Biso   1.000  H
  H55      1.0000 0.77370  0.78280  0.06830  Biso   1.000  H
  H56      1.0000 0.67940  0.69700  0.02430  Biso   1.000  H
  C69      1.0000 0.82000  0.57300  0.04700  Biso   1.000  C
  C70      1.0000 0.87600  0.62500  0.07400  Biso   1.000  C
  C71      1.0000 0.85900  0.70300  0.08100  Biso   1.000  C
  C72      1.0000 0.78500  0.73000  0.06300  Biso   1.000  C
  C73      1.0000 0.16570  0.43790  0.52810  Biso   1.000  C
  C74      1.0000 0.08410  0.43700  0.53400  Biso   1.000  C
  N9       1.0000 0.04900  0.36800  0.56700  Biso   1.000  N
  C75      1.0000 0.00000  0.31600  0.54430  Biso   1.000  C
  C76      1.0000 0.97100  0.25400  0.60000  Biso   1.000  C
  C77      1.0000 0.96300  0.27100  0.67900  Biso   1.000  C
  H57      1.0000 0.19330  0.39820  0.55650  Biso   1.000  H
  H58      1.0000 0.05870  0.39710  0.55800  Biso   1.000  H
  H59      1.0000 0.95810  0.16840  0.52060  Biso   1.000  H
  H60      1.0000 0.91410  0.07410  0.60640  Biso   1.000  H
  H61      1.0000 0.90090  0.10310  0.73750  Biso   1.000  H
  H62      1.0000 0.93170  0.22630  0.78280  Biso   1.000  H
  H63      1.0000 0.97570  0.32060  0.69700  Biso   1.000  H
  C78      1.0000 0.95300  0.18000  0.57300  Biso   1.000  C
  C79      1.0000 0.92600  0.12400  0.62500  Biso   1.000  C
  C80      1.0000 0.91900  0.14100  0.70300  Biso   1.000  C
  C81      1.0000 0.93700  0.21500  0.73000  Biso   1.000  C
  C82      1.0000 0.83430  0.43790  0.47190  Biso   1.000  C
  C83      1.0000 0.91590  0.43700  0.46600  Biso   1.000  C
  N10      1.0000 0.95100  0.36800  0.43300  Biso   1.000  N
  C84      1.0000 0.00000  0.31600  0.45570  Biso   1.000  C
  C85      1.0000 0.02900  0.25400  0.40000  Biso   1.000  C
  C86      1.0000 0.03700  0.27100  0.32100  Biso   1.000  C
  H64      1.0000 0.80670  0.39820  0.44350  Biso   1.000  H
  H65      1.0000 0.94130  0.39710  0.44200  Biso   1.000  H
  H66      1.0000 0.04190  0.16840  0.47940  Biso   1.000  H
  H67      1.0000 0.08590  0.07410  0.39360  Biso   1.000  H
  H68      1.0000 0.09910  0.10310  0.26250  Biso   1.000  H
  H69      1.0000 0.06830  0.22630  0.21720  Biso   1.000  H
  H70      1.0000 0.02430  0.32060  0.30300  Biso   1.000  H
  C87      1.0000 0.04700  0.18000  0.42700  Biso   1.000  C
  C88      1.0000 0.07400  0.12400  0.37500  Biso   1.000  C
  C89      1.0000 0.08100  0.14100  0.29700  Biso   1.000  C
  C90      1.0000 0.06300  0.21500  0.27000  Biso   1.000  C
  C91      1.0000 0.16570  0.56210  0.47190  Biso   1.000  C
  C92      1.0000 0.08410  0.56300  0.46600  Biso   1.000  C
  N11      1.0000 0.04900  0.63200  0.43300  Biso   1.000  N
  C93      1.0000 0.00000  0.68400  0.45570  Biso   1.000  C
  C94      1.0000 0.97100  0.74600  0.40000  Biso   1.000  C
  C95      1.0000 0.96300  0.72900  0.32100  Biso   1.000  C
  H71      1.0000 0.19330  0.60180  0.44350  Biso   1.000  H
  H72      1.0000 0.05870  0.60290  0.44200  Biso   1.000  H
  H73      1.0000 0.95810  0.83160  0.47940  Biso   1.000  H
  H74      1.0000 0.91410  0.92590  0.39360  Biso   1.000  H
  H75      1.0000 0.90090  0.89690  0.26250  Biso   1.000  H
  H76      1.0000 0.93170  0.77370  0.21720  Biso   1.000  H
  H77      1.0000 0.97570  0.67940  0.30300  Biso   1.000  H
  C96      1.0000 0.95300  0.82000  0.42700  Biso   1.000  C
  C97      1.0000 0.92600  0.87600  0.37500  Biso   1.000  C
  C98      1.0000 0.91900  0.85900  0.29700  Biso   1.000  C
  C99      1.0000 0.93700  0.78500  0.27000  Biso   1.000  C
  C100     1.0000 0.83430  0.56210  0.52810  Biso   1.000  C
  C101     1.0000 0.91590  0.56300  0.53400  Biso   1.000  C
  N12      1.0000 0.95100  0.63200  0.56700  Biso   1.000  N
  C102     1.0000 0.00000  0.68400  0.54430  Biso   1.000  C
  C103     1.0000 0.02900  0.74600  0.60000  Biso   1.000  C
  C104     1.0000 0.03700  0.72900  0.67900  Biso   1.000  C
  H78      1.0000 0.80670  0.60180  0.55650  Biso   1.000  H
  H79      1.0000 0.94130  0.60290  0.55800  Biso   1.000  H
  H80      1.0000 0.04190  0.83160  0.52060  Biso   1.000  H
  H81      1.0000 0.08590  0.92590  0.60640  Biso   1.000  H
  H82      1.0000 0.09910  0.89690  0.73750  Biso   1.000  H
  H83      1.0000 0.06830  0.77370  0.78280  Biso   1.000  H
  H84      1.0000 0.02430  0.67940  0.69700  Biso   1.000  H
  C105     1.0000 0.04700  0.82000  0.57300  Biso   1.000  C
  C106     1.0000 0.07400  0.87600  0.62500  Biso   1.000  C
  C107     1.0000 0.08100  0.85900  0.70300  Biso   1.000  C
  C108     1.0000 0.06300  0.78500  0.73000  Biso   1.000  C
  C109     1.0000 0.16570  0.52810  0.43790  Biso   1.000  C
  C110     1.0000 0.08410  0.53400  0.43700  Biso   1.000  C
  N13      1.0000 0.04900  0.56700  0.36800  Biso   1.000  N
  C111     1.0000 0.00000  0.54430  0.31600  Biso   1.000  C
  C112     1.0000 0.97100  0.60000  0.25400  Biso   1.000  C
  C113     1.0000 0.96300  0.67900  0.27100  Biso   1.000  C
  H85      1.0000 0.19330  0.55650  0.39820  Biso   1.000  H
  H86      1.0000 0.05870  0.55800  0.39710  Biso   1.000  H
  H87      1.0000 0.95810  0.52060  0.16840  Biso   1.000  H
  H88      1.0000 0.91410  0.60640  0.07410  Biso   1.000  H
  H89      1.0000 0.90090  0.73750  0.10310  Biso   1.000  H
  H90      1.0000 0.93170  0.78280  0.22630  Biso   1.000  H
  H91      1.0000 0.97570  0.69700  0.32060  Biso   1.000  H
  C114     1.0000 0.95300  0.57300  0.18000  Biso   1.000  C
  C115     1.0000 0.92600  0.62500  0.12400  Biso   1.000  C
  C116     1.0000 0.91900  0.70300  0.14100  Biso   1.000  C
  C117     1.0000 0.93700  0.73000  0.21500  Biso   1.000  C
  C118     1.0000 0.83430  0.47190  0.43790  Biso   1.000  C
  C119     1.0000 0.91590  0.46600  0.43700  Biso   1.000  C
  N14      1.0000 0.95100  0.43300  0.36800  Biso   1.000  N
  C120     1.0000 0.00000  0.45570  0.31600  Biso   1.000  C
  C121     1.0000 0.02900  0.40000  0.25400  Biso   1.000  C
  C122     1.0000 0.03700  0.32100  0.27100  Biso   1.000  C
  H92      1.0000 0.80670  0.44350  0.39820  Biso   1.000  H
  H93      1.0000 0.94130  0.44200  0.39710  Biso   1.000  H
  H94      1.0000 0.04190  0.47940  0.16840  Biso   1.000  H
  H95      1.0000 0.08590  0.39360  0.07410  Biso   1.000  H
  H96      1.0000 0.09910  0.26250  0.10310  Biso   1.000  H
  H97      1.0000 0.06830  0.21720  0.22630  Biso   1.000  H
  H98      1.0000 0.02430  0.30300  0.32060  Biso   1.000  H
  C123     1.0000 0.04700  0.42700  0.18000  Biso   1.000  C
  C124     1.0000 0.07400  0.37500  0.12400  Biso   1.000  C
  C125     1.0000 0.08100  0.29700  0.14100  Biso   1.000  C
  C126     1.0000 0.06300  0.27000  0.21500  Biso   1.000  C
  C127     1.0000 0.16570  0.47190  0.56210  Biso   1.000  C
  C128     1.0000 0.08410  0.46600  0.56300  Biso   1.000  C
  N15      1.0000 0.04900  0.43300  0.63200  Biso   1.000  N
  C129     1.0000 0.00000  0.45570  0.68400  Biso   1.000  C
  C130     1.0000 0.97100  0.40000  0.74600  Biso   1.000  C
  C131     1.0000 0.96300  0.32100  0.72900  Biso   1.000  C
  H99      1.0000 0.19330  0.44350  0.60180  Biso   1.000  H
  H100     1.0000 0.05870  0.44200  0.60290  Biso   1.000  H
  H101     1.0000 0.95810  0.47940  0.83160  Biso   1.000  H
  H102     1.0000 0.91410  0.39360  0.92590  Biso   1.000  H
  H103     1.0000 0.90090  0.26250  0.89690  Biso   1.000  H
  H104     1.0000 0.93170  0.21720  0.77370  Biso   1.000  H
  H105     1.0000 0.97570  0.30300  0.67940  Biso   1.000  H
  C132     1.0000 0.95300  0.42700  0.82000  Biso   1.000  C
  C133     1.0000 0.92600  0.37500  0.87600  Biso   1.000  C
  C134     1.0000 0.91900  0.29700  0.85900  Biso   1.000  C
  C135     1.0000 0.93700  0.27000  0.78500  Biso   1.000  C
  C136     1.0000 0.83430  0.52810  0.56210  Biso   1.000  C
  C137     1.0000 0.91590  0.53400  0.56300  Biso   1.000  C
  N16      1.0000 0.95100  0.56700  0.63200  Biso   1.000  N
  C138     1.0000 0.00000  0.54430  0.68400  Biso   1.000  C
  C139     1.0000 0.02900  0.60000  0.74600  Biso   1.000  C
  C140     1.0000 0.03700  0.67900  0.72900  Biso   1.000  C
  H106     1.0000 0.80670  0.55650  0.60180  Biso   1.000  H
  H107     1.0000 0.94130  0.55800  0.60290  Biso   1.000  H
  H108     1.0000 0.04190  0.52060  0.83160  Biso   1.000  H
  H109     1.0000 0.08590  0.60640  0.92590  Biso   1.000  H
  H110     1.0000 0.09910  0.73750  0.89690  Biso   1.000  H
  H111     1.0000 0.06830  0.78280  0.77370  Biso   1.000  H
  H112     1.0000 0.02430  0.69700  0.67940  Biso   1.000  H
  C141     1.0000 0.04700  0.57300  0.82000  Biso   1.000  C
  C142     1.0000 0.07400  0.62500  0.87600  Biso   1.000  C
  C143     1.0000 0.08100  0.70300  0.85900  Biso   1.000  C
  C144     1.0000 0.06300  0.73000  0.78500  Biso   1.000  C
  C145     1.0000 0.52810  0.43790  0.16570  Biso   1.000  C
  C146     1.0000 0.53400  0.43700  0.08410  Biso   1.000  C
  N17      1.0000 0.56700  0.36800  0.04900  Biso   1.000  N
  C147     1.0000 0.54430  0.31600  0.00000  Biso   1.000  C
  C148     1.0000 0.60000  0.25400  0.97100  Biso   1.000  C
  C149     1.0000 0.67900  0.27100  0.96300  Biso   1.000  C
  H113     1.0000 0.55650  0.39820  0.19330  Biso   1.000  H
  H114     1.0000 0.55800  0.39710  0.05870  Biso   1.000  H
  H115     1.0000 0.52060  0.16840  0.95810  Biso   1.000  H
  H116     1.0000 0.60640  0.07410  0.91410  Biso   1.000  H
  H117     1.0000 0.73750  0.10310  0.90090  Biso   1.000  H
  H118     1.0000 0.78280  0.22630  0.93170  Biso   1.000  H
  H119     1.0000 0.69700  0.32060  0.97570  Biso   1.000  H
  C150     1.0000 0.57300  0.18000  0.95300  Biso   1.000  C
  C151     1.0000 0.62500  0.12400  0.92600  Biso   1.000  C
  C152     1.0000 0.70300  0.14100  0.91900  Biso   1.000  C
  C153     1.0000 0.73000  0.21500  0.93700  Biso   1.000  C
  C154     1.0000 0.47190  0.43790  0.83430  Biso   1.000  C
  C155     1.0000 0.46600  0.43700  0.91590  Biso   1.000  C
  N18      1.0000 0.43300  0.36800  0.95100  Biso   1.000  N
  C156     1.0000 0.45570  0.31600  0.00000  Biso   1.000  C
  C157     1.0000 0.40000  0.25400  0.02900  Biso   1.000  C
  C158     1.0000 0.32100  0.27100  0.03700  Biso   1.000  C
  H120     1.0000 0.44350  0.39820  0.80670  Biso   1.000  H
  H121     1.0000 0.44200  0.39710  0.94130  Biso   1.000  H
  H122     1.0000 0.47940  0.16840  0.04190  Biso   1.000  H
  H123     1.0000 0.39360  0.07410  0.08590  Biso   1.000  H
  H124     1.0000 0.26250  0.10310  0.09910  Biso   1.000  H
  H125     1.0000 0.21720  0.22630  0.06830  Biso   1.000  H
  H126     1.0000 0.30300  0.32060  0.02430  Biso   1.000  H
  C159     1.0000 0.42700  0.18000  0.04700  Biso   1.000  C
  C160     1.0000 0.37500  0.12400  0.07400  Biso   1.000  C
  C161     1.0000 0.29700  0.14100  0.08100  Biso   1.000  C
  C162     1.0000 0.27000  0.21500  0.06300  Biso   1.000  C
  C163     1.0000 0.47190  0.56210  0.16570  Biso   1.000  C
  C164     1.0000 0.46600  0.56300  0.08410  Biso   1.000  C
  N19      1.0000 0.43300  0.63200  0.04900  Biso   1.000  N
  C165     1.0000 0.45570  0.68400  0.00000  Biso   1.000  C
  C166     1.0000 0.40000  0.74600  0.97100  Biso   1.000  C
  C167     1.0000 0.32100  0.72900  0.96300  Biso   1.000  C
  H127     1.0000 0.44350  0.60180  0.19330  Biso   1.000  H
  H128     1.0000 0.44200  0.60290  0.05870  Biso   1.000  H
  H129     1.0000 0.47940  0.83160  0.95810  Biso   1.000  H
  H130     1.0000 0.39360  0.92590  0.91410  Biso   1.000  H
  H131     1.0000 0.26250  0.89690  0.90090  Biso   1.000  H
  H132     1.0000 0.21720  0.77370  0.93170  Biso   1.000  H
  H133     1.0000 0.30300  0.67940  0.97570  Biso   1.000  H
  C168     1.0000 0.42700  0.82000  0.95300  Biso   1.000  C
  C169     1.0000 0.37500  0.87600  0.92600  Biso   1.000  C
  C170     1.0000 0.29700  0.85900  0.91900  Biso   1.000  C
  C171     1.0000 0.27000  0.78500  0.93700  Biso   1.000  C
  C172     1.0000 0.52810  0.56210  0.83430  Biso   1.000  C
  C173     1.0000 0.53400  0.56300  0.91590  Biso   1.000  C
  N20      1.0000 0.56700  0.63200  0.95100  Biso   1.000  N
  C174     1.0000 0.54430  0.68400  0.00000  Biso   1.000  C
  C175     1.0000 0.60000  0.74600  0.02900  Biso   1.000  C
  C176     1.0000 0.67900  0.72900  0.03700  Biso   1.000  C
  H134     1.0000 0.55650  0.60180  0.80670  Biso   1.000  H
  H135     1.0000 0.55800  0.60290  0.94130  Biso   1.000  H
  H136     1.0000 0.52060  0.83160  0.04190  Biso   1.000  H
  H137     1.0000 0.60640  0.92590  0.08590  Biso   1.000  H
  H138     1.0000 0.73750  0.89690  0.09910  Biso   1.000  H
  H139     1.0000 0.78280  0.77370  0.06830  Biso   1.000  H
  H140     1.0000 0.69700  0.67940  0.02430  Biso   1.000  H
  C177     1.0000 0.57300  0.82000  0.04700  Biso   1.000  C
  C178     1.0000 0.62500  0.87600  0.07400  Biso   1.000  C
  C179     1.0000 0.70300  0.85900  0.08100  Biso   1.000  C
  C180     1.0000 0.73000  0.78500  0.06300  Biso   1.000  C
  C181     1.0000 0.43790  0.16570  0.52810  Biso   1.000  C
  C182     1.0000 0.43700  0.08410  0.53400  Biso   1.000  C
  N21      1.0000 0.36800  0.04900  0.56700  Biso   1.000  N
  C183     1.0000 0.31600  0.00000  0.54430  Biso   1.000  C
  C184     1.0000 0.25400  0.97100  0.60000  Biso   1.000  C
  C185     1.0000 0.27100  0.96300  0.67900  Biso   1.000  C
  H141     1.0000 0.39820  0.19330  0.55650  Biso   1.000  H
  H142     1.0000 0.39710  0.05870  0.55800  Biso   1.000  H
  H143     1.0000 0.16840  0.95810  0.52060  Biso   1.000  H
  H144     1.0000 0.07410  0.91410  0.60640  Biso   1.000  H
  H145     1.0000 0.10310  0.90090  0.73750  Biso   1.000  H
  H146     1.0000 0.22630  0.93170  0.78280  Biso   1.000  H
  H147     1.0000 0.32060  0.97570  0.69700  Biso   1.000  H
  C186     1.0000 0.18000  0.95300  0.57300  Biso   1.000  C
  C187     1.0000 0.12400  0.92600  0.62500  Biso   1.000  C
  C188     1.0000 0.14100  0.91900  0.70300  Biso   1.000  C
  C189     1.0000 0.21500  0.93700  0.73000  Biso   1.000  C
  C190     1.0000 0.43790  0.83430  0.47190  Biso   1.000  C
  C191     1.0000 0.43700  0.91590  0.46600  Biso   1.000  C
  N22      1.0000 0.36800  0.95100  0.43300  Biso   1.000  N
  C192     1.0000 0.31600  0.00000  0.45570  Biso   1.000  C
  C193     1.0000 0.25400  0.02900  0.40000  Biso   1.000  C
  C194     1.0000 0.27100  0.03700  0.32100  Biso   1.000  C
  H148     1.0000 0.39820  0.80670  0.44350  Biso   1.000  H
  H149     1.0000 0.39710  0.94130  0.44200  Biso   1.000  H
  H150     1.0000 0.16840  0.04190  0.47940  Biso   1.000  H
  H151     1.0000 0.07410  0.08590  0.39360  Biso   1.000  H
  H152     1.0000 0.10310  0.09910  0.26250  Biso   1.000  H
  H153     1.0000 0.22630  0.06830  0.21720  Biso   1.000  H
  H154     1.0000 0.32060  0.02430  0.30300  Biso   1.000  H
  C195     1.0000 0.18000  0.04700  0.42700  Biso   1.000  C
  C196     1.0000 0.12400  0.07400  0.37500  Biso   1.000  C
  C197     1.0000 0.14100  0.08100  0.29700  Biso   1.000  C
  C198     1.0000 0.21500  0.06300  0.27000  Biso   1.000  C
  C199     1.0000 0.56210  0.16570  0.47190  Biso   1.000  C
  C200     1.0000 0.56300  0.08410  0.46600  Biso   1.000  C
  N23      1.0000 0.63200  0.04900  0.43300  Biso   1.000  N
  C201     1.0000 0.68400  0.00000  0.45570  Biso   1.000  C
  C202     1.0000 0.74600  0.97100  0.40000  Biso   1.000  C
  C203     1.0000 0.72900  0.96300  0.32100  Biso   1.000  C
  H155     1.0000 0.60180  0.19330  0.44350  Biso   1.000  H
  H156     1.0000 0.60290  0.05870  0.44200  Biso   1.000  H
  H157     1.0000 0.83160  0.95810  0.47940  Biso   1.000  H
  H158     1.0000 0.92590  0.91410  0.39360  Biso   1.000  H
  H159     1.0000 0.89690  0.90090  0.26250  Biso   1.000  H
  H160     1.0000 0.77370  0.93170  0.21720  Biso   1.000  H
  H161     1.0000 0.67940  0.97570  0.30300  Biso   1.000  H
  C204     1.0000 0.82000  0.95300  0.42700  Biso   1.000  C
  C205     1.0000 0.87600  0.92600  0.37500  Biso   1.000  C
  C206     1.0000 0.85900  0.91900  0.29700  Biso   1.000  C
  C207     1.0000 0.78500  0.93700  0.27000  Biso   1.000  C
  C208     1.0000 0.56210  0.83430  0.52810  Biso   1.000  C
  C209     1.0000 0.56300  0.91590  0.53400  Biso   1.000  C
  N24      1.0000 0.63200  0.95100  0.56700  Biso   1.000  N
  C210     1.0000 0.68400  0.00000  0.54430  Biso   1.000  C
  C211     1.0000 0.74600  0.02900  0.60000  Biso   1.000  C
  C212     1.0000 0.72900  0.03700  0.67900  Biso   1.000  C
  H162     1.0000 0.60180  0.80670  0.55650  Biso   1.000  H
  H163     1.0000 0.60290  0.94130  0.55800  Biso   1.000  H
  H164     1.0000 0.83160  0.04190  0.52060  Biso   1.000  H
  H165     1.0000 0.92590  0.08590  0.60640  Biso   1.000  H
  H166     1.0000 0.89690  0.09910  0.73750  Biso   1.000  H
  H167     1.0000 0.77370  0.06830  0.78280  Biso   1.000  H
  H168     1.0000 0.67940  0.02430  0.69700  Biso   1.000  H
  C213     1.0000 0.82000  0.04700  0.57300  Biso   1.000  C
  C214     1.0000 0.87600  0.07400  0.62500  Biso   1.000  C
  C215     1.0000 0.85900  0.08100  0.70300  Biso   1.000  C
  C216     1.0000 0.78500  0.06300  0.73000  Biso   1.000  C
  Zn1      1.0000 0.56517  0.43483  0.43483  Biso   1.000  Zn
  Zn2      1.0000 0.43483  0.56517  0.43483  Biso   1.000  Zn
  Zn3      1.0000 0.43483  0.43483  0.56517  Biso   1.000  Zn
  Zn4      1.0000 0.56517  0.56517  0.56517  Biso   1.000  Zn
  O1       1.0000 0.54490  0.32630  0.45510  Biso   1.000  O
  O2       1.0000 0.45510  0.67370  0.45510  Biso   1.000  O
  O3       1.0000 0.45510  0.32630  0.54490  Biso   1.000  O
  O4       1.0000 0.54490  0.67370  0.54490  Biso   1.000  O
  O5       1.0000 0.45510  0.54490  0.32630  Biso   1.000  O
  O6       1.0000 0.45510  0.45510  0.67370  Biso   1.000  O
  O7       1.0000 0.54490  0.45510  0.32630  Biso   1.000  O
  O8       1.0000 0.54490  0.54490  0.67370  Biso   1.000  O
  O9       1.0000 0.32630  0.45510  0.54490  Biso   1.000  O
  O10      1.0000 0.67370  0.45510  0.45510  Biso   1.000  O
  O11      1.0000 0.32630  0.54490  0.45510  Biso   1.000  O
  O12      1.0000 0.67370  0.54490  0.54490  Biso   1.000  O
  O13      1.0000 0.50000  0.50000  0.50000  Biso   1.000  O
  C217     1.0000 0.50000  0.28730  0.50000  Biso   1.000  C
  C218     1.0000 0.50000  0.20510  0.50000  Biso   1.000  C
  C219     1.0000 0.50000  0.04280  0.50000  Biso   1.000  C
  C220     1.0000 0.50000  0.71270  0.50000  Biso   1.000  C
  C221     1.0000 0.50000  0.79490  0.50000  Biso   1.000  C
  C222     1.0000 0.50000  0.95720  0.50000  Biso   1.000  C
  C223     1.0000 0.50000  0.50000  0.28730  Biso   1.000  C
  C224     1.0000 0.50000  0.50000  0.20510  Biso   1.000  C
  C225     1.0000 0.50000  0.50000  0.04280  Biso   1.000  C
  C226     1.0000 0.50000  0.50000  0.71270  Biso   1.000  C
  C227     1.0000 0.50000  0.50000  0.79490  Biso   1.000  C
  C228     1.0000 0.50000  0.50000  0.95720  Biso   1.000  C
  C229     1.0000 0.28730  0.50000  0.50000  Biso   1.000  C
  C230     1.0000 0.20510  0.50000  0.50000  Biso   1.000  C
  C231     1.0000 0.04280  0.50000  0.50000  Biso   1.000  C
  C232     1.0000 0.71270  0.50000  0.50000  Biso   1.000  C
  C233     1.0000 0.79490  0.50000  0.50000  Biso   1.000  C
  C234     1.0000 0.95720  0.50000  0.50000  Biso   1.000  C
