data_image0
_cell_length_a       8.6736
_cell_length_b       9.7813
_cell_length_c       22.7964
_cell_angle_alpha    90
_cell_angle_beta     90
_cell_angle_gamma    90

_symmetry_space_group_name_H-M    "P 1"
_symmetry_int_tables_number       1

loop_
  _symmetry_equiv_pos_as_xyz
  'x, y, z'

loop_
  _atom_site_label
  _atom_site_occupancy
  _atom_site_fract_x
  _atom_site_fract_y
  _atom_site_fract_z
  _atom_site_thermal_displace_type
  _atom_site_B_iso_or_equiv
  _atom_site_type_symbol
  Y1       1.0000 0.04000  0.85910  0.74424  Biso   1.000  Y
  P1       1.0000 0.98140  0.11020  0.87020  Biso   1.000  P
  P2       1.0000 0.30470  0.13990  0.72040  Biso   1.000  P
  P3       1.0000 0.78150  0.09900  0.66630  Biso   1.000  P
  O1       1.0000 0.92530  0.22780  0.83860  Biso   1.000  O
  O2       1.0000 0.98760  0.99000  0.82750  Biso   1.000  O
  O3       1.0000 0.13770  0.11870  0.89830  Biso   1.000  O
  O4       1.0000 0.17180  0.23800  0.72530  Biso   1.000  O
  O5       1.0000 0.24770  0.99790  0.72350  Biso   1.000  O
  O6       1.0000 0.38400  0.16860  0.66110  Biso   1.000  O
  O7       1.0000 0.88310  0.98540  0.68340  Biso   1.000  O
  O8       1.0000 0.78270  0.20720  0.71370  Biso   1.000  O
  O9       1.0000 0.62160  0.05190  0.65190  Biso   1.000  O
  N1       1.0000 0.67220  0.07370  0.91100  Biso   1.000  N
  N2       1.0000 0.39850  0.13580  0.84640  Biso   1.000  N
  N3       1.0000 0.91510  0.91110  0.45000  Biso   1.000  N
  C1       1.0000 0.83570  0.06190  0.93010  Biso   1.000  C
  C2       1.0000 0.62540  0.99170  0.85850  Biso   1.000  C
  C3       1.0000 0.45500  0.98680  0.85690  Biso   1.000  C
  C4       1.0000 0.45100  0.22560  0.89350  Biso   1.000  C
  C5       1.0000 0.62060  0.22210  0.89990  Biso   1.000  C
  C6       1.0000 0.44380  0.17560  0.78330  Biso   1.000  C
  C7       1.0000 0.85670  0.18430  0.59690  Biso   1.000  C
  C8       1.0000 0.88300  0.14630  0.49050  Biso   1.000  C
  C9       1.0000 0.92600  0.95170  0.55760  Biso   1.000  C
  C10      1.0000 0.86300  0.05330  0.44200  Biso   1.000  C
  N4       1.0000 0.85400  0.08760  0.54970  Biso   1.000  N
  Y2       1.0000 0.04000  0.14090  0.25576  Biso   1.000  Y
  P4       1.0000 0.98140  0.88980  0.12980  Biso   1.000  P
  P5       1.0000 0.30470  0.86010  0.27960  Biso   1.000  P
  P6       1.0000 0.78150  0.90100  0.33370  Biso   1.000  P
  O10      1.0000 0.92530  0.77220  0.16140  Biso   1.000  O
  O11      1.0000 0.98760  0.01000  0.17250  Biso   1.000  O
  O12      1.0000 0.13770  0.88130  0.10170  Biso   1.000  O
  O13      1.0000 0.17180  0.76200  0.27470  Biso   1.000  O
  O14      1.0000 0.24770  0.00210  0.27650  Biso   1.000  O
  O15      1.0000 0.38400  0.83140  0.33890  Biso   1.000  O
  O16      1.0000 0.88310  0.01460  0.31660  Biso   1.000  O
  O17      1.0000 0.78270  0.79280  0.28630  Biso   1.000  O
  O18      1.0000 0.62160  0.94810  0.34810  Biso   1.000  O
  N5       1.0000 0.67220  0.92630  0.08900  Biso   1.000  N
  N6       1.0000 0.39850  0.86420  0.15360  Biso   1.000  N
  N7       1.0000 0.91510  0.08890  0.55000  Biso   1.000  N
  C11      1.0000 0.83570  0.93810  0.06990  Biso   1.000  C
  C12      1.0000 0.62540  0.00830  0.14150  Biso   1.000  C
  C13      1.0000 0.45500  0.01320  0.14310  Biso   1.000  C
  C14      1.0000 0.45100  0.77440  0.10650  Biso   1.000  C
  C15      1.0000 0.62060  0.77790  0.10010  Biso   1.000  C
  C16      1.0000 0.44380  0.82440  0.21670  Biso   1.000  C
  C17      1.0000 0.85670  0.81570  0.40310  Biso   1.000  C
  C18      1.0000 0.88300  0.85370  0.50950  Biso   1.000  C
  C19      1.0000 0.92600  0.04830  0.44240  Biso   1.000  C
  C20      1.0000 0.86300  0.94670  0.55800  Biso   1.000  C
  N8       1.0000 0.85400  0.91240  0.45030  Biso   1.000  N
  Y3       1.0000 0.96000  0.64090  0.24424  Biso   1.000  Y
  P7       1.0000 0.01860  0.38980  0.37020  Biso   1.000  P
  P8       1.0000 0.69530  0.36010  0.22040  Biso   1.000  P
  P9       1.0000 0.21850  0.40100  0.16630  Biso   1.000  P
  O19      1.0000 0.07470  0.27220  0.33860  Biso   1.000  O
  O20      1.0000 0.01240  0.51000  0.32750  Biso   1.000  O
  O21      1.0000 0.86230  0.38130  0.39830  Biso   1.000  O
  O22      1.0000 0.82820  0.26200  0.22530  Biso   1.000  O
  O23      1.0000 0.75230  0.50210  0.22350  Biso   1.000  O
  O24      1.0000 0.61600  0.33140  0.16110  Biso   1.000  O
  O25      1.0000 0.11690  0.51460  0.18340  Biso   1.000  O
  O26      1.0000 0.21730  0.29280  0.21370  Biso   1.000  O
  O27      1.0000 0.37840  0.44810  0.15190  Biso   1.000  O
  N9       1.0000 0.32780  0.42630  0.41100  Biso   1.000  N
  N10      1.0000 0.60150  0.36420  0.34640  Biso   1.000  N
  N11      1.0000 0.08490  0.58890  0.95000  Biso   1.000  N
  C21      1.0000 0.16430  0.43810  0.43010  Biso   1.000  C
  C22      1.0000 0.37460  0.50830  0.35850  Biso   1.000  C
  C23      1.0000 0.54500  0.51320  0.35690  Biso   1.000  C
  C24      1.0000 0.54900  0.27440  0.39350  Biso   1.000  C
  C25      1.0000 0.37940  0.27790  0.39990  Biso   1.000  C
  C26      1.0000 0.55620  0.32440  0.28330  Biso   1.000  C
  C27      1.0000 0.14330  0.31570  0.09690  Biso   1.000  C
  C28      1.0000 0.11700  0.35370  0.99050  Biso   1.000  C
  C29      1.0000 0.07400  0.54830  0.05760  Biso   1.000  C
  C30      1.0000 0.13700  0.44670  0.94200  Biso   1.000  C
  N12      1.0000 0.14600  0.41240  0.04970  Biso   1.000  N
  Y4       1.0000 0.96000  0.35910  0.75576  Biso   1.000  Y
  P10      1.0000 0.01860  0.61020  0.62980  Biso   1.000  P
  P11      1.0000 0.69530  0.63990  0.77960  Biso   1.000  P
  P12      1.0000 0.21850  0.59900  0.83370  Biso   1.000  P
  O28      1.0000 0.07470  0.72780  0.66140  Biso   1.000  O
  O29      1.0000 0.01240  0.49000  0.67250  Biso   1.000  O
  O30      1.0000 0.86230  0.61870  0.60170  Biso   1.000  O
  O31      1.0000 0.82820  0.73800  0.77470  Biso   1.000  O
  O32      1.0000 0.75230  0.49790  0.77650  Biso   1.000  O
  O33      1.0000 0.61600  0.66860  0.83890  Biso   1.000  O
  O34      1.0000 0.11690  0.48540  0.81660  Biso   1.000  O
  O35      1.0000 0.21730  0.70720  0.78630  Biso   1.000  O
  O36      1.0000 0.37840  0.55190  0.84810  Biso   1.000  O
  N13      1.0000 0.32780  0.57370  0.58900  Biso   1.000  N
  N14      1.0000 0.60150  0.63580  0.65360  Biso   1.000  N
  N15      1.0000 0.08490  0.41110  0.05000  Biso   1.000  N
  C31      1.0000 0.16430  0.56190  0.56990  Biso   1.000  C
  C32      1.0000 0.37460  0.49170  0.64150  Biso   1.000  C
  C33      1.0000 0.54500  0.48680  0.64310  Biso   1.000  C
  C34      1.0000 0.54900  0.72560  0.60650  Biso   1.000  C
  C35      1.0000 0.37940  0.72210  0.60010  Biso   1.000  C
  C36      1.0000 0.55620  0.67560  0.71670  Biso   1.000  C
  C37      1.0000 0.14330  0.68430  0.90310  Biso   1.000  C
  C38      1.0000 0.11700  0.64630  0.00950  Biso   1.000  C
  C39      1.0000 0.07400  0.45170  0.94240  Biso   1.000  C
  C40      1.0000 0.13700  0.55330  0.05800  Biso   1.000  C
  N16      1.0000 0.14600  0.58760  0.95030  Biso   1.000  N
