data_image0
_cell_length_a       15.173
_cell_length_b       15.173
_cell_length_c       19.089
_cell_angle_alpha    90
_cell_angle_beta     90
_cell_angle_gamma    90

_symmetry_space_group_name_H-M    "P 1"
_symmetry_int_tables_number       1

loop_
  _symmetry_equiv_pos_as_xyz
  'x, y, z'

loop_
  _atom_site_label
  _atom_site_occupancy
  _atom_site_fract_x
  _atom_site_fract_y
  _atom_site_fract_z
  _atom_site_thermal_displace_type
  _atom_site_B_iso_or_equiv
  _atom_site_type_symbol
  Co1      1.0000 0.20110  0.11874  0.59851  Biso   1.000  Co
  Co2      1.0000 0.02112  0.19148  0.32800  Biso   1.000  Co
  N1       1.0000 0.17760  0.12400  0.49670  Biso   1.000  N
  N2       1.0000 0.11150  0.15420  0.39570  Biso   1.000  N
  N3       1.0000 0.07360  0.28710  0.73460  Biso   1.000  N
  N4       1.0000 0.13960  0.21700  0.64710  Biso   1.000  N
  N5       1.0000 0.06850  0.90460  0.67960  Biso   1.000  N
  N6       1.0000 0.15930  0.00990  0.64580  Biso   1.000  N
  N7       1.0000 0.32920  0.13380  0.61260  Biso   1.000  N
  N8       1.0000 0.45160  0.20720  0.63840  Biso   1.000  N
  C1       1.0000 0.10680  0.15480  0.46340  Biso   1.000  C
  H1       1.0000 0.05740  0.17530  0.48720  Biso   1.000  H
  C2       1.0000 0.23180  0.10420  0.44390  Biso   1.000  C
  H2       1.0000 0.28860  0.08200  0.44890  Biso   1.000  H
  C3       1.0000 0.19200  0.12110  0.38240  Biso   1.000  C
  H3       1.0000 0.21600  0.11150  0.33830  Biso   1.000  H
  C4       1.0000 0.11010  0.21370  0.71150  Biso   1.000  C
  H4       1.0000 0.11450  0.16330  0.73890  Biso   1.000  H
  C5       1.0000 0.06090  0.33580  0.67120  Biso   1.000  C
  H5       1.0000 0.03070  0.38900  0.66720  Biso   1.000  H
  C6       1.0000 0.09920  0.29290  0.61900  Biso   1.000  C
  H6       1.0000 0.09940  0.30980  0.57220  Biso   1.000  H
  C7       1.0000 0.08920  0.96220  0.63190  Biso   1.000  C
  H7       1.0000 0.05670  0.96900  0.59100  Biso   1.000  H
  C8       1.0000 0.13150  0.91510  0.72850  Biso   1.000  C
  H8       1.0000 0.13590  0.88330  0.77000  Biso   1.000  H
  C9       1.0000 0.18630  0.97840  0.70790  Biso   1.000  C
  H9       1.0000 0.23550  0.99770  0.73260  Biso   1.000  H
  C10      1.0000 0.36490  0.20850  0.63270  Biso   1.000  C
  H10      1.0000 0.33160  0.25860  0.64220  Biso   1.000  H
  C11      1.0000 0.47300  0.12250  0.61980  Biso   1.000  C
  H11      1.0000 0.52970  0.09920  0.61870  Biso   1.000  H
  C12      1.0000 0.39890  0.07880  0.60340  Biso   1.000  C
  H12      1.0000 0.39580  0.02070  0.58830  Biso   1.000  H
  C13      1.0000 0.09760  0.15190  0.18920  Biso   1.000  C
  H13      1.0000 0.08890  0.09140  0.19310  Biso   1.000  H
  C14      1.0000 0.13710  0.19470  0.13620  Biso   1.000  C
  H14      1.0000 0.16010  0.16710  0.09670  Biso   1.000  H
  Co3      1.0000 0.29890  0.88126  0.09851  Biso   1.000  Co
  Co4      1.0000 0.47888  0.80852  0.82800  Biso   1.000  Co
  N9       1.0000 0.32240  0.87600  0.99670  Biso   1.000  N
  N10      1.0000 0.38850  0.84580  0.89570  Biso   1.000  N
  N11      1.0000 0.42640  0.71290  0.23460  Biso   1.000  N
  N12      1.0000 0.36040  0.78300  0.14710  Biso   1.000  N
  N13      1.0000 0.43150  0.09540  0.17960  Biso   1.000  N
  N14      1.0000 0.34070  0.99010  0.14580  Biso   1.000  N
  N15      1.0000 0.17080  0.86620  0.11260  Biso   1.000  N
  N16      1.0000 0.04840  0.79280  0.13840  Biso   1.000  N
  C15      1.0000 0.39320  0.84520  0.96340  Biso   1.000  C
  H15      1.0000 0.44260  0.82470  0.98720  Biso   1.000  H
  C16      1.0000 0.26820  0.89580  0.94390  Biso   1.000  C
  H16      1.0000 0.21140  0.91800  0.94890  Biso   1.000  H
  C17      1.0000 0.30800  0.87890  0.88240  Biso   1.000  C
  H17      1.0000 0.28400  0.88850  0.83830  Biso   1.000  H
  C18      1.0000 0.38990  0.78630  0.21150  Biso   1.000  C
  H18      1.0000 0.38550  0.83670  0.23890  Biso   1.000  H
  C19      1.0000 0.43910  0.66420  0.17120  Biso   1.000  C
  H19      1.0000 0.46930  0.61100  0.16720  Biso   1.000  H
  C20      1.0000 0.40080  0.70710  0.11900  Biso   1.000  C
  H20      1.0000 0.40060  0.69020  0.07220  Biso   1.000  H
  C21      1.0000 0.41080  0.03780  0.13190  Biso   1.000  C
  H21      1.0000 0.44330  0.03100  0.09100  Biso   1.000  H
  C22      1.0000 0.36850  0.08490  0.22850  Biso   1.000  C
  H22      1.0000 0.36410  0.11670  0.27000  Biso   1.000  H
  C23      1.0000 0.31370  0.02160  0.20790  Biso   1.000  C
  H23      1.0000 0.26450  0.00230  0.23260  Biso   1.000  H
  C24      1.0000 0.13510  0.79150  0.13270  Biso   1.000  C
  H24      1.0000 0.16840  0.74140  0.14220  Biso   1.000  H
  C25      1.0000 0.02700  0.87750  0.11980  Biso   1.000  C
  H25      1.0000 0.97030  0.90080  0.11870  Biso   1.000  H
  C26      1.0000 0.10110  0.92120  0.10340  Biso   1.000  C
  H26      1.0000 0.10420  0.97930  0.08830  Biso   1.000  H
  C27      1.0000 0.40240  0.84810  0.68920  Biso   1.000  C
  H27      1.0000 0.41110  0.90860  0.69310  Biso   1.000  H
  C28      1.0000 0.36290  0.80530  0.63620  Biso   1.000  C
  H28      1.0000 0.33990  0.83290  0.59670  Biso   1.000  H
  Co5      1.0000 0.79890  0.61874  0.90149  Biso   1.000  Co
  Co6      1.0000 0.97888  0.69148  0.17200  Biso   1.000  Co
  N17      1.0000 0.82240  0.62400  0.00330  Biso   1.000  N
  N18      1.0000 0.88850  0.65420  0.10430  Biso   1.000  N
  N19      1.0000 0.92640  0.78710  0.76540  Biso   1.000  N
  N20      1.0000 0.86040  0.71700  0.85290  Biso   1.000  N
  N21      1.0000 0.93150  0.40460  0.82040  Biso   1.000  N
  N22      1.0000 0.84070  0.50990  0.85420  Biso   1.000  N
  N23      1.0000 0.67080  0.63380  0.88740  Biso   1.000  N
  N24      1.0000 0.54840  0.70720  0.86160  Biso   1.000  N
  C29      1.0000 0.89320  0.65480  0.03660  Biso   1.000  C
  H29      1.0000 0.94260  0.67530  0.01280  Biso   1.000  H
  C30      1.0000 0.76820  0.60420  0.05610  Biso   1.000  C
  H30      1.0000 0.71140  0.58200  0.05110  Biso   1.000  H
  C31      1.0000 0.80800  0.62110  0.11760  Biso   1.000  C
  H31      1.0000 0.78400  0.61150  0.16170  Biso   1.000  H
  C32      1.0000 0.88990  0.71370  0.78850  Biso   1.000  C
  H32      1.0000 0.88550  0.66330  0.76110  Biso   1.000  H
  C33      1.0000 0.93910  0.83580  0.82880  Biso   1.000  C
  H33      1.0000 0.96930  0.88900  0.83280  Biso   1.000  H
  C34      1.0000 0.90080  0.79290  0.88100  Biso   1.000  C
  H34      1.0000 0.90060  0.80980  0.92780  Biso   1.000  H
  C35      1.0000 0.91080  0.46220  0.86810  Biso   1.000  C
  H35      1.0000 0.94330  0.46900  0.90900  Biso   1.000  H
  C36      1.0000 0.86850  0.41510  0.77150  Biso   1.000  C
  H36      1.0000 0.86410  0.38330  0.73000  Biso   1.000  H
  C37      1.0000 0.81370  0.47840  0.79210  Biso   1.000  C
  H37      1.0000 0.76450  0.49770  0.76740  Biso   1.000  H
  C38      1.0000 0.63510  0.70850  0.86730  Biso   1.000  C
  H38      1.0000 0.66840  0.75860  0.85780  Biso   1.000  H
  C39      1.0000 0.52700  0.62250  0.88020  Biso   1.000  C
  H39      1.0000 0.47030  0.59920  0.88130  Biso   1.000  H
  C40      1.0000 0.60110  0.57880  0.89660  Biso   1.000  C
  H40      1.0000 0.60420  0.52070  0.91170  Biso   1.000  H
  C41      1.0000 0.90240  0.65190  0.31080  Biso   1.000  C
  H41      1.0000 0.91110  0.59140  0.30690  Biso   1.000  H
  C42      1.0000 0.86290  0.69470  0.36380  Biso   1.000  C
  H42      1.0000 0.83990  0.66710  0.40330  Biso   1.000  H
  Co7      1.0000 0.70110  0.38126  0.40149  Biso   1.000  Co
  Co8      1.0000 0.52112  0.30852  0.67200  Biso   1.000  Co
  N25      1.0000 0.67760  0.37600  0.50330  Biso   1.000  N
  N26      1.0000 0.61150  0.34580  0.60430  Biso   1.000  N
  N27      1.0000 0.57360  0.21290  0.26540  Biso   1.000  N
  N28      1.0000 0.63960  0.28300  0.35290  Biso   1.000  N
  N29      1.0000 0.56850  0.59540  0.32040  Biso   1.000  N
  N30      1.0000 0.65930  0.49010  0.35420  Biso   1.000  N
  N31      1.0000 0.82920  0.36620  0.38740  Biso   1.000  N
  N32      1.0000 0.95160  0.29280  0.36160  Biso   1.000  N
  C43      1.0000 0.60680  0.34520  0.53660  Biso   1.000  C
  H43      1.0000 0.55740  0.32470  0.51280  Biso   1.000  H
  C44      1.0000 0.73180  0.39580  0.55610  Biso   1.000  C
  H44      1.0000 0.78860  0.41800  0.55110  Biso   1.000  H
  C45      1.0000 0.69200  0.37890  0.61760  Biso   1.000  C
  H45      1.0000 0.71600  0.38850  0.66170  Biso   1.000  H
  C46      1.0000 0.61010  0.28630  0.28850  Biso   1.000  C
  H46      1.0000 0.61450  0.33670  0.26110  Biso   1.000  H
  C47      1.0000 0.56090  0.16420  0.32880  Biso   1.000  C
  H47      1.0000 0.53070  0.11100  0.33280  Biso   1.000  H
  C48      1.0000 0.59920  0.20710  0.38100  Biso   1.000  C
  H48      1.0000 0.59940  0.19020  0.42780  Biso   1.000  H
  C49      1.0000 0.58920  0.53780  0.36810  Biso   1.000  C
  H49      1.0000 0.55670  0.53100  0.40900  Biso   1.000  H
  C50      1.0000 0.63150  0.58490  0.27150  Biso   1.000  C
  H50      1.0000 0.63590  0.61670  0.23000  Biso   1.000  H
  C51      1.0000 0.68630  0.52160  0.29210  Biso   1.000  C
  H51      1.0000 0.73550  0.50230  0.26740  Biso   1.000  H
  C52      1.0000 0.86490  0.29150  0.36730  Biso   1.000  C
  H52      1.0000 0.83160  0.24140  0.35780  Biso   1.000  H
  C53      1.0000 0.97300  0.37750  0.38020  Biso   1.000  C
  H53      1.0000 0.02970  0.40080  0.38130  Biso   1.000  H
  C54      1.0000 0.89890  0.42120  0.39660  Biso   1.000  C
  H54      1.0000 0.89580  0.47930  0.41170  Biso   1.000  H
  C55      1.0000 0.59760  0.34810  0.81080  Biso   1.000  C
  H55      1.0000 0.58890  0.40860  0.80690  Biso   1.000  H
  C56      1.0000 0.63710  0.30530  0.86380  Biso   1.000  C
  H56      1.0000 0.66010  0.33290  0.90330  Biso   1.000  H
  Co9      1.0000 0.79890  0.88126  0.40149  Biso   1.000  Co
  Co10     1.0000 0.97888  0.80852  0.67200  Biso   1.000  Co
  N33      1.0000 0.82240  0.87600  0.50330  Biso   1.000  N
  N34      1.0000 0.88850  0.84580  0.60430  Biso   1.000  N
  N35      1.0000 0.92640  0.71290  0.26540  Biso   1.000  N
  N36      1.0000 0.86040  0.78300  0.35290  Biso   1.000  N
  N37      1.0000 0.93150  0.09540  0.32040  Biso   1.000  N
  N38      1.0000 0.84070  0.99010  0.35420  Biso   1.000  N
  N39      1.0000 0.67080  0.86620  0.38740  Biso   1.000  N
  N40      1.0000 0.54840  0.79280  0.36160  Biso   1.000  N
  C57      1.0000 0.89320  0.84520  0.53660  Biso   1.000  C
  H57      1.0000 0.94260  0.82470  0.51280  Biso   1.000  H
  C58      1.0000 0.76820  0.89580  0.55610  Biso   1.000  C
  H58      1.0000 0.71140  0.91800  0.55110  Biso   1.000  H
  C59      1.0000 0.80800  0.87890  0.61760  Biso   1.000  C
  H59      1.0000 0.78400  0.88850  0.66170  Biso   1.000  H
  C60      1.0000 0.88990  0.78630  0.28850  Biso   1.000  C
  H60      1.0000 0.88550  0.83670  0.26110  Biso   1.000  H
  C61      1.0000 0.93910  0.66420  0.32880  Biso   1.000  C
  H61      1.0000 0.96930  0.61100  0.33280  Biso   1.000  H
  C62      1.0000 0.90080  0.70710  0.38100  Biso   1.000  C
  H62      1.0000 0.90060  0.69020  0.42780  Biso   1.000  H
  C63      1.0000 0.91080  0.03780  0.36810  Biso   1.000  C
  H63      1.0000 0.94330  0.03100  0.40900  Biso   1.000  H
  C64      1.0000 0.86850  0.08490  0.27150  Biso   1.000  C
  H64      1.0000 0.86410  0.11670  0.23000  Biso   1.000  H
  C65      1.0000 0.81370  0.02160  0.29210  Biso   1.000  C
  H65      1.0000 0.76450  0.00230  0.26740  Biso   1.000  H
  C66      1.0000 0.63510  0.79150  0.36730  Biso   1.000  C
  H66      1.0000 0.66840  0.74140  0.35780  Biso   1.000  H
  C67      1.0000 0.52700  0.87750  0.38020  Biso   1.000  C
  H67      1.0000 0.47030  0.90080  0.38130  Biso   1.000  H
  C68      1.0000 0.60110  0.92120  0.39660  Biso   1.000  C
  H68      1.0000 0.60420  0.97930  0.41170  Biso   1.000  H
  C69      1.0000 0.90240  0.84810  0.81080  Biso   1.000  C
  H69      1.0000 0.91110  0.90860  0.80690  Biso   1.000  H
  C70      1.0000 0.86290  0.80530  0.86380  Biso   1.000  C
  H70      1.0000 0.83990  0.83290  0.90330  Biso   1.000  H
  Co11     1.0000 0.70110  0.11874  0.90149  Biso   1.000  Co
  Co12     1.0000 0.52112  0.19148  0.17200  Biso   1.000  Co
  N41      1.0000 0.67760  0.12400  0.00330  Biso   1.000  N
  N42      1.0000 0.61150  0.15420  0.10430  Biso   1.000  N
  N43      1.0000 0.57360  0.28710  0.76540  Biso   1.000  N
  N44      1.0000 0.63960  0.21700  0.85290  Biso   1.000  N
  N45      1.0000 0.56850  0.90460  0.82040  Biso   1.000  N
  N46      1.0000 0.65930  0.00990  0.85420  Biso   1.000  N
  N47      1.0000 0.82920  0.13380  0.88740  Biso   1.000  N
  N48      1.0000 0.95160  0.20720  0.86160  Biso   1.000  N
  C71      1.0000 0.60680  0.15480  0.03660  Biso   1.000  C
  H71      1.0000 0.55740  0.17530  0.01280  Biso   1.000  H
  C72      1.0000 0.73180  0.10420  0.05610  Biso   1.000  C
  H72      1.0000 0.78860  0.08200  0.05110  Biso   1.000  H
  C73      1.0000 0.69200  0.12110  0.11760  Biso   1.000  C
  H73      1.0000 0.71600  0.11150  0.16170  Biso   1.000  H
  C74      1.0000 0.61010  0.21370  0.78850  Biso   1.000  C
  H74      1.0000 0.61450  0.16330  0.76110  Biso   1.000  H
  C75      1.0000 0.56090  0.33580  0.82880  Biso   1.000  C
  H75      1.0000 0.53070  0.38900  0.83280  Biso   1.000  H
  C76      1.0000 0.59920  0.29290  0.88100  Biso   1.000  C
  H76      1.0000 0.59940  0.30980  0.92780  Biso   1.000  H
  C77      1.0000 0.58920  0.96220  0.86810  Biso   1.000  C
  H77      1.0000 0.55670  0.96900  0.90900  Biso   1.000  H
  C78      1.0000 0.63150  0.91510  0.77150  Biso   1.000  C
  H78      1.0000 0.63590  0.88330  0.73000  Biso   1.000  H
  C79      1.0000 0.68630  0.97840  0.79210  Biso   1.000  C
  H79      1.0000 0.73550  0.99770  0.76740  Biso   1.000  H
  C80      1.0000 0.86490  0.20850  0.86730  Biso   1.000  C
  H80      1.0000 0.83160  0.25860  0.85780  Biso   1.000  H
  C81      1.0000 0.97300  0.12250  0.88020  Biso   1.000  C
  H81      1.0000 0.02970  0.09920  0.88130  Biso   1.000  H
  C82      1.0000 0.89890  0.07880  0.89660  Biso   1.000  C
  H82      1.0000 0.89580  0.02070  0.91170  Biso   1.000  H
  C83      1.0000 0.59760  0.15190  0.31080  Biso   1.000  C
  H83      1.0000 0.58890  0.09140  0.30690  Biso   1.000  H
  C84      1.0000 0.63710  0.19470  0.36380  Biso   1.000  C
  H84      1.0000 0.66010  0.16710  0.40330  Biso   1.000  H
  Co13     1.0000 0.20110  0.38126  0.09851  Biso   1.000  Co
  Co14     1.0000 0.02112  0.30852  0.82800  Biso   1.000  Co
  N49      1.0000 0.17760  0.37600  0.99670  Biso   1.000  N
  N50      1.0000 0.11150  0.34580  0.89570  Biso   1.000  N
  N51      1.0000 0.07360  0.21290  0.23460  Biso   1.000  N
  N52      1.0000 0.13960  0.28300  0.14710  Biso   1.000  N
  N53      1.0000 0.06850  0.59540  0.17960  Biso   1.000  N
  N54      1.0000 0.15930  0.49010  0.14580  Biso   1.000  N
  N55      1.0000 0.32920  0.36620  0.11260  Biso   1.000  N
  N56      1.0000 0.45160  0.29280  0.13840  Biso   1.000  N
  C85      1.0000 0.10680  0.34520  0.96340  Biso   1.000  C
  H85      1.0000 0.05740  0.32470  0.98720  Biso   1.000  H
  C86      1.0000 0.23180  0.39580  0.94390  Biso   1.000  C
  H86      1.0000 0.28860  0.41800  0.94890  Biso   1.000  H
  C87      1.0000 0.19200  0.37890  0.88240  Biso   1.000  C
  H87      1.0000 0.21600  0.38850  0.83830  Biso   1.000  H
  C88      1.0000 0.11010  0.28630  0.21150  Biso   1.000  C
  H88      1.0000 0.11450  0.33670  0.23890  Biso   1.000  H
  C89      1.0000 0.06090  0.16420  0.17120  Biso   1.000  C
  H89      1.0000 0.03070  0.11100  0.16720  Biso   1.000  H
  C90      1.0000 0.09920  0.20710  0.11900  Biso   1.000  C
  H90      1.0000 0.09940  0.19020  0.07220  Biso   1.000  H
  C91      1.0000 0.08920  0.53780  0.13190  Biso   1.000  C
  H91      1.0000 0.05670  0.53100  0.09100  Biso   1.000  H
  C92      1.0000 0.13150  0.58490  0.22850  Biso   1.000  C
  H92      1.0000 0.13590  0.61670  0.27000  Biso   1.000  H
  C93      1.0000 0.18630  0.52160  0.20790  Biso   1.000  C
  H93      1.0000 0.23550  0.50230  0.23260  Biso   1.000  H
  C94      1.0000 0.36490  0.29150  0.13270  Biso   1.000  C
  H94      1.0000 0.33160  0.24140  0.14220  Biso   1.000  H
  C95      1.0000 0.47300  0.37750  0.11980  Biso   1.000  C
  H95      1.0000 0.52970  0.40080  0.11870  Biso   1.000  H
  C96      1.0000 0.39890  0.42120  0.10340  Biso   1.000  C
  H96      1.0000 0.39580  0.47930  0.08830  Biso   1.000  H
  C97      1.0000 0.09760  0.34810  0.68920  Biso   1.000  C
  H97      1.0000 0.08890  0.40860  0.69310  Biso   1.000  H
  C98      1.0000 0.13710  0.30530  0.63620  Biso   1.000  C
  H98      1.0000 0.16010  0.33290  0.59670  Biso   1.000  H
  Co15     1.0000 0.29890  0.61874  0.59851  Biso   1.000  Co
  Co16     1.0000 0.47888  0.69148  0.32800  Biso   1.000  Co
  N57      1.0000 0.32240  0.62400  0.49670  Biso   1.000  N
  N58      1.0000 0.38850  0.65420  0.39570  Biso   1.000  N
  N59      1.0000 0.42640  0.78710  0.73460  Biso   1.000  N
  N60      1.0000 0.36040  0.71700  0.64710  Biso   1.000  N
  N61      1.0000 0.43150  0.40460  0.67960  Biso   1.000  N
  N62      1.0000 0.34070  0.50990  0.64580  Biso   1.000  N
  N63      1.0000 0.17080  0.63380  0.61260  Biso   1.000  N
  N64      1.0000 0.04840  0.70720  0.63840  Biso   1.000  N
  C99      1.0000 0.39320  0.65480  0.46340  Biso   1.000  C
  H99      1.0000 0.44260  0.67530  0.48720  Biso   1.000  H
  C100     1.0000 0.26820  0.60420  0.44390  Biso   1.000  C
  H100     1.0000 0.21140  0.58200  0.44890  Biso   1.000  H
  C101     1.0000 0.30800  0.62110  0.38240  Biso   1.000  C
  H101     1.0000 0.28400  0.61150  0.33830  Biso   1.000  H
  C102     1.0000 0.38990  0.71370  0.71150  Biso   1.000  C
  H102     1.0000 0.38550  0.66330  0.73890  Biso   1.000  H
  C103     1.0000 0.43910  0.83580  0.67120  Biso   1.000  C
  H103     1.0000 0.46930  0.88900  0.66720  Biso   1.000  H
  C104     1.0000 0.40080  0.79290  0.61900  Biso   1.000  C
  H104     1.0000 0.40060  0.80980  0.57220  Biso   1.000  H
  C105     1.0000 0.41080  0.46220  0.63190  Biso   1.000  C
  H105     1.0000 0.44330  0.46900  0.59100  Biso   1.000  H
  C106     1.0000 0.36850  0.41510  0.72850  Biso   1.000  C
  H106     1.0000 0.36410  0.38330  0.77000  Biso   1.000  H
  C107     1.0000 0.31370  0.47840  0.70790  Biso   1.000  C
  H107     1.0000 0.26450  0.49770  0.73260  Biso   1.000  H
  C108     1.0000 0.13510  0.70850  0.63270  Biso   1.000  C
  H108     1.0000 0.16840  0.75860  0.64220  Biso   1.000  H
  C109     1.0000 0.02700  0.62250  0.61980  Biso   1.000  C
  H109     1.0000 0.97030  0.59920  0.61870  Biso   1.000  H
  C110     1.0000 0.10110  0.57880  0.60340  Biso   1.000  C
  H110     1.0000 0.10420  0.52070  0.58830  Biso   1.000  H
  C111     1.0000 0.40240  0.65190  0.18920  Biso   1.000  C
  H111     1.0000 0.41110  0.59140  0.19310  Biso   1.000  H
  C112     1.0000 0.36290  0.69470  0.13620  Biso   1.000  C
  H112     1.0000 0.33990  0.66710  0.09670  Biso   1.000  H
