data_image0
_cell_length_a       18.657
_cell_length_b       18.657
_cell_length_c       38.0533
_cell_angle_alpha    90
_cell_angle_beta     90
_cell_angle_gamma    120

_symmetry_space_group_name_H-M    "P 1"
_symmetry_int_tables_number       1

loop_
  _symmetry_equiv_pos_as_xyz
  'x, y, z'

loop_
  _atom_site_label
  _atom_site_occupancy
  _atom_site_fract_x
  _atom_site_fract_y
  _atom_site_fract_z
  _atom_site_thermal_displace_type
  _atom_site_B_iso_or_equiv
  _atom_site_type_symbol
  O1       1.0000 0.81561  0.03828  0.16283  Biso   1.000  O
  O2       1.0000 0.77533  0.07770  0.21103  Biso   1.000  O
  C1       1.0000 0.78684  0.02722  0.19355  Biso   1.000  C
  C2       1.0000 0.76538  0.94700  0.21086  Biso   1.000  C
  C3       1.0000 0.73576  0.93197  0.24542  Biso   1.000  C
  H1       1.0000 0.72580  0.97020  0.25690  Biso   1.000  H
  C4       1.0000 0.64800  0.76770  0.31192  Biso   1.000  C
  C5       1.0000 0.70990  0.91190  0.32099  Biso   1.000  C
  H2       1.0000 0.73750  0.96700  0.31150  Biso   1.000  H
  H3       1.0000 0.63120  0.72100  0.29620  Biso   1.000  H
  N1       1.0000 0.68533  0.78637  0.35475  Biso   1.000  N
  O3       1.0000 0.48228  0.37161  0.49616  Biso   1.000  O
  O4       1.0000 0.44200  0.41103  0.54436  Biso   1.000  O
  C6       1.0000 0.45351  0.36055  0.52688  Biso   1.000  C
  C7       1.0000 0.43205  0.28033  0.54419  Biso   1.000  C
  C8       1.0000 0.40243  0.26530  0.57875  Biso   1.000  C
  H4       1.0000 0.39247  0.30353  0.59023  Biso   1.000  H
  C9       1.0000 0.31467  0.10103  0.64525  Biso   1.000  C
  C10      1.0000 0.37657  0.24523  0.65432  Biso   1.000  C
  H5       1.0000 0.40417  0.30033  0.64483  Biso   1.000  H
  H6       1.0000 0.29787  0.05433  0.62953  Biso   1.000  H
  N2       1.0000 0.35200  0.11970  0.68808  Biso   1.000  N
  O5       1.0000 0.14894  0.70495  0.82950  Biso   1.000  O
  O6       1.0000 0.10866  0.74437  0.87770  Biso   1.000  O
  C11      1.0000 0.12017  0.69389  0.86022  Biso   1.000  C
  C12      1.0000 0.09871  0.61367  0.87753  Biso   1.000  C
  C13      1.0000 0.06909  0.59864  0.91209  Biso   1.000  C
  H7       1.0000 0.05913  0.63687  0.92357  Biso   1.000  H
  C14      1.0000 0.98133  0.43437  0.97859  Biso   1.000  C
  C15      1.0000 0.04323  0.57857  0.98766  Biso   1.000  C
  H8       1.0000 0.07083  0.63367  0.97817  Biso   1.000  H
  H9       1.0000 0.96453  0.38767  0.96287  Biso   1.000  H
  N3       1.0000 0.01867  0.45303  0.02141  Biso   1.000  N
  O7       1.0000 0.96172  0.77733  0.16283  Biso   1.000  O
  O8       1.0000 0.92230  0.69763  0.21103  Biso   1.000  O
  C16      1.0000 0.97278  0.75962  0.19355  Biso   1.000  C
  C17      1.0000 0.05300  0.81838  0.21086  Biso   1.000  C
  C18      1.0000 0.06803  0.80379  0.24542  Biso   1.000  C
  H10      1.0000 0.02980  0.75560  0.25690  Biso   1.000  H
  C19      1.0000 0.23230  0.88030  0.31192  Biso   1.000  C
  C20      1.0000 0.08810  0.79800  0.32099  Biso   1.000  C
  H11      1.0000 0.03300  0.77050  0.31150  Biso   1.000  H
  H12      1.0000 0.27900  0.91020  0.29620  Biso   1.000  H
  N4       1.0000 0.21363  0.89897  0.35475  Biso   1.000  N
  O9       1.0000 0.62839  0.11066  0.49616  Biso   1.000  O
  O10      1.0000 0.58897  0.03096  0.54436  Biso   1.000  O
  C21      1.0000 0.63945  0.09295  0.52688  Biso   1.000  C
  C22      1.0000 0.71967  0.15171  0.54419  Biso   1.000  C
  C23      1.0000 0.73470  0.13712  0.57875  Biso   1.000  C
  H13      1.0000 0.69647  0.08893  0.59023  Biso   1.000  H
  C24      1.0000 0.89897  0.21363  0.64525  Biso   1.000  C
  C25      1.0000 0.75477  0.13133  0.65432  Biso   1.000  C
  H14      1.0000 0.69967  0.10383  0.64483  Biso   1.000  H
  H15      1.0000 0.94567  0.24353  0.62953  Biso   1.000  H
  N5       1.0000 0.88030  0.23230  0.68808  Biso   1.000  N
  O11      1.0000 0.29505  0.44400  0.82950  Biso   1.000  O
  O12      1.0000 0.25563  0.36430  0.87770  Biso   1.000  O
  C26      1.0000 0.30611  0.42629  0.86022  Biso   1.000  C
  C27      1.0000 0.38633  0.48505  0.87753  Biso   1.000  C
  C28      1.0000 0.40136  0.47046  0.91209  Biso   1.000  C
  H16      1.0000 0.36313  0.42227  0.92357  Biso   1.000  H
  C29      1.0000 0.56563  0.54697  0.97859  Biso   1.000  C
  C30      1.0000 0.42143  0.46467  0.98766  Biso   1.000  C
  H17      1.0000 0.36633  0.43717  0.97817  Biso   1.000  H
  H18      1.0000 0.61233  0.57687  0.96287  Biso   1.000  H
  N6       1.0000 0.54697  0.56563  0.02141  Biso   1.000  N
  O13      1.0000 0.22267  0.18439  0.16283  Biso   1.000  O
  O14      1.0000 0.30237  0.22467  0.21103  Biso   1.000  O
  C31      1.0000 0.24038  0.21316  0.19355  Biso   1.000  C
  C32      1.0000 0.18162  0.23462  0.21086  Biso   1.000  C
  C33      1.0000 0.19621  0.26424  0.24542  Biso   1.000  C
  H19      1.0000 0.24440  0.27420  0.25690  Biso   1.000  H
  C34      1.0000 0.11970  0.35200  0.31192  Biso   1.000  C
  C35      1.0000 0.20200  0.29010  0.32099  Biso   1.000  C
  H20      1.0000 0.22950  0.26250  0.31150  Biso   1.000  H
  H21      1.0000 0.08980  0.36880  0.29620  Biso   1.000  H
  N7       1.0000 0.10103  0.31467  0.35475  Biso   1.000  N
  O15      1.0000 0.88934  0.51772  0.49616  Biso   1.000  O
  O16      1.0000 0.96904  0.55800  0.54436  Biso   1.000  O
  C36      1.0000 0.90705  0.54649  0.52688  Biso   1.000  C
  C37      1.0000 0.84829  0.56795  0.54419  Biso   1.000  C
  C38      1.0000 0.86288  0.59757  0.57875  Biso   1.000  C
  H22      1.0000 0.91107  0.60753  0.59023  Biso   1.000  H
  C39      1.0000 0.78637  0.68533  0.64525  Biso   1.000  C
  C40      1.0000 0.86867  0.62343  0.65432  Biso   1.000  C
  H23      1.0000 0.89617  0.59583  0.64483  Biso   1.000  H
  H24      1.0000 0.75647  0.70213  0.62953  Biso   1.000  H
  N8       1.0000 0.76770  0.64800  0.68808  Biso   1.000  N
  O17      1.0000 0.55600  0.85106  0.82950  Biso   1.000  O
  O18      1.0000 0.63570  0.89134  0.87770  Biso   1.000  O
  C41      1.0000 0.57371  0.87983  0.86022  Biso   1.000  C
  C42      1.0000 0.51495  0.90129  0.87753  Biso   1.000  C
  C43      1.0000 0.52954  0.93091  0.91209  Biso   1.000  C
  H25      1.0000 0.57773  0.94087  0.92357  Biso   1.000  H
  C44      1.0000 0.45303  0.01867  0.97859  Biso   1.000  C
  C45      1.0000 0.53533  0.95677  0.98766  Biso   1.000  C
  H26      1.0000 0.56283  0.92917  0.97817  Biso   1.000  H
  H27      1.0000 0.42313  0.03547  0.96287  Biso   1.000  H
  N9       1.0000 0.43437  0.98133  0.02141  Biso   1.000  N
  O19      1.0000 0.03828  0.81561  0.83717  Biso   1.000  O
  O20      1.0000 0.07770  0.77533  0.78897  Biso   1.000  O
  C46      1.0000 0.02722  0.78684  0.80645  Biso   1.000  C
  C47      1.0000 0.94700  0.76538  0.78914  Biso   1.000  C
  C48      1.0000 0.93197  0.73576  0.75458  Biso   1.000  C
  H28      1.0000 0.97020  0.72580  0.74310  Biso   1.000  H
  C49      1.0000 0.91190  0.70990  0.67901  Biso   1.000  C
  H29      1.0000 0.96700  0.73750  0.68850  Biso   1.000  H
  H30      1.0000 0.72100  0.63120  0.70380  Biso   1.000  H
  O21      1.0000 0.70495  0.14894  0.17050  Biso   1.000  O
  O22      1.0000 0.74437  0.10866  0.12230  Biso   1.000  O
  C50      1.0000 0.69389  0.12017  0.13978  Biso   1.000  C
  C51      1.0000 0.61367  0.09871  0.12247  Biso   1.000  C
  C52      1.0000 0.59864  0.06909  0.08791  Biso   1.000  C
  H31      1.0000 0.63687  0.05913  0.07643  Biso   1.000  H
  C53      1.0000 0.57857  0.04323  0.01234  Biso   1.000  C
  H32      1.0000 0.63367  0.07083  0.02183  Biso   1.000  H
  H33      1.0000 0.38767  0.96453  0.03713  Biso   1.000  H
  O23      1.0000 0.37161  0.48228  0.50384  Biso   1.000  O
  O24      1.0000 0.41103  0.44200  0.45564  Biso   1.000  O
  C54      1.0000 0.36055  0.45351  0.47312  Biso   1.000  C
  C55      1.0000 0.28033  0.43205  0.45581  Biso   1.000  C
  C56      1.0000 0.26530  0.40243  0.42125  Biso   1.000  C
  H34      1.0000 0.30353  0.39247  0.40977  Biso   1.000  H
  C57      1.0000 0.24523  0.37657  0.34568  Biso   1.000  C
  H35      1.0000 0.30033  0.40417  0.35517  Biso   1.000  H
  H36      1.0000 0.05433  0.29787  0.37047  Biso   1.000  H
  O25      1.0000 0.77733  0.96172  0.83717  Biso   1.000  O
  O26      1.0000 0.69763  0.92230  0.78897  Biso   1.000  O
  C58      1.0000 0.75962  0.97278  0.80645  Biso   1.000  C
  C59      1.0000 0.81838  0.05300  0.78914  Biso   1.000  C
  C60      1.0000 0.80379  0.06803  0.75458  Biso   1.000  C
  H37      1.0000 0.75560  0.02980  0.74310  Biso   1.000  H
  C61      1.0000 0.79800  0.08810  0.67901  Biso   1.000  C
  H38      1.0000 0.77050  0.03300  0.68850  Biso   1.000  H
  H39      1.0000 0.91020  0.27900  0.70380  Biso   1.000  H
  O27      1.0000 0.44400  0.29505  0.17050  Biso   1.000  O
  O28      1.0000 0.36430  0.25563  0.12230  Biso   1.000  O
  C62      1.0000 0.42629  0.30611  0.13978  Biso   1.000  C
  C63      1.0000 0.48505  0.38633  0.12247  Biso   1.000  C
  C64      1.0000 0.47046  0.40136  0.08791  Biso   1.000  C
  H40      1.0000 0.42227  0.36313  0.07643  Biso   1.000  H
  C65      1.0000 0.46467  0.42143  0.01234  Biso   1.000  C
  H41      1.0000 0.43717  0.36633  0.02183  Biso   1.000  H
  H42      1.0000 0.57687  0.61233  0.03713  Biso   1.000  H
  O29      1.0000 0.11066  0.62839  0.50384  Biso   1.000  O
  O30      1.0000 0.03096  0.58897  0.45564  Biso   1.000  O
  C66      1.0000 0.09295  0.63945  0.47312  Biso   1.000  C
  C67      1.0000 0.15171  0.71967  0.45581  Biso   1.000  C
  C68      1.0000 0.13712  0.73470  0.42125  Biso   1.000  C
  H43      1.0000 0.08893  0.69647  0.40977  Biso   1.000  H
  C69      1.0000 0.13133  0.75477  0.34568  Biso   1.000  C
  H44      1.0000 0.10383  0.69967  0.35517  Biso   1.000  H
  H45      1.0000 0.24353  0.94567  0.37047  Biso   1.000  H
  O31      1.0000 0.18439  0.22267  0.83717  Biso   1.000  O
  O32      1.0000 0.22467  0.30237  0.78897  Biso   1.000  O
  C70      1.0000 0.21316  0.24038  0.80645  Biso   1.000  C
  C71      1.0000 0.23462  0.18162  0.78914  Biso   1.000  C
  C72      1.0000 0.26424  0.19621  0.75458  Biso   1.000  C
  H46      1.0000 0.27420  0.24440  0.74310  Biso   1.000  H
  C73      1.0000 0.29010  0.20200  0.67901  Biso   1.000  C
  H47      1.0000 0.26250  0.22950  0.68850  Biso   1.000  H
  H48      1.0000 0.36880  0.08980  0.70380  Biso   1.000  H
  O33      1.0000 0.85106  0.55600  0.17050  Biso   1.000  O
  O34      1.0000 0.89134  0.63570  0.12230  Biso   1.000  O
  C74      1.0000 0.87983  0.57371  0.13978  Biso   1.000  C
  C75      1.0000 0.90129  0.51495  0.12247  Biso   1.000  C
  C76      1.0000 0.93091  0.52954  0.08791  Biso   1.000  C
  H49      1.0000 0.94087  0.57773  0.07643  Biso   1.000  H
  C77      1.0000 0.95677  0.53533  0.01234  Biso   1.000  C
  H50      1.0000 0.92917  0.56283  0.02183  Biso   1.000  H
  H51      1.0000 0.03547  0.42313  0.03713  Biso   1.000  H
  O35      1.0000 0.51772  0.88934  0.50384  Biso   1.000  O
  O36      1.0000 0.55800  0.96904  0.45564  Biso   1.000  O
  C78      1.0000 0.54649  0.90705  0.47312  Biso   1.000  C
  C79      1.0000 0.56795  0.84829  0.45581  Biso   1.000  C
  C80      1.0000 0.59757  0.86288  0.42125  Biso   1.000  C
  H52      1.0000 0.60753  0.91107  0.40977  Biso   1.000  H
  C81      1.0000 0.62343  0.86867  0.34568  Biso   1.000  C
  H53      1.0000 0.59583  0.89617  0.35517  Biso   1.000  H
  H54      1.0000 0.70213  0.75647  0.37047  Biso   1.000  H
  O37      1.0000 0.18439  0.96172  0.83717  Biso   1.000  O
  O38      1.0000 0.22467  0.92230  0.78897  Biso   1.000  O
  C82      1.0000 0.21316  0.97278  0.80645  Biso   1.000  C
  C83      1.0000 0.23462  0.05300  0.78914  Biso   1.000  C
  C84      1.0000 0.26424  0.06803  0.75458  Biso   1.000  C
  H55      1.0000 0.27420  0.02980  0.74310  Biso   1.000  H
  C85      1.0000 0.35200  0.23230  0.68808  Biso   1.000  C
  C86      1.0000 0.29010  0.08810  0.67901  Biso   1.000  C
  H56      1.0000 0.26250  0.03300  0.68850  Biso   1.000  H
  H57      1.0000 0.36880  0.27900  0.70380  Biso   1.000  H
  N10      1.0000 0.31467  0.21363  0.64525  Biso   1.000  N
  O39      1.0000 0.85106  0.29505  0.17050  Biso   1.000  O
  O40      1.0000 0.89134  0.25563  0.12230  Biso   1.000  O
  C87      1.0000 0.87983  0.30611  0.13978  Biso   1.000  C
  C88      1.0000 0.90129  0.38633  0.12247  Biso   1.000  C
  C89      1.0000 0.93091  0.40136  0.08791  Biso   1.000  C
  H58      1.0000 0.94087  0.36313  0.07643  Biso   1.000  H
  C90      1.0000 0.01867  0.56563  0.02141  Biso   1.000  C
  C91      1.0000 0.95677  0.42143  0.01234  Biso   1.000  C
  H59      1.0000 0.92917  0.36633  0.02183  Biso   1.000  H
  H60      1.0000 0.03547  0.61233  0.03713  Biso   1.000  H
  N11      1.0000 0.98133  0.54697  0.97859  Biso   1.000  N
  O41      1.0000 0.51772  0.62839  0.50384  Biso   1.000  O
  O42      1.0000 0.55800  0.58897  0.45564  Biso   1.000  O
  C92      1.0000 0.54649  0.63945  0.47312  Biso   1.000  C
  C93      1.0000 0.56795  0.71967  0.45581  Biso   1.000  C
  C94      1.0000 0.59757  0.73470  0.42125  Biso   1.000  C
  H61      1.0000 0.60753  0.69647  0.40977  Biso   1.000  H
  C95      1.0000 0.68533  0.89897  0.35475  Biso   1.000  C
  C96      1.0000 0.62343  0.75477  0.34568  Biso   1.000  C
  H62      1.0000 0.59583  0.69967  0.35517  Biso   1.000  H
  H63      1.0000 0.70213  0.94567  0.37047  Biso   1.000  H
  N12      1.0000 0.64800  0.88030  0.31192  Biso   1.000  N
  O43      1.0000 0.03828  0.22267  0.83717  Biso   1.000  O
  O44      1.0000 0.07770  0.30237  0.78897  Biso   1.000  O
  C97      1.0000 0.02722  0.24038  0.80645  Biso   1.000  C
  C98      1.0000 0.94700  0.18162  0.78914  Biso   1.000  C
  C99      1.0000 0.93197  0.19621  0.75458  Biso   1.000  C
  H64      1.0000 0.97020  0.24440  0.74310  Biso   1.000  H
  C100     1.0000 0.76770  0.11970  0.68808  Biso   1.000  C
  C101     1.0000 0.91190  0.20200  0.67901  Biso   1.000  C
  H65      1.0000 0.96700  0.22950  0.68850  Biso   1.000  H
  H66      1.0000 0.72100  0.08980  0.70380  Biso   1.000  H
  N13      1.0000 0.78637  0.10103  0.64525  Biso   1.000  N
  O45      1.0000 0.70495  0.55600  0.17050  Biso   1.000  O
  O46      1.0000 0.74437  0.63570  0.12230  Biso   1.000  O
  C102     1.0000 0.69389  0.57371  0.13978  Biso   1.000  C
  C103     1.0000 0.61367  0.51495  0.12247  Biso   1.000  C
  C104     1.0000 0.59864  0.52954  0.08791  Biso   1.000  C
  H67      1.0000 0.63687  0.57773  0.07643  Biso   1.000  H
  C105     1.0000 0.43437  0.45303  0.02141  Biso   1.000  C
  C106     1.0000 0.57857  0.53533  0.01234  Biso   1.000  C
  H68      1.0000 0.63367  0.56283  0.02183  Biso   1.000  H
  H69      1.0000 0.38767  0.42313  0.03713  Biso   1.000  H
  N14      1.0000 0.45303  0.43437  0.97859  Biso   1.000  N
  O47      1.0000 0.37161  0.88934  0.50384  Biso   1.000  O
  O48      1.0000 0.41103  0.96904  0.45564  Biso   1.000  O
  C107     1.0000 0.36055  0.90705  0.47312  Biso   1.000  C
  C108     1.0000 0.28033  0.84829  0.45581  Biso   1.000  C
  C109     1.0000 0.26530  0.86288  0.42125  Biso   1.000  C
  H70      1.0000 0.30353  0.91107  0.40977  Biso   1.000  H
  C110     1.0000 0.10103  0.78637  0.35475  Biso   1.000  C
  C111     1.0000 0.24523  0.86867  0.34568  Biso   1.000  C
  H71      1.0000 0.30033  0.89617  0.35517  Biso   1.000  H
  H72      1.0000 0.05433  0.75647  0.37047  Biso   1.000  H
  N15      1.0000 0.11970  0.76770  0.31192  Biso   1.000  N
  O49      1.0000 0.77733  0.81561  0.83717  Biso   1.000  O
  O50      1.0000 0.69763  0.77533  0.78897  Biso   1.000  O
  C112     1.0000 0.75962  0.78684  0.80645  Biso   1.000  C
  C113     1.0000 0.81838  0.76538  0.78914  Biso   1.000  C
  C114     1.0000 0.80379  0.73576  0.75458  Biso   1.000  C
  H73      1.0000 0.75560  0.72580  0.74310  Biso   1.000  H
  C115     1.0000 0.88030  0.64800  0.68808  Biso   1.000  C
  C116     1.0000 0.79800  0.70990  0.67901  Biso   1.000  C
  H74      1.0000 0.77050  0.73750  0.68850  Biso   1.000  H
  H75      1.0000 0.91020  0.63120  0.70380  Biso   1.000  H
  N16      1.0000 0.89897  0.68533  0.64525  Biso   1.000  N
  O51      1.0000 0.44400  0.14894  0.17050  Biso   1.000  O
  O52      1.0000 0.36430  0.10866  0.12230  Biso   1.000  O
  C117     1.0000 0.42629  0.12017  0.13978  Biso   1.000  C
  C118     1.0000 0.48505  0.09871  0.12247  Biso   1.000  C
  C119     1.0000 0.47046  0.06909  0.08791  Biso   1.000  C
  H76      1.0000 0.42227  0.05913  0.07643  Biso   1.000  H
  C120     1.0000 0.54697  0.98133  0.02141  Biso   1.000  C
  C121     1.0000 0.46467  0.04323  0.01234  Biso   1.000  C
  H77      1.0000 0.43717  0.07083  0.02183  Biso   1.000  H
  H78      1.0000 0.57687  0.96453  0.03713  Biso   1.000  H
  N17      1.0000 0.56563  0.01867  0.97859  Biso   1.000  N
  O53      1.0000 0.11066  0.48228  0.50384  Biso   1.000  O
  O54      1.0000 0.03096  0.44200  0.45564  Biso   1.000  O
  C122     1.0000 0.09295  0.45351  0.47312  Biso   1.000  C
  C123     1.0000 0.15171  0.43205  0.45581  Biso   1.000  C
  C124     1.0000 0.13712  0.40243  0.42125  Biso   1.000  C
  H79      1.0000 0.08893  0.39247  0.40977  Biso   1.000  H
  C125     1.0000 0.21363  0.31467  0.35475  Biso   1.000  C
  C126     1.0000 0.13133  0.37657  0.34568  Biso   1.000  C
  H80      1.0000 0.10383  0.40417  0.35517  Biso   1.000  H
  H81      1.0000 0.24353  0.29787  0.37047  Biso   1.000  H
  N18      1.0000 0.23230  0.35200  0.31192  Biso   1.000  N
  O55      1.0000 0.96172  0.18439  0.16283  Biso   1.000  O
  O56      1.0000 0.92230  0.22467  0.21103  Biso   1.000  O
  C127     1.0000 0.97278  0.21316  0.19355  Biso   1.000  C
  C128     1.0000 0.05300  0.23462  0.21086  Biso   1.000  C
  C129     1.0000 0.06803  0.26424  0.24542  Biso   1.000  C
  H82      1.0000 0.02980  0.27420  0.25690  Biso   1.000  H
  C130     1.0000 0.08810  0.29010  0.32099  Biso   1.000  C
  H83      1.0000 0.03300  0.26250  0.31150  Biso   1.000  H
  H84      1.0000 0.27900  0.36880  0.29620  Biso   1.000  H
  O57      1.0000 0.62839  0.51772  0.49616  Biso   1.000  O
  O58      1.0000 0.58897  0.55800  0.54436  Biso   1.000  O
  C131     1.0000 0.63945  0.54649  0.52688  Biso   1.000  C
  C132     1.0000 0.71967  0.56795  0.54419  Biso   1.000  C
  C133     1.0000 0.73470  0.59757  0.57875  Biso   1.000  C
  H85      1.0000 0.69647  0.60753  0.59023  Biso   1.000  H
  C134     1.0000 0.75477  0.62343  0.65432  Biso   1.000  C
  H86      1.0000 0.69967  0.59583  0.64483  Biso   1.000  H
  H87      1.0000 0.94567  0.70213  0.62953  Biso   1.000  H
  O59      1.0000 0.29505  0.85106  0.82950  Biso   1.000  O
  O60      1.0000 0.25563  0.89134  0.87770  Biso   1.000  O
  C135     1.0000 0.30611  0.87983  0.86022  Biso   1.000  C
  C136     1.0000 0.38633  0.90129  0.87753  Biso   1.000  C
  C137     1.0000 0.40136  0.93091  0.91209  Biso   1.000  C
  H88      1.0000 0.36313  0.94087  0.92357  Biso   1.000  H
  C138     1.0000 0.42143  0.95677  0.98766  Biso   1.000  C
  H89      1.0000 0.36633  0.92917  0.97817  Biso   1.000  H
  H90      1.0000 0.61233  0.03547  0.96287  Biso   1.000  H
  O61      1.0000 0.22267  0.03828  0.16283  Biso   1.000  O
  O62      1.0000 0.30237  0.07770  0.21103  Biso   1.000  O
  C139     1.0000 0.24038  0.02722  0.19355  Biso   1.000  C
  C140     1.0000 0.18162  0.94700  0.21086  Biso   1.000  C
  C141     1.0000 0.19621  0.93197  0.24542  Biso   1.000  C
  H91      1.0000 0.24440  0.97020  0.25690  Biso   1.000  H
  C142     1.0000 0.20200  0.91190  0.32099  Biso   1.000  C
  H92      1.0000 0.22950  0.96700  0.31150  Biso   1.000  H
  H93      1.0000 0.08980  0.72100  0.29620  Biso   1.000  H
  O63      1.0000 0.88934  0.37161  0.49616  Biso   1.000  O
  O64      1.0000 0.96904  0.41103  0.54436  Biso   1.000  O
  C143     1.0000 0.90705  0.36055  0.52688  Biso   1.000  C
  C144     1.0000 0.84829  0.28033  0.54419  Biso   1.000  C
  C145     1.0000 0.86288  0.26530  0.57875  Biso   1.000  C
  H94      1.0000 0.91107  0.30353  0.59023  Biso   1.000  H
  C146     1.0000 0.86867  0.24523  0.65432  Biso   1.000  C
  H95      1.0000 0.89617  0.30033  0.64483  Biso   1.000  H
  H96      1.0000 0.75647  0.05433  0.62953  Biso   1.000  H
  O65      1.0000 0.55600  0.70495  0.82950  Biso   1.000  O
  O66      1.0000 0.63570  0.74437  0.87770  Biso   1.000  O
  C147     1.0000 0.57371  0.69389  0.86022  Biso   1.000  C
  C148     1.0000 0.51495  0.61367  0.87753  Biso   1.000  C
  C149     1.0000 0.52954  0.59864  0.91209  Biso   1.000  C
  H97      1.0000 0.57773  0.63687  0.92357  Biso   1.000  H
  C150     1.0000 0.53533  0.57857  0.98766  Biso   1.000  C
  H98      1.0000 0.56283  0.63367  0.97817  Biso   1.000  H
  H99      1.0000 0.42313  0.38767  0.96287  Biso   1.000  H
  O67      1.0000 0.81561  0.77733  0.16283  Biso   1.000  O
  O68      1.0000 0.77533  0.69763  0.21103  Biso   1.000  O
  C151     1.0000 0.78684  0.75962  0.19355  Biso   1.000  C
  C152     1.0000 0.76538  0.81838  0.21086  Biso   1.000  C
  C153     1.0000 0.73576  0.80379  0.24542  Biso   1.000  C
  H100     1.0000 0.72580  0.75560  0.25690  Biso   1.000  H
  C154     1.0000 0.70990  0.79800  0.32099  Biso   1.000  C
  H101     1.0000 0.73750  0.77050  0.31150  Biso   1.000  H
  H102     1.0000 0.63120  0.91020  0.29620  Biso   1.000  H
  O69      1.0000 0.48228  0.11066  0.49616  Biso   1.000  O
  O70      1.0000 0.44200  0.03096  0.54436  Biso   1.000  O
  C155     1.0000 0.45351  0.09295  0.52688  Biso   1.000  C
  C156     1.0000 0.43205  0.15171  0.54419  Biso   1.000  C
  C157     1.0000 0.40243  0.13712  0.57875  Biso   1.000  C
  H103     1.0000 0.39247  0.08893  0.59023  Biso   1.000  H
  C158     1.0000 0.37657  0.13133  0.65432  Biso   1.000  C
  H104     1.0000 0.40417  0.10383  0.64483  Biso   1.000  H
  H105     1.0000 0.29787  0.24353  0.62953  Biso   1.000  H
  O71      1.0000 0.14894  0.44400  0.82950  Biso   1.000  O
  O72      1.0000 0.10866  0.36430  0.87770  Biso   1.000  O
  C159     1.0000 0.12017  0.42629  0.86022  Biso   1.000  C
  C160     1.0000 0.09871  0.48505  0.87753  Biso   1.000  C
  C161     1.0000 0.06909  0.47046  0.91209  Biso   1.000  C
  H106     1.0000 0.05913  0.42227  0.92357  Biso   1.000  H
  C162     1.0000 0.04323  0.46467  0.98766  Biso   1.000  C
  H107     1.0000 0.07083  0.43717  0.97817  Biso   1.000  H
  H108     1.0000 0.96453  0.57687  0.96287  Biso   1.000  H
  Cu1      1.0000 0.85682  0.14318  0.13801  Biso   1.000  Cu
  Cu2      1.0000 0.52349  0.47651  0.47134  Biso   1.000  Cu
  Cu3      1.0000 0.19016  0.80984  0.80468  Biso   1.000  Cu
  Cu4      1.0000 0.85682  0.71365  0.13801  Biso   1.000  Cu
  Cu5      1.0000 0.52349  0.04698  0.47134  Biso   1.000  Cu
  Cu6      1.0000 0.19016  0.38032  0.80468  Biso   1.000  Cu
  Cu7      1.0000 0.28635  0.14318  0.13801  Biso   1.000  Cu
  Cu8      1.0000 0.95302  0.47651  0.47134  Biso   1.000  Cu
  Cu9      1.0000 0.61968  0.80984  0.80468  Biso   1.000  Cu
  Cu10     1.0000 0.14318  0.85682  0.86199  Biso   1.000  Cu
  Cu11     1.0000 0.80984  0.19016  0.19532  Biso   1.000  Cu
  Cu12     1.0000 0.47651  0.52349  0.52866  Biso   1.000  Cu
  Cu13     1.0000 0.71365  0.85682  0.86199  Biso   1.000  Cu
  Cu14     1.0000 0.38032  0.19016  0.19532  Biso   1.000  Cu
  Cu15     1.0000 0.04698  0.52349  0.52866  Biso   1.000  Cu
  Cu16     1.0000 0.14318  0.28635  0.86199  Biso   1.000  Cu
  Cu17     1.0000 0.80984  0.61968  0.19532  Biso   1.000  Cu
  Cu18     1.0000 0.47651  0.95302  0.52866  Biso   1.000  Cu
  C163     1.0000 0.77964  0.88982  0.19391  Biso   1.000  C
  H109     1.0000 0.79900  0.89950  0.17090  Biso   1.000  H
  C164     1.0000 0.72122  0.86061  0.26270  Biso   1.000  C
  C165     1.0000 0.69210  0.84605  0.29970  Biso   1.000  C
  C166     1.0000 0.44631  0.22315  0.52724  Biso   1.000  C
  H110     1.0000 0.46567  0.23283  0.50423  Biso   1.000  H
  C167     1.0000 0.38789  0.19394  0.59603  Biso   1.000  C
  C168     1.0000 0.35877  0.17938  0.63303  Biso   1.000  C
  C169     1.0000 0.11297  0.55649  0.86058  Biso   1.000  C
  H111     1.0000 0.13233  0.56617  0.83757  Biso   1.000  H
  C170     1.0000 0.05455  0.52728  0.92937  Biso   1.000  C
  C171     1.0000 0.02543  0.51272  0.96637  Biso   1.000  C
  C172     1.0000 0.11018  0.88982  0.19391  Biso   1.000  C
  H112     1.0000 0.10050  0.89950  0.17090  Biso   1.000  H
  C173     1.0000 0.13939  0.86061  0.26270  Biso   1.000  C
  C174     1.0000 0.15395  0.84605  0.29970  Biso   1.000  C
  C175     1.0000 0.77685  0.22315  0.52724  Biso   1.000  C
  H113     1.0000 0.76717  0.23283  0.50423  Biso   1.000  H
  C176     1.0000 0.80606  0.19394  0.59603  Biso   1.000  C
  C177     1.0000 0.82062  0.17938  0.63303  Biso   1.000  C
  C178     1.0000 0.44351  0.55649  0.86058  Biso   1.000  C
  H114     1.0000 0.43383  0.56617  0.83757  Biso   1.000  H
  C179     1.0000 0.47272  0.52728  0.92937  Biso   1.000  C
  C180     1.0000 0.48728  0.51272  0.96637  Biso   1.000  C
  C181     1.0000 0.11018  0.22036  0.19391  Biso   1.000  C
  H115     1.0000 0.10050  0.20100  0.17090  Biso   1.000  H
  C182     1.0000 0.13939  0.27878  0.26270  Biso   1.000  C
  C183     1.0000 0.15395  0.30790  0.29970  Biso   1.000  C
  C184     1.0000 0.77685  0.55369  0.52724  Biso   1.000  C
  H116     1.0000 0.76717  0.53433  0.50423  Biso   1.000  H
  C185     1.0000 0.80606  0.61211  0.59603  Biso   1.000  C
  C186     1.0000 0.82062  0.64123  0.63303  Biso   1.000  C
  C187     1.0000 0.44351  0.88703  0.86058  Biso   1.000  C
  H117     1.0000 0.43383  0.86767  0.83757  Biso   1.000  H
  C188     1.0000 0.47272  0.94545  0.92937  Biso   1.000  C
  C189     1.0000 0.48728  0.97457  0.96637  Biso   1.000  C
  C190     1.0000 0.88982  0.77964  0.80609  Biso   1.000  C
  H118     1.0000 0.89950  0.79900  0.82910  Biso   1.000  H
  C191     1.0000 0.86061  0.72122  0.73730  Biso   1.000  C
  C192     1.0000 0.84605  0.69210  0.70030  Biso   1.000  C
  C193     1.0000 0.55649  0.11297  0.13942  Biso   1.000  C
  H119     1.0000 0.56617  0.13233  0.16243  Biso   1.000  H
  C194     1.0000 0.52728  0.05455  0.07063  Biso   1.000  C
  C195     1.0000 0.51272  0.02543  0.03363  Biso   1.000  C
  C196     1.0000 0.22315  0.44631  0.47276  Biso   1.000  C
  H120     1.0000 0.23283  0.46567  0.49577  Biso   1.000  H
  C197     1.0000 0.19394  0.38789  0.40397  Biso   1.000  C
  C198     1.0000 0.17938  0.35877  0.36697  Biso   1.000  C
  C199     1.0000 0.88982  0.11018  0.80609  Biso   1.000  C
  H121     1.0000 0.89950  0.10050  0.82910  Biso   1.000  H
  C200     1.0000 0.86061  0.13939  0.73730  Biso   1.000  C
  C201     1.0000 0.84605  0.15395  0.70030  Biso   1.000  C
  C202     1.0000 0.55649  0.44351  0.13942  Biso   1.000  C
  H122     1.0000 0.56617  0.43383  0.16243  Biso   1.000  H
  C203     1.0000 0.52728  0.47272  0.07063  Biso   1.000  C
  C204     1.0000 0.51272  0.48728  0.03363  Biso   1.000  C
  C205     1.0000 0.22315  0.77685  0.47276  Biso   1.000  C
  H123     1.0000 0.23283  0.76717  0.49577  Biso   1.000  H
  C206     1.0000 0.19394  0.80606  0.40397  Biso   1.000  C
  C207     1.0000 0.17938  0.82062  0.36697  Biso   1.000  C
  C208     1.0000 0.22036  0.11018  0.80609  Biso   1.000  C
  H124     1.0000 0.20100  0.10050  0.82910  Biso   1.000  H
  C209     1.0000 0.27878  0.13939  0.73730  Biso   1.000  C
  C210     1.0000 0.30790  0.15395  0.70030  Biso   1.000  C
  C211     1.0000 0.88703  0.44351  0.13942  Biso   1.000  C
  H125     1.0000 0.86767  0.43383  0.16243  Biso   1.000  H
  C212     1.0000 0.94545  0.47272  0.07063  Biso   1.000  C
  C213     1.0000 0.97457  0.48728  0.03363  Biso   1.000  C
  C214     1.0000 0.55369  0.77685  0.47276  Biso   1.000  C
  H126     1.0000 0.53433  0.76717  0.49577  Biso   1.000  H
  C215     1.0000 0.61211  0.80606  0.40397  Biso   1.000  C
  C216     1.0000 0.64123  0.82062  0.36697  Biso   1.000  C
