data_image0
_cell_length_a       16.632
_cell_length_b       17.391
_cell_length_c       15.685
_cell_angle_alpha    90
_cell_angle_beta     90
_cell_angle_gamma    90

_symmetry_space_group_name_H-M    "P 1"
_symmetry_int_tables_number       1

loop_
  _symmetry_equiv_pos_as_xyz
  'x, y, z'

loop_
  _atom_site_label
  _atom_site_occupancy
  _atom_site_fract_x
  _atom_site_fract_y
  _atom_site_fract_z
  _atom_site_thermal_displace_type
  _atom_site_B_iso_or_equiv
  _atom_site_type_symbol
  Cd1      1.0000 0.11980  0.35440  0.56220  Biso   1.000  Cd
  Cd2      1.0000 0.29210  0.12290  0.39990  Biso   1.000  Cd
  C1       1.0000 0.16200  0.46500  0.50300  Biso   1.000  C
  C2       1.0000 0.42200  0.16700  0.43700  Biso   1.000  C
  C3       1.0000 0.16200  0.35000  0.69600  Biso   1.000  C
  C4       1.0000 0.23000  0.21600  0.47000  Biso   1.000  C
  C5       1.0000 0.18800  0.25900  0.50500  Biso   1.000  C
  C6       1.0000 0.48700  0.16500  0.44000  Biso   1.000  C
  C7       1.0000 0.31900  0.14100  0.26600  Biso   1.000  C
  C8       1.0000 0.31800  0.02100  0.47500  Biso   1.000  C
  N1       1.0000 0.16900  0.06800  0.35800  Biso   1.000  N
  C9       1.0000 0.11200  0.05400  0.31900  Biso   1.000  C
  Cd3      1.0000 0.38020  0.14560  0.06220  Biso   1.000  Cd
  Cd4      1.0000 0.20790  0.37710  0.89990  Biso   1.000  Cd
  C10      1.0000 0.33800  0.03500  0.00300  Biso   1.000  C
  C11      1.0000 0.07800  0.33300  0.93700  Biso   1.000  C
  C12      1.0000 0.33800  0.15000  0.19600  Biso   1.000  C
  C13      1.0000 0.27000  0.28400  0.97000  Biso   1.000  C
  C14      1.0000 0.31200  0.24100  0.00500  Biso   1.000  C
  C15      1.0000 0.01300  0.33500  0.94000  Biso   1.000  C
  C16      1.0000 0.18100  0.35900  0.76600  Biso   1.000  C
  C17      1.0000 0.18200  0.47900  0.97500  Biso   1.000  C
  N2       1.0000 0.33100  0.43200  0.85800  Biso   1.000  N
  C18      1.0000 0.38800  0.44600  0.81900  Biso   1.000  C
  Cd5      1.0000 0.88020  0.35440  0.93780  Biso   1.000  Cd
  Cd6      1.0000 0.70790  0.12290  0.10010  Biso   1.000  Cd
  C19      1.0000 0.83800  0.46500  0.99700  Biso   1.000  C
  C20      1.0000 0.57800  0.16700  0.06300  Biso   1.000  C
  C21      1.0000 0.83800  0.35000  0.80400  Biso   1.000  C
  C22      1.0000 0.77000  0.21600  0.03000  Biso   1.000  C
  C23      1.0000 0.81200  0.25900  0.99500  Biso   1.000  C
  C24      1.0000 0.51300  0.16500  0.06000  Biso   1.000  C
  C25      1.0000 0.68100  0.14100  0.23400  Biso   1.000  C
  C26      1.0000 0.68200  0.02100  0.02500  Biso   1.000  C
  N3       1.0000 0.83100  0.06800  0.14200  Biso   1.000  N
  C27      1.0000 0.88800  0.05400  0.18100  Biso   1.000  C
  Cd7      1.0000 0.61980  0.14560  0.43780  Biso   1.000  Cd
  Cd8      1.0000 0.79210  0.37710  0.60010  Biso   1.000  Cd
  C28      1.0000 0.66200  0.03500  0.49700  Biso   1.000  C
  C29      1.0000 0.92200  0.33300  0.56300  Biso   1.000  C
  C30      1.0000 0.66200  0.15000  0.30400  Biso   1.000  C
  C31      1.0000 0.73000  0.28400  0.53000  Biso   1.000  C
  C32      1.0000 0.68800  0.24100  0.49500  Biso   1.000  C
  C33      1.0000 0.98700  0.33500  0.56000  Biso   1.000  C
  C34      1.0000 0.81900  0.35900  0.73400  Biso   1.000  C
  C35      1.0000 0.81800  0.47900  0.52500  Biso   1.000  C
  N4       1.0000 0.66900  0.43200  0.64200  Biso   1.000  N
  C36      1.0000 0.61200  0.44600  0.68100  Biso   1.000  C
  Cd9      1.0000 0.88020  0.64560  0.43780  Biso   1.000  Cd
  Cd10     1.0000 0.70790  0.87710  0.60010  Biso   1.000  Cd
  C37      1.0000 0.83800  0.53500  0.49700  Biso   1.000  C
  C38      1.0000 0.57800  0.83300  0.56300  Biso   1.000  C
  C39      1.0000 0.83800  0.65000  0.30400  Biso   1.000  C
  C40      1.0000 0.77000  0.78400  0.53000  Biso   1.000  C
  C41      1.0000 0.81200  0.74100  0.49500  Biso   1.000  C
  C42      1.0000 0.51300  0.83500  0.56000  Biso   1.000  C
  C43      1.0000 0.68100  0.85900  0.73400  Biso   1.000  C
  C44      1.0000 0.68200  0.97900  0.52500  Biso   1.000  C
  N5       1.0000 0.83100  0.93200  0.64200  Biso   1.000  N
  C45      1.0000 0.88800  0.94600  0.68100  Biso   1.000  C
  Cd11     1.0000 0.61980  0.85440  0.93780  Biso   1.000  Cd
  Cd12     1.0000 0.79210  0.62290  0.10010  Biso   1.000  Cd
  C46      1.0000 0.66200  0.96500  0.99700  Biso   1.000  C
  C47      1.0000 0.92200  0.66700  0.06300  Biso   1.000  C
  C48      1.0000 0.66200  0.85000  0.80400  Biso   1.000  C
  C49      1.0000 0.73000  0.71600  0.03000  Biso   1.000  C
  C50      1.0000 0.68800  0.75900  0.99500  Biso   1.000  C
  C51      1.0000 0.98700  0.66500  0.06000  Biso   1.000  C
  C52      1.0000 0.81900  0.64100  0.23400  Biso   1.000  C
  C53      1.0000 0.81800  0.52100  0.02500  Biso   1.000  C
  N6       1.0000 0.66900  0.56800  0.14200  Biso   1.000  N
  C54      1.0000 0.61200  0.55400  0.18100  Biso   1.000  C
  Cd13     1.0000 0.11980  0.64560  0.06220  Biso   1.000  Cd
  Cd14     1.0000 0.29210  0.87710  0.89990  Biso   1.000  Cd
  C55      1.0000 0.16200  0.53500  0.00300  Biso   1.000  C
  C56      1.0000 0.42200  0.83300  0.93700  Biso   1.000  C
  C57      1.0000 0.16200  0.65000  0.19600  Biso   1.000  C
  C58      1.0000 0.23000  0.78400  0.97000  Biso   1.000  C
  C59      1.0000 0.18800  0.74100  0.00500  Biso   1.000  C
  C60      1.0000 0.48700  0.83500  0.94000  Biso   1.000  C
  C61      1.0000 0.31900  0.85900  0.76600  Biso   1.000  C
  C62      1.0000 0.31800  0.97900  0.97500  Biso   1.000  C
  N7       1.0000 0.16900  0.93200  0.85800  Biso   1.000  N
  C63      1.0000 0.11200  0.94600  0.81900  Biso   1.000  C
  Cd15     1.0000 0.38020  0.85440  0.56220  Biso   1.000  Cd
  Cd16     1.0000 0.20790  0.62290  0.39990  Biso   1.000  Cd
  C64      1.0000 0.33800  0.96500  0.50300  Biso   1.000  C
  C65      1.0000 0.07800  0.66700  0.43700  Biso   1.000  C
  C66      1.0000 0.33800  0.85000  0.69600  Biso   1.000  C
  C67      1.0000 0.27000  0.71600  0.47000  Biso   1.000  C
  C68      1.0000 0.31200  0.75900  0.50500  Biso   1.000  C
  C69      1.0000 0.01300  0.66500  0.44000  Biso   1.000  C
  C70      1.0000 0.18100  0.64100  0.26600  Biso   1.000  C
  C71      1.0000 0.18200  0.52100  0.47500  Biso   1.000  C
  N8       1.0000 0.33100  0.56800  0.35800  Biso   1.000  N
  C72      1.0000 0.38800  0.55400  0.31900  Biso   1.000  C
  Cd17     1.0000 0.00000  0.04750  0.25000  Biso   1.000  Cd
  Cd18     1.0000 0.50000  0.45250  0.75000  Biso   1.000  Cd
  Cd19     1.0000 0.00000  0.95250  0.75000  Biso   1.000  Cd
  Cd20     1.0000 0.50000  0.54750  0.25000  Biso   1.000  Cd
