data_image0
_cell_length_a       12.622
_cell_length_b       8.1157
_cell_length_c       23.634
_cell_angle_alpha    90
_cell_angle_beta     105.34
_cell_angle_gamma    90

_symmetry_space_group_name_H-M    "P 1"
_symmetry_int_tables_number       1

loop_
  _symmetry_equiv_pos_as_xyz
  'x, y, z'

loop_
  _atom_site_label
  _atom_site_occupancy
  _atom_site_fract_x
  _atom_site_fract_y
  _atom_site_fract_z
  _atom_site_thermal_displace_type
  _atom_site_B_iso_or_equiv
  _atom_site_type_symbol
  Bi1      1.0000 0.40646  0.17291  0.13163  Biso   1.000  Bi
  Sm1      1.0000 0.09413  0.99898  0.88543  Biso   1.000  Sm
  O1       1.0000 0.33050  0.09240  0.02658  Biso   1.000  O
  O2       1.0000 0.21080  0.90480  0.97881  Biso   1.000  O
  O3       1.0000 0.59360  0.10090  0.16033  Biso   1.000  O
  O4       1.0000 0.72340  0.98750  0.12525  Biso   1.000  O
  O5       1.0000 0.48920  0.29910  0.22986  Biso   1.000  O
  O6       1.0000 0.54870  0.25920  0.32678  Biso   1.000  O
  O7       1.0000 0.22120  0.07040  0.12060  Biso   1.000  O
  O8       1.0000 0.09560  0.04570  0.17155  Biso   1.000  O
  N1       1.0000 0.44000  0.88050  0.10891  Biso   1.000  N
  N2       1.0000 0.38730  0.99930  0.21460  Biso   1.000  N
  C1       1.0000 0.34650  0.81490  0.06240  Biso   1.000  C
  H1       1.0000 0.29160  0.76670  0.08070  Biso   1.000  H
  H2       1.0000 0.37320  0.72600  0.04100  Biso   1.000  H
  C2       1.0000 0.29220  0.94750  0.01937  Biso   1.000  C
  C3       1.0000 0.54110  0.88870  0.08854  Biso   1.000  C
  H3       1.0000 0.52270  0.93130  0.04790  Biso   1.000  H
  H4       1.0000 0.57160  0.77630  0.08830  Biso   1.000  H
  C4       1.0000 0.62720  0.99890  0.12751  Biso   1.000  C
  C5       1.0000 0.46060  0.77840  0.16322  Biso   1.000  C
  H5       1.0000 0.53670  0.79680  0.18730  Biso   1.000  H
  H6       1.0000 0.45280  0.66030  0.15240  Biso   1.000  H
  C6       1.0000 0.38040  0.82200  0.19889  Biso   1.000  C
  H7       1.0000 0.30470  0.79560  0.17590  Biso   1.000  H
  H8       1.0000 0.39700  0.75480  0.23510  Biso   1.000  H
  C7       1.0000 0.47800  0.02890  0.26754  Biso   1.000  C
  H9       1.0000 0.54350  0.96600  0.26450  Biso   1.000  H
  H10      1.0000 0.45640  0.98860  0.30240  Biso   1.000  H
  C8       1.0000 0.50690  0.21040  0.27532  Biso   1.000  C
  C9       1.0000 0.28240  0.05390  0.22539  Biso   1.000  C
  H11      1.0000 0.29150  0.16560  0.24290  Biso   1.000  H
  H12      1.0000 0.26160  0.97800  0.25340  Biso   1.000  H
  C10      1.0000 0.19200  0.05640  0.16790  Biso   1.000  C
  N3       1.0000 0.56710  0.84110  0.42340  Biso   1.000  N
  O9       1.0000 0.61290  0.81500  0.38340  Biso   1.000  O
  O10      1.0000 0.50860  0.72800  0.43460  Biso   1.000  O
  O11      1.0000 0.57590  0.97320  0.44880  Biso   1.000  O
  O12      1.0000 0.13780  0.70100  0.88290  Biso   1.000  O
  O13      1.0000 0.98800  0.82820  0.94500  Biso   1.000  O
  O14      1.0000 0.54840  0.00100  0.46110  Biso   1.000  O
  Bi2      1.0000 0.09354  0.67291  0.36837  Biso   1.000  Bi
  Sm2      1.0000 0.40587  0.49898  0.61457  Biso   1.000  Sm
  O15      1.0000 0.16950  0.59240  0.47342  Biso   1.000  O
  O16      1.0000 0.28920  0.40480  0.52119  Biso   1.000  O
  O17      1.0000 0.90640  0.60090  0.33967  Biso   1.000  O
  O18      1.0000 0.77660  0.48750  0.37475  Biso   1.000  O
  O19      1.0000 0.01080  0.79910  0.27014  Biso   1.000  O
  O20      1.0000 0.95130  0.75920  0.17322  Biso   1.000  O
  O21      1.0000 0.27880  0.57040  0.37940  Biso   1.000  O
  O22      1.0000 0.40440  0.54570  0.32845  Biso   1.000  O
  N4       1.0000 0.06000  0.38050  0.39109  Biso   1.000  N
  N5       1.0000 0.11270  0.49930  0.28540  Biso   1.000  N
  C11      1.0000 0.15350  0.31490  0.43760  Biso   1.000  C
  H13      1.0000 0.20840  0.26670  0.41930  Biso   1.000  H
  H14      1.0000 0.12680  0.22600  0.45900  Biso   1.000  H
  C12      1.0000 0.20780  0.44750  0.48063  Biso   1.000  C
  C13      1.0000 0.95890  0.38870  0.41146  Biso   1.000  C
  H15      1.0000 0.97730  0.43130  0.45210  Biso   1.000  H
  H16      1.0000 0.92840  0.27630  0.41170  Biso   1.000  H
  C14      1.0000 0.87280  0.49890  0.37249  Biso   1.000  C
  C15      1.0000 0.03940  0.27840  0.33678  Biso   1.000  C
  H17      1.0000 0.96330  0.29680  0.31270  Biso   1.000  H
  H18      1.0000 0.04720  0.16030  0.34760  Biso   1.000  H
  C16      1.0000 0.11960  0.32200  0.30111  Biso   1.000  C
  H19      1.0000 0.19530  0.29560  0.32410  Biso   1.000  H
  H20      1.0000 0.10300  0.25480  0.26490  Biso   1.000  H
  C17      1.0000 0.02200  0.52890  0.23246  Biso   1.000  C
  H21      1.0000 0.95650  0.46600  0.23550  Biso   1.000  H
  H22      1.0000 0.04360  0.48860  0.19760  Biso   1.000  H
  C18      1.0000 0.99310  0.71040  0.22468  Biso   1.000  C
  C19      1.0000 0.21760  0.55390  0.27461  Biso   1.000  C
  H23      1.0000 0.20850  0.66560  0.25710  Biso   1.000  H
  H24      1.0000 0.23840  0.47800  0.24660  Biso   1.000  H
  C20      1.0000 0.30800  0.55640  0.33210  Biso   1.000  C
  N6       1.0000 0.93290  0.34110  0.07660  Biso   1.000  N
  O23      1.0000 0.88710  0.31500  0.11660  Biso   1.000  O
  O24      1.0000 0.99140  0.22800  0.06540  Biso   1.000  O
  O25      1.0000 0.92410  0.47320  0.05120  Biso   1.000  O
  O26      1.0000 0.36220  0.20100  0.61710  Biso   1.000  O
  O27      1.0000 0.51200  0.32820  0.55500  Biso   1.000  O
  O28      1.0000 0.95160  0.50100  0.03890  Biso   1.000  O
  Bi3      1.0000 0.59354  0.82709  0.86837  Biso   1.000  Bi
  Sm3      1.0000 0.90587  0.00102  0.11457  Biso   1.000  Sm
  O29      1.0000 0.66950  0.90760  0.97342  Biso   1.000  O
  O30      1.0000 0.78920  0.09520  0.02119  Biso   1.000  O
  O31      1.0000 0.40640  0.89910  0.83967  Biso   1.000  O
  O32      1.0000 0.27660  0.01250  0.87475  Biso   1.000  O
  O33      1.0000 0.51080  0.70090  0.77014  Biso   1.000  O
  O34      1.0000 0.45130  0.74080  0.67322  Biso   1.000  O
  O35      1.0000 0.77880  0.92960  0.87940  Biso   1.000  O
  O36      1.0000 0.90440  0.95430  0.82845  Biso   1.000  O
  N7       1.0000 0.56000  0.11950  0.89109  Biso   1.000  N
  N8       1.0000 0.61270  0.00070  0.78540  Biso   1.000  N
  C21      1.0000 0.65350  0.18510  0.93760  Biso   1.000  C
  H25      1.0000 0.70840  0.23330  0.91930  Biso   1.000  H
  H26      1.0000 0.62680  0.27400  0.95900  Biso   1.000  H
  C22      1.0000 0.70780  0.05250  0.98063  Biso   1.000  C
  C23      1.0000 0.45890  0.11130  0.91146  Biso   1.000  C
  H27      1.0000 0.47730  0.06870  0.95210  Biso   1.000  H
  H28      1.0000 0.42840  0.22370  0.91170  Biso   1.000  H
  C24      1.0000 0.37280  0.00110  0.87249  Biso   1.000  C
  C25      1.0000 0.53940  0.22160  0.83678  Biso   1.000  C
  H29      1.0000 0.46330  0.20320  0.81270  Biso   1.000  H
  H30      1.0000 0.54720  0.33970  0.84760  Biso   1.000  H
  C26      1.0000 0.61960  0.17800  0.80111  Biso   1.000  C
  H31      1.0000 0.69530  0.20440  0.82410  Biso   1.000  H
  H32      1.0000 0.60300  0.24520  0.76490  Biso   1.000  H
  C27      1.0000 0.52200  0.97110  0.73246  Biso   1.000  C
  H33      1.0000 0.45650  0.03400  0.73550  Biso   1.000  H
  H34      1.0000 0.54360  0.01140  0.69760  Biso   1.000  H
  C28      1.0000 0.49310  0.78960  0.72468  Biso   1.000  C
  C29      1.0000 0.71760  0.94610  0.77461  Biso   1.000  C
  H35      1.0000 0.70850  0.83440  0.75710  Biso   1.000  H
  H36      1.0000 0.73840  0.02200  0.74660  Biso   1.000  H
  C30      1.0000 0.80800  0.94360  0.83210  Biso   1.000  C
  N9       1.0000 0.43290  0.15890  0.57660  Biso   1.000  N
  O37      1.0000 0.38710  0.18500  0.61660  Biso   1.000  O
  O38      1.0000 0.49140  0.27200  0.56540  Biso   1.000  O
  O39      1.0000 0.42410  0.02680  0.55120  Biso   1.000  O
  O40      1.0000 0.86220  0.29900  0.11710  Biso   1.000  O
  O41      1.0000 0.01200  0.17180  0.05500  Biso   1.000  O
  O42      1.0000 0.45160  0.99900  0.53890  Biso   1.000  O
  Bi4      1.0000 0.90646  0.32709  0.63163  Biso   1.000  Bi
  Sm4      1.0000 0.59413  0.50102  0.38543  Biso   1.000  Sm
  O43      1.0000 0.83050  0.40760  0.52658  Biso   1.000  O
  O44      1.0000 0.71080  0.59520  0.47881  Biso   1.000  O
  O45      1.0000 0.09360  0.39910  0.66033  Biso   1.000  O
  O46      1.0000 0.22340  0.51250  0.62525  Biso   1.000  O
  O47      1.0000 0.98920  0.20090  0.72986  Biso   1.000  O
  O48      1.0000 0.04870  0.24080  0.82678  Biso   1.000  O
  O49      1.0000 0.72120  0.42960  0.62060  Biso   1.000  O
  O50      1.0000 0.59560  0.45430  0.67155  Biso   1.000  O
  N10      1.0000 0.94000  0.61950  0.60891  Biso   1.000  N
  N11      1.0000 0.88730  0.50070  0.71460  Biso   1.000  N
  C31      1.0000 0.84650  0.68510  0.56240  Biso   1.000  C
  H37      1.0000 0.79160  0.73330  0.58070  Biso   1.000  H
  H38      1.0000 0.87320  0.77400  0.54100  Biso   1.000  H
  C32      1.0000 0.79220  0.55250  0.51937  Biso   1.000  C
  C33      1.0000 0.04110  0.61130  0.58854  Biso   1.000  C
  H39      1.0000 0.02270  0.56870  0.54790  Biso   1.000  H
  H40      1.0000 0.07160  0.72370  0.58830  Biso   1.000  H
  C34      1.0000 0.12720  0.50110  0.62751  Biso   1.000  C
  C35      1.0000 0.96060  0.72160  0.66322  Biso   1.000  C
  H41      1.0000 0.03670  0.70320  0.68730  Biso   1.000  H
  H42      1.0000 0.95280  0.83970  0.65240  Biso   1.000  H
  C36      1.0000 0.88040  0.67800  0.69889  Biso   1.000  C
  H43      1.0000 0.80470  0.70440  0.67590  Biso   1.000  H
  H44      1.0000 0.89700  0.74520  0.73510  Biso   1.000  H
  C37      1.0000 0.97800  0.47110  0.76754  Biso   1.000  C
  H45      1.0000 0.04350  0.53400  0.76450  Biso   1.000  H
  H46      1.0000 0.95640  0.51140  0.80240  Biso   1.000  H
  C38      1.0000 0.00690  0.28960  0.77532  Biso   1.000  C
  C39      1.0000 0.78240  0.44610  0.72539  Biso   1.000  C
  H47      1.0000 0.79150  0.33440  0.74290  Biso   1.000  H
  H48      1.0000 0.76160  0.52200  0.75340  Biso   1.000  H
  C40      1.0000 0.69200  0.44360  0.66790  Biso   1.000  C
  N12      1.0000 0.06710  0.65890  0.92340  Biso   1.000  N
  O51      1.0000 0.11290  0.68500  0.88340  Biso   1.000  O
  O52      1.0000 0.00860  0.77200  0.93460  Biso   1.000  O
  O53      1.0000 0.07590  0.52680  0.94880  Biso   1.000  O
  O54      1.0000 0.63780  0.79900  0.38290  Biso   1.000  O
  O55      1.0000 0.48800  0.67180  0.44500  Biso   1.000  O
  O56      1.0000 0.04840  0.49900  0.96110  Biso   1.000  O
