data_image0
_cell_length_a       24.9961
_cell_length_b       24.9961
_cell_length_c       7.4414
_cell_angle_alpha    90
_cell_angle_beta     90
_cell_angle_gamma    90

_symmetry_space_group_name_H-M    "P 1"
_symmetry_int_tables_number       1

loop_
  _symmetry_equiv_pos_as_xyz
  'x, y, z'

loop_
  _atom_site_label
  _atom_site_occupancy
  _atom_site_fract_x
  _atom_site_fract_y
  _atom_site_fract_z
  _atom_site_thermal_displace_type
  _atom_site_B_iso_or_equiv
  _atom_site_type_symbol
  C1       1.0000 0.47230  0.38740  0.37750  Biso   1.000  C
  H1       1.0000 0.45300  0.40660  0.28850  Biso   1.000  H
  C2       1.0000 0.47050  0.33290  0.37390  Biso   1.000  C
  H2       1.0000 0.44940  0.31490  0.28670  Biso   1.000  H
  C3       1.0000 0.45600  0.11320  0.44040  Biso   1.000  C
  H3       1.0000 0.42550  0.13210  0.39830  Biso   1.000  H
  C4       1.0000 0.45560  0.05830  0.44120  Biso   1.000  C
  H4       1.0000 0.42470  0.03970  0.40110  Biso   1.000  H
  C5       1.0000 0.52770  0.61260  0.37750  Biso   1.000  C
  H5       1.0000 0.54700  0.59340  0.28850  Biso   1.000  H
  C6       1.0000 0.52950  0.66710  0.37390  Biso   1.000  C
  H6       1.0000 0.55060  0.68510  0.28670  Biso   1.000  H
  C7       1.0000 0.54400  0.88680  0.44040  Biso   1.000  C
  H7       1.0000 0.57450  0.86790  0.39830  Biso   1.000  H
  C8       1.0000 0.54440  0.94170  0.44120  Biso   1.000  C
  H8       1.0000 0.57530  0.96030  0.40110  Biso   1.000  H
  C9       1.0000 0.61260  0.47230  0.37750  Biso   1.000  C
  H9       1.0000 0.59340  0.45300  0.28850  Biso   1.000  H
  C10      1.0000 0.66710  0.47050  0.37390  Biso   1.000  C
  H10      1.0000 0.68510  0.44940  0.28670  Biso   1.000  H
  C11      1.0000 0.88680  0.45600  0.44040  Biso   1.000  C
  H11      1.0000 0.86790  0.42550  0.39830  Biso   1.000  H
  C12      1.0000 0.94170  0.45560  0.44120  Biso   1.000  C
  H12      1.0000 0.96030  0.42470  0.40110  Biso   1.000  H
  C13      1.0000 0.38740  0.52770  0.37750  Biso   1.000  C
  H13      1.0000 0.40660  0.54700  0.28850  Biso   1.000  H
  C14      1.0000 0.33290  0.52950  0.37390  Biso   1.000  C
  H14      1.0000 0.31490  0.55060  0.28670  Biso   1.000  H
  C15      1.0000 0.11320  0.54400  0.44040  Biso   1.000  C
  H15      1.0000 0.13210  0.57450  0.39830  Biso   1.000  H
  C16      1.0000 0.05830  0.54440  0.44120  Biso   1.000  C
  H16      1.0000 0.03970  0.57530  0.40110  Biso   1.000  H
  C17      1.0000 0.52770  0.38740  0.62250  Biso   1.000  C
  H17      1.0000 0.54700  0.40660  0.71150  Biso   1.000  H
  C18      1.0000 0.52950  0.33290  0.62610  Biso   1.000  C
  H18      1.0000 0.55060  0.31490  0.71330  Biso   1.000  H
  C19      1.0000 0.54400  0.11320  0.55960  Biso   1.000  C
  H19      1.0000 0.57450  0.13210  0.60170  Biso   1.000  H
  C20      1.0000 0.54440  0.05830  0.55880  Biso   1.000  C
  H20      1.0000 0.57530  0.03970  0.59890  Biso   1.000  H
  C21      1.0000 0.47230  0.61260  0.62250  Biso   1.000  C
  H21      1.0000 0.45300  0.59340  0.71150  Biso   1.000  H
  C22      1.0000 0.47050  0.66710  0.62610  Biso   1.000  C
  H22      1.0000 0.44940  0.68510  0.71330  Biso   1.000  H
  C23      1.0000 0.45600  0.88680  0.55960  Biso   1.000  C
  H23      1.0000 0.42550  0.86790  0.60170  Biso   1.000  H
  C24      1.0000 0.45560  0.94170  0.55880  Biso   1.000  C
  H24      1.0000 0.42470  0.96030  0.59890  Biso   1.000  H
  C25      1.0000 0.38740  0.47230  0.62250  Biso   1.000  C
  H25      1.0000 0.40660  0.45300  0.71150  Biso   1.000  H
  C26      1.0000 0.33290  0.47050  0.62610  Biso   1.000  C
  H26      1.0000 0.31490  0.44940  0.71330  Biso   1.000  H
  C27      1.0000 0.11320  0.45600  0.55960  Biso   1.000  C
  H27      1.0000 0.13210  0.42550  0.60170  Biso   1.000  H
  C28      1.0000 0.05830  0.45560  0.55880  Biso   1.000  C
  H28      1.0000 0.03970  0.42470  0.59890  Biso   1.000  H
  C29      1.0000 0.61260  0.52770  0.62250  Biso   1.000  C
  H29      1.0000 0.59340  0.54700  0.71150  Biso   1.000  H
  C30      1.0000 0.66710  0.52950  0.62610  Biso   1.000  C
  H30      1.0000 0.68510  0.55060  0.71330  Biso   1.000  H
  C31      1.0000 0.88680  0.54400  0.55960  Biso   1.000  C
  H31      1.0000 0.86790  0.57450  0.60170  Biso   1.000  H
  C32      1.0000 0.94170  0.54440  0.55880  Biso   1.000  C
  H32      1.0000 0.96030  0.57530  0.59890  Biso   1.000  H
  C33      1.0000 0.52770  0.61260  0.62250  Biso   1.000  C
  H33      1.0000 0.54700  0.59340  0.71150  Biso   1.000  H
  C34      1.0000 0.52950  0.66710  0.62610  Biso   1.000  C
  H34      1.0000 0.55060  0.68510  0.71330  Biso   1.000  H
  C35      1.0000 0.54400  0.88680  0.55960  Biso   1.000  C
  H35      1.0000 0.57450  0.86790  0.60170  Biso   1.000  H
  C36      1.0000 0.54440  0.94170  0.55880  Biso   1.000  C
  H36      1.0000 0.57530  0.96030  0.59890  Biso   1.000  H
  C37      1.0000 0.47230  0.38740  0.62250  Biso   1.000  C
  H37      1.0000 0.45300  0.40660  0.71150  Biso   1.000  H
  C38      1.0000 0.47050  0.33290  0.62610  Biso   1.000  C
  H38      1.0000 0.44940  0.31490  0.71330  Biso   1.000  H
  C39      1.0000 0.45600  0.11320  0.55960  Biso   1.000  C
  H39      1.0000 0.42550  0.13210  0.60170  Biso   1.000  H
  C40      1.0000 0.45560  0.05830  0.55880  Biso   1.000  C
  H40      1.0000 0.42470  0.03970  0.59890  Biso   1.000  H
  C41      1.0000 0.38740  0.52770  0.62250  Biso   1.000  C
  H41      1.0000 0.40660  0.54700  0.71150  Biso   1.000  H
  C42      1.0000 0.33290  0.52950  0.62610  Biso   1.000  C
  H42      1.0000 0.31490  0.55060  0.71330  Biso   1.000  H
  C43      1.0000 0.11320  0.54400  0.55960  Biso   1.000  C
  H43      1.0000 0.13210  0.57450  0.60170  Biso   1.000  H
  C44      1.0000 0.05830  0.54440  0.55880  Biso   1.000  C
  H44      1.0000 0.03970  0.57530  0.59890  Biso   1.000  H
  C45      1.0000 0.61260  0.47230  0.62250  Biso   1.000  C
  H45      1.0000 0.59340  0.45300  0.71150  Biso   1.000  H
  C46      1.0000 0.66710  0.47050  0.62610  Biso   1.000  C
  H46      1.0000 0.68510  0.44940  0.71330  Biso   1.000  H
  C47      1.0000 0.88680  0.45600  0.55960  Biso   1.000  C
  H47      1.0000 0.86790  0.42550  0.60170  Biso   1.000  H
  C48      1.0000 0.94170  0.45560  0.55880  Biso   1.000  C
  H48      1.0000 0.96030  0.42470  0.59890  Biso   1.000  H
  C49      1.0000 0.47230  0.61260  0.37750  Biso   1.000  C
  H49      1.0000 0.45300  0.59340  0.28850  Biso   1.000  H
  C50      1.0000 0.47050  0.66710  0.37390  Biso   1.000  C
  H50      1.0000 0.44940  0.68510  0.28670  Biso   1.000  H
  C51      1.0000 0.45600  0.88680  0.44040  Biso   1.000  C
  H51      1.0000 0.42550  0.86790  0.39830  Biso   1.000  H
  C52      1.0000 0.45560  0.94170  0.44120  Biso   1.000  C
  H52      1.0000 0.42470  0.96030  0.40110  Biso   1.000  H
  C53      1.0000 0.52770  0.38740  0.37750  Biso   1.000  C
  H53      1.0000 0.54700  0.40660  0.28850  Biso   1.000  H
  C54      1.0000 0.52950  0.33290  0.37390  Biso   1.000  C
  H54      1.0000 0.55060  0.31490  0.28670  Biso   1.000  H
  C55      1.0000 0.54400  0.11320  0.44040  Biso   1.000  C
  H55      1.0000 0.57450  0.13210  0.39830  Biso   1.000  H
  C56      1.0000 0.54440  0.05830  0.44120  Biso   1.000  C
  H56      1.0000 0.57530  0.03970  0.40110  Biso   1.000  H
  C57      1.0000 0.61260  0.52770  0.37750  Biso   1.000  C
  H57      1.0000 0.59340  0.54700  0.28850  Biso   1.000  H
  C58      1.0000 0.66710  0.52950  0.37390  Biso   1.000  C
  H58      1.0000 0.68510  0.55060  0.28670  Biso   1.000  H
  C59      1.0000 0.88680  0.54400  0.44040  Biso   1.000  C
  H59      1.0000 0.86790  0.57450  0.39830  Biso   1.000  H
  C60      1.0000 0.94170  0.54440  0.44120  Biso   1.000  C
  H60      1.0000 0.96030  0.57530  0.40110  Biso   1.000  H
  C61      1.0000 0.38740  0.47230  0.37750  Biso   1.000  C
  H61      1.0000 0.40660  0.45300  0.28850  Biso   1.000  H
  C62      1.0000 0.33290  0.47050  0.37390  Biso   1.000  C
  H62      1.0000 0.31490  0.44940  0.28670  Biso   1.000  H
  C63      1.0000 0.11320  0.45600  0.44040  Biso   1.000  C
  H63      1.0000 0.13210  0.42550  0.39830  Biso   1.000  H
  C64      1.0000 0.05830  0.45560  0.44120  Biso   1.000  C
  H64      1.0000 0.03970  0.42470  0.40110  Biso   1.000  H
  Zn1      1.0000 0.50000  0.50000  0.50000  Biso   1.000  Zn
  Si1      1.0000 0.50000  0.50000  0.00000  Biso   1.000  Si
  F1       1.0000 0.50000  0.50000  0.22770  Biso   1.000  F
  F2       1.0000 0.50000  0.50000  0.77230  Biso   1.000  F
  N1       1.0000 0.50000  0.41503  0.50000  Biso   1.000  N
  C65      1.0000 0.50000  0.30390  0.50000  Biso   1.000  C
  C66      1.0000 0.50000  0.24630  0.50000  Biso   1.000  C
  C67      1.0000 0.50000  0.19900  0.50000  Biso   1.000  C
  C68      1.0000 0.50000  0.14120  0.50000  Biso   1.000  C
  C69      1.0000 0.50000  0.02970  0.50000  Biso   1.000  C
  N2       1.0000 0.50000  0.58497  0.50000  Biso   1.000  N
  C70      1.0000 0.50000  0.69610  0.50000  Biso   1.000  C
  C71      1.0000 0.50000  0.75370  0.50000  Biso   1.000  C
  C72      1.0000 0.50000  0.80100  0.50000  Biso   1.000  C
  C73      1.0000 0.50000  0.85880  0.50000  Biso   1.000  C
  C74      1.0000 0.50000  0.97030  0.50000  Biso   1.000  C
  N3       1.0000 0.58497  0.50000  0.50000  Biso   1.000  N
  C75      1.0000 0.69610  0.50000  0.50000  Biso   1.000  C
  C76      1.0000 0.75370  0.50000  0.50000  Biso   1.000  C
  C77      1.0000 0.80100  0.50000  0.50000  Biso   1.000  C
  C78      1.0000 0.85880  0.50000  0.50000  Biso   1.000  C
  C79      1.0000 0.97030  0.50000  0.50000  Biso   1.000  C
  N4       1.0000 0.41503  0.50000  0.50000  Biso   1.000  N
  C80      1.0000 0.30390  0.50000  0.50000  Biso   1.000  C
  C81      1.0000 0.24630  0.50000  0.50000  Biso   1.000  C
  C82      1.0000 0.19900  0.50000  0.50000  Biso   1.000  C
  C83      1.0000 0.14120  0.50000  0.50000  Biso   1.000  C
  C84      1.0000 0.02970  0.50000  0.50000  Biso   1.000  C
  F3       1.0000 0.54544  0.54544  0.00000  Biso   1.000  F
  F4       1.0000 0.45456  0.45456  0.00000  Biso   1.000  F
  F5       1.0000 0.45456  0.54544  0.00000  Biso   1.000  F
  F6       1.0000 0.54544  0.45456  0.00000  Biso   1.000  F
  C85      1.0000 0.97230  0.88740  0.87750  Biso   1.000  C
  H65      1.0000 0.95300  0.90660  0.78850  Biso   1.000  H
  C86      1.0000 0.97050  0.83290  0.87390  Biso   1.000  C
  H66      1.0000 0.94940  0.81490  0.78670  Biso   1.000  H
  C87      1.0000 0.95600  0.61320  0.94040  Biso   1.000  C
  H67      1.0000 0.92550  0.63210  0.89830  Biso   1.000  H
  C88      1.0000 0.95560  0.55830  0.94120  Biso   1.000  C
  H68      1.0000 0.92470  0.53970  0.90110  Biso   1.000  H
  C89      1.0000 0.02770  0.11260  0.87750  Biso   1.000  C
  H69      1.0000 0.04700  0.09340  0.78850  Biso   1.000  H
  C90      1.0000 0.02950  0.16710  0.87390  Biso   1.000  C
  H70      1.0000 0.05060  0.18510  0.78670  Biso   1.000  H
  C91      1.0000 0.04400  0.38680  0.94040  Biso   1.000  C
  H71      1.0000 0.07450  0.36790  0.89830  Biso   1.000  H
  C92      1.0000 0.04440  0.44170  0.94120  Biso   1.000  C
  H72      1.0000 0.07530  0.46030  0.90110  Biso   1.000  H
  C93      1.0000 0.11260  0.97230  0.87750  Biso   1.000  C
  H73      1.0000 0.09340  0.95300  0.78850  Biso   1.000  H
  C94      1.0000 0.16710  0.97050  0.87390  Biso   1.000  C
  H74      1.0000 0.18510  0.94940  0.78670  Biso   1.000  H
  C95      1.0000 0.38680  0.95600  0.94040  Biso   1.000  C
  H75      1.0000 0.36790  0.92550  0.89830  Biso   1.000  H
  C96      1.0000 0.44170  0.95560  0.94120  Biso   1.000  C
  H76      1.0000 0.46030  0.92470  0.90110  Biso   1.000  H
  C97      1.0000 0.88740  0.02770  0.87750  Biso   1.000  C
  H77      1.0000 0.90660  0.04700  0.78850  Biso   1.000  H
  C98      1.0000 0.83290  0.02950  0.87390  Biso   1.000  C
  H78      1.0000 0.81490  0.05060  0.78670  Biso   1.000  H
  C99      1.0000 0.61320  0.04400  0.94040  Biso   1.000  C
  H79      1.0000 0.63210  0.07450  0.89830  Biso   1.000  H
  C100     1.0000 0.55830  0.04440  0.94120  Biso   1.000  C
  H80      1.0000 0.53970  0.07530  0.90110  Biso   1.000  H
  C101     1.0000 0.02770  0.88740  0.12250  Biso   1.000  C
  H81      1.0000 0.04700  0.90660  0.21150  Biso   1.000  H
  C102     1.0000 0.02950  0.83290  0.12610  Biso   1.000  C
  H82      1.0000 0.05060  0.81490  0.21330  Biso   1.000  H
  C103     1.0000 0.04400  0.61320  0.05960  Biso   1.000  C
  H83      1.0000 0.07450  0.63210  0.10170  Biso   1.000  H
  C104     1.0000 0.04440  0.55830  0.05880  Biso   1.000  C
  H84      1.0000 0.07530  0.53970  0.09890  Biso   1.000  H
  C105     1.0000 0.97230  0.11260  0.12250  Biso   1.000  C
  H85      1.0000 0.95300  0.09340  0.21150  Biso   1.000  H
  C106     1.0000 0.97050  0.16710  0.12610  Biso   1.000  C
  H86      1.0000 0.94940  0.18510  0.21330  Biso   1.000  H
  C107     1.0000 0.95600  0.38680  0.05960  Biso   1.000  C
  H87      1.0000 0.92550  0.36790  0.10170  Biso   1.000  H
  C108     1.0000 0.95560  0.44170  0.05880  Biso   1.000  C
  H88      1.0000 0.92470  0.46030  0.09890  Biso   1.000  H
  C109     1.0000 0.88740  0.97230  0.12250  Biso   1.000  C
  H89      1.0000 0.90660  0.95300  0.21150  Biso   1.000  H
  C110     1.0000 0.83290  0.97050  0.12610  Biso   1.000  C
  H90      1.0000 0.81490  0.94940  0.21330  Biso   1.000  H
  C111     1.0000 0.61320  0.95600  0.05960  Biso   1.000  C
  H91      1.0000 0.63210  0.92550  0.10170  Biso   1.000  H
  C112     1.0000 0.55830  0.95560  0.05880  Biso   1.000  C
  H92      1.0000 0.53970  0.92470  0.09890  Biso   1.000  H
  C113     1.0000 0.11260  0.02770  0.12250  Biso   1.000  C
  H93      1.0000 0.09340  0.04700  0.21150  Biso   1.000  H
  C114     1.0000 0.16710  0.02950  0.12610  Biso   1.000  C
  H94      1.0000 0.18510  0.05060  0.21330  Biso   1.000  H
  C115     1.0000 0.38680  0.04400  0.05960  Biso   1.000  C
  H95      1.0000 0.36790  0.07450  0.10170  Biso   1.000  H
  C116     1.0000 0.44170  0.04440  0.05880  Biso   1.000  C
  H96      1.0000 0.46030  0.07530  0.09890  Biso   1.000  H
  C117     1.0000 0.02770  0.11260  0.12250  Biso   1.000  C
  H97      1.0000 0.04700  0.09340  0.21150  Biso   1.000  H
  C118     1.0000 0.02950  0.16710  0.12610  Biso   1.000  C
  H98      1.0000 0.05060  0.18510  0.21330  Biso   1.000  H
  C119     1.0000 0.04400  0.38680  0.05960  Biso   1.000  C
  H99      1.0000 0.07450  0.36790  0.10170  Biso   1.000  H
  C120     1.0000 0.04440  0.44170  0.05880  Biso   1.000  C
  H100     1.0000 0.07530  0.46030  0.09890  Biso   1.000  H
  C121     1.0000 0.97230  0.88740  0.12250  Biso   1.000  C
  H101     1.0000 0.95300  0.90660  0.21150  Biso   1.000  H
  C122     1.0000 0.97050  0.83290  0.12610  Biso   1.000  C
  H102     1.0000 0.94940  0.81490  0.21330  Biso   1.000  H
  C123     1.0000 0.95600  0.61320  0.05960  Biso   1.000  C
  H103     1.0000 0.92550  0.63210  0.10170  Biso   1.000  H
  C124     1.0000 0.95560  0.55830  0.05880  Biso   1.000  C
  H104     1.0000 0.92470  0.53970  0.09890  Biso   1.000  H
  C125     1.0000 0.88740  0.02770  0.12250  Biso   1.000  C
  H105     1.0000 0.90660  0.04700  0.21150  Biso   1.000  H
  C126     1.0000 0.83290  0.02950  0.12610  Biso   1.000  C
  H106     1.0000 0.81490  0.05060  0.21330  Biso   1.000  H
  C127     1.0000 0.61320  0.04400  0.05960  Biso   1.000  C
  H107     1.0000 0.63210  0.07450  0.10170  Biso   1.000  H
  C128     1.0000 0.55830  0.04440  0.05880  Biso   1.000  C
  H108     1.0000 0.53970  0.07530  0.09890  Biso   1.000  H
  C129     1.0000 0.11260  0.97230  0.12250  Biso   1.000  C
  H109     1.0000 0.09340  0.95300  0.21150  Biso   1.000  H
  C130     1.0000 0.16710  0.97050  0.12610  Biso   1.000  C
  H110     1.0000 0.18510  0.94940  0.21330  Biso   1.000  H
  C131     1.0000 0.38680  0.95600  0.05960  Biso   1.000  C
  H111     1.0000 0.36790  0.92550  0.10170  Biso   1.000  H
  C132     1.0000 0.44170  0.95560  0.05880  Biso   1.000  C
  H112     1.0000 0.46030  0.92470  0.09890  Biso   1.000  H
  C133     1.0000 0.97230  0.11260  0.87750  Biso   1.000  C
  H113     1.0000 0.95300  0.09340  0.78850  Biso   1.000  H
  C134     1.0000 0.97050  0.16710  0.87390  Biso   1.000  C
  H114     1.0000 0.94940  0.18510  0.78670  Biso   1.000  H
  C135     1.0000 0.95600  0.38680  0.94040  Biso   1.000  C
  H115     1.0000 0.92550  0.36790  0.89830  Biso   1.000  H
  C136     1.0000 0.95560  0.44170  0.94120  Biso   1.000  C
  H116     1.0000 0.92470  0.46030  0.90110  Biso   1.000  H
  C137     1.0000 0.02770  0.88740  0.87750  Biso   1.000  C
  H117     1.0000 0.04700  0.90660  0.78850  Biso   1.000  H
  C138     1.0000 0.02950  0.83290  0.87390  Biso   1.000  C
  H118     1.0000 0.05060  0.81490  0.78670  Biso   1.000  H
  C139     1.0000 0.04400  0.61320  0.94040  Biso   1.000  C
  H119     1.0000 0.07450  0.63210  0.89830  Biso   1.000  H
  C140     1.0000 0.04440  0.55830  0.94120  Biso   1.000  C
  H120     1.0000 0.07530  0.53970  0.90110  Biso   1.000  H
  C141     1.0000 0.11260  0.02770  0.87750  Biso   1.000  C
  H121     1.0000 0.09340  0.04700  0.78850  Biso   1.000  H
  C142     1.0000 0.16710  0.02950  0.87390  Biso   1.000  C
  H122     1.0000 0.18510  0.05060  0.78670  Biso   1.000  H
  C143     1.0000 0.38680  0.04400  0.94040  Biso   1.000  C
  H123     1.0000 0.36790  0.07450  0.89830  Biso   1.000  H
  C144     1.0000 0.44170  0.04440  0.94120  Biso   1.000  C
  H124     1.0000 0.46030  0.07530  0.90110  Biso   1.000  H
  C145     1.0000 0.88740  0.97230  0.87750  Biso   1.000  C
  H125     1.0000 0.90660  0.95300  0.78850  Biso   1.000  H
  C146     1.0000 0.83290  0.97050  0.87390  Biso   1.000  C
  H126     1.0000 0.81490  0.94940  0.78670  Biso   1.000  H
  C147     1.0000 0.61320  0.95600  0.94040  Biso   1.000  C
  H127     1.0000 0.63210  0.92550  0.89830  Biso   1.000  H
  C148     1.0000 0.55830  0.95560  0.94120  Biso   1.000  C
  H128     1.0000 0.53970  0.92470  0.90110  Biso   1.000  H
  Zn2      1.0000 0.00000  0.00000  0.00000  Biso   1.000  Zn
  Si2      1.0000 0.00000  0.00000  0.50000  Biso   1.000  Si
  F7       1.0000 0.00000  0.00000  0.72770  Biso   1.000  F
  F8       1.0000 0.00000  0.00000  0.27230  Biso   1.000  F
  N5       1.0000 0.00000  0.91503  0.00000  Biso   1.000  N
  C149     1.0000 0.00000  0.80390  0.00000  Biso   1.000  C
  C150     1.0000 0.00000  0.74630  0.00000  Biso   1.000  C
  C151     1.0000 0.00000  0.69900  0.00000  Biso   1.000  C
  C152     1.0000 0.00000  0.64120  0.00000  Biso   1.000  C
  C153     1.0000 0.00000  0.52970  0.00000  Biso   1.000  C
  N6       1.0000 0.00000  0.08497  0.00000  Biso   1.000  N
  C154     1.0000 0.00000  0.19610  0.00000  Biso   1.000  C
  C155     1.0000 0.00000  0.25370  0.00000  Biso   1.000  C
  C156     1.0000 0.00000  0.30100  0.00000  Biso   1.000  C
  C157     1.0000 0.00000  0.35880  0.00000  Biso   1.000  C
  C158     1.0000 0.00000  0.47030  0.00000  Biso   1.000  C
  N7       1.0000 0.08497  0.00000  0.00000  Biso   1.000  N
  C159     1.0000 0.19610  0.00000  0.00000  Biso   1.000  C
  C160     1.0000 0.25370  0.00000  0.00000  Biso   1.000  C
  C161     1.0000 0.30100  0.00000  0.00000  Biso   1.000  C
  C162     1.0000 0.35880  0.00000  0.00000  Biso   1.000  C
  C163     1.0000 0.47030  0.00000  0.00000  Biso   1.000  C
  N8       1.0000 0.91503  0.00000  0.00000  Biso   1.000  N
  C164     1.0000 0.80390  0.00000  0.00000  Biso   1.000  C
  C165     1.0000 0.74630  0.00000  0.00000  Biso   1.000  C
  C166     1.0000 0.69900  0.00000  0.00000  Biso   1.000  C
  C167     1.0000 0.64120  0.00000  0.00000  Biso   1.000  C
  C168     1.0000 0.52970  0.00000  0.00000  Biso   1.000  C
  F9       1.0000 0.04544  0.04544  0.50000  Biso   1.000  F
  F10      1.0000 0.95456  0.95456  0.50000  Biso   1.000  F
  F11      1.0000 0.95456  0.04544  0.50000  Biso   1.000  F
  F12      1.0000 0.04544  0.95456  0.50000  Biso   1.000  F
