data_image0
_cell_length_a       18.618
_cell_length_b       11.259
_cell_length_c       19.86
_cell_angle_alpha    90
_cell_angle_beta     114.96
_cell_angle_gamma    90

_symmetry_space_group_name_H-M    "P 1"
_symmetry_int_tables_number       1

loop_
  _symmetry_equiv_pos_as_xyz
  'x, y, z'

loop_
  _atom_site_label
  _atom_site_occupancy
  _atom_site_fract_x
  _atom_site_fract_y
  _atom_site_fract_z
  _atom_site_thermal_displace_type
  _atom_site_B_iso_or_equiv
  _atom_site_type_symbol
  Ni1      1.0000 0.42077  0.55016  0.04874  Biso   1.000  Ni
  O1       1.0000 0.37210  0.55426  0.93806  Biso   1.000  O
  O2       1.0000 0.46003  0.44311  0.91572  Biso   1.000  O
  O3       1.0000 0.30982  0.45463  0.56227  Biso   1.000  O
  O4       1.0000 0.42838  0.45053  0.65604  Biso   1.000  O
  O5       1.0000 0.10746  0.58890  0.74605  Biso   1.000  O
  O6       1.0000 0.07839  0.55920  0.62639  Biso   1.000  O
  C1       1.0000 0.34216  0.50240  0.81462  Biso   1.000  C
  C2       1.0000 0.37109  0.47640  0.76221  Biso   1.000  C
  H1       1.0000 0.42520  0.45540  0.77780  Biso   1.000  H
  C3       1.0000 0.32036  0.48120  0.68634  Biso   1.000  C
  C4       1.0000 0.23987  0.50880  0.66370  Biso   1.000  C
  H2       1.0000 0.20530  0.51020  0.61230  Biso   1.000  H
  C5       1.0000 0.20990  0.53440  0.71635  Biso   1.000  C
  C6       1.0000 0.26245  0.53180  0.79138  Biso   1.000  C
  H3       1.0000 0.24340  0.55060  0.82760  Biso   1.000  H
  C7       1.0000 0.39654  0.49960  0.89566  Biso   1.000  C
  C8       1.0000 0.35470  0.46040  0.63226  Biso   1.000  C
  C9       1.0000 0.12580  0.56280  0.69415  Biso   1.000  C
  N1       1.0000 0.41878  0.36560  0.05052  Biso   1.000  N
  N2       1.0000 0.42062  0.73410  0.04829  Biso   1.000  N
  C10      1.0000 0.36300  0.30280  0.99468  Biso   1.000  C
  H4       1.0000 0.32310  0.34520  0.95520  Biso   1.000  H
  C11      1.0000 0.36140  0.18130  0.99232  Biso   1.000  C
  H5       1.0000 0.32100  0.14130  0.95190  Biso   1.000  H
  C12      1.0000 0.41950  0.11590  0.04982  Biso   1.000  C
  C13      1.0000 0.47540  0.17950  0.10688  Biso   1.000  C
  H6       1.0000 0.51580  0.13940  0.14720  Biso   1.000  H
  C14      1.0000 0.47240  0.30370  0.10533  Biso   1.000  C
  H7       1.0000 0.51100  0.34590  0.14590  Biso   1.000  H
  C15      1.0000 0.48280  0.79800  0.08910  Biso   1.000  C
  H8       1.0000 0.53030  0.75750  0.11930  Biso   1.000  H
  C16      1.0000 0.48340  0.91960  0.09060  Biso   1.000  C
  H9       1.0000 0.53070  0.95910  0.12240  Biso   1.000  H
  C17      1.0000 0.35410  0.91840  0.00290  Biso   1.000  C
  H10      1.0000 0.30710  0.95730  0.97010  Biso   1.000  H
  C18      1.0000 0.35750  0.79470  0.00480  Biso   1.000  C
  H11      1.0000 0.31180  0.75180  0.97300  Biso   1.000  H
  C19      1.0000 0.41990  0.98550  0.04919  Biso   1.000  C
  C20      1.0000 0.93400  0.34310  0.71450  Biso   1.000  C
  H12      1.0000 0.88610  0.38580  0.68880  Biso   1.000  H
  C21      1.0000 0.93110  0.22240  0.71270  Biso   1.000  C
  H13      1.0000 0.88200  0.18320  0.68600  Biso   1.000  H
  C22      1.0000 0.93700  0.83930  0.70850  Biso   1.000  C
  H14      1.0000 0.89000  0.79780  0.67800  Biso   1.000  H
  C23      1.0000 0.93520  0.96150  0.70680  Biso   1.000  C
  H15      1.0000 0.88820  0.00170  0.67510  Biso   1.000  H
  C24      1.0000 0.45220  0.79750  0.11010  Biso   1.000  C
  H16      1.0000 0.47410  0.75510  0.15570  Biso   1.000  H
  C25      1.0000 0.45590  0.91800  0.11380  Biso   1.000  C
  H17      1.0000 0.48300  0.95640  0.16040  Biso   1.000  H
  C26      1.0000 0.39600  0.92220  0.98570  Biso   1.000  C
  H18      1.0000 0.38050  0.96290  0.93980  Biso   1.000  H
  C27      1.0000 0.39200  0.80110  0.98590  Biso   1.000  C
  H19      1.0000 0.36880  0.76150  0.93940  Biso   1.000  H
  C28      1.0000 0.99540  0.33590  0.80540  Biso   1.000  C
  H20      1.0000 0.99150  0.37670  0.84560  Biso   1.000  H
  C29      1.0000 0.99590  0.21550  0.80770  Biso   1.000  C
  H21      1.0000 0.99350  0.17430  0.84840  Biso   1.000  H
  C30      1.0000 0.98850  0.83630  0.80200  Biso   1.000  C
  H22      1.0000 0.97910  0.79420  0.83900  Biso   1.000  H
  C31      1.0000 0.98980  0.95520  0.80350  Biso   1.000  C
  H23      1.0000 0.98350  0.99440  0.84300  Biso   1.000  H
  Ni2      1.0000 0.57923  0.55016  0.45126  Biso   1.000  Ni
  O7       1.0000 0.62790  0.55426  0.56194  Biso   1.000  O
  O8       1.0000 0.53997  0.44311  0.58428  Biso   1.000  O
  O9       1.0000 0.69018  0.45463  0.93773  Biso   1.000  O
  O10      1.0000 0.57162  0.45053  0.84396  Biso   1.000  O
  O11      1.0000 0.89254  0.58890  0.75395  Biso   1.000  O
  O12      1.0000 0.92161  0.55920  0.87361  Biso   1.000  O
  C32      1.0000 0.65784  0.50240  0.68538  Biso   1.000  C
  C33      1.0000 0.62891  0.47640  0.73779  Biso   1.000  C
  H24      1.0000 0.57480  0.45540  0.72220  Biso   1.000  H
  C34      1.0000 0.67964  0.48120  0.81366  Biso   1.000  C
  C35      1.0000 0.76013  0.50880  0.83630  Biso   1.000  C
  H25      1.0000 0.79470  0.51020  0.88770  Biso   1.000  H
  C36      1.0000 0.79010  0.53440  0.78365  Biso   1.000  C
  C37      1.0000 0.73755  0.53180  0.70862  Biso   1.000  C
  H26      1.0000 0.75660  0.55060  0.67240  Biso   1.000  H
  C38      1.0000 0.60346  0.49960  0.60434  Biso   1.000  C
  C39      1.0000 0.64530  0.46040  0.86774  Biso   1.000  C
  C40      1.0000 0.87420  0.56280  0.80585  Biso   1.000  C
  N3       1.0000 0.58122  0.36560  0.44948  Biso   1.000  N
  N4       1.0000 0.57938  0.73410  0.45171  Biso   1.000  N
  C41      1.0000 0.63700  0.30280  0.50532  Biso   1.000  C
  H27      1.0000 0.67690  0.34520  0.54480  Biso   1.000  H
  C42      1.0000 0.63860  0.18130  0.50768  Biso   1.000  C
  H28      1.0000 0.67900  0.14130  0.54810  Biso   1.000  H
  C43      1.0000 0.58050  0.11590  0.45018  Biso   1.000  C
  C44      1.0000 0.52460  0.17950  0.39312  Biso   1.000  C
  H29      1.0000 0.48420  0.13940  0.35280  Biso   1.000  H
  C45      1.0000 0.52760  0.30370  0.39467  Biso   1.000  C
  H30      1.0000 0.48900  0.34590  0.35410  Biso   1.000  H
  C46      1.0000 0.51720  0.79800  0.41090  Biso   1.000  C
  H31      1.0000 0.46970  0.75750  0.38070  Biso   1.000  H
  C47      1.0000 0.51660  0.91960  0.40940  Biso   1.000  C
  H32      1.0000 0.46930  0.95910  0.37760  Biso   1.000  H
  C48      1.0000 0.64590  0.91840  0.49710  Biso   1.000  C
  H33      1.0000 0.69290  0.95730  0.52990  Biso   1.000  H
  C49      1.0000 0.64250  0.79470  0.49520  Biso   1.000  C
  H34      1.0000 0.68820  0.75180  0.52700  Biso   1.000  H
  C50      1.0000 0.58010  0.98550  0.45081  Biso   1.000  C
  C51      1.0000 0.06600  0.34310  0.78550  Biso   1.000  C
  H35      1.0000 0.11390  0.38580  0.81120  Biso   1.000  H
  C52      1.0000 0.06890  0.22240  0.78730  Biso   1.000  C
  H36      1.0000 0.11800  0.18320  0.81400  Biso   1.000  H
  C53      1.0000 0.06300  0.83930  0.79150  Biso   1.000  C
  H37      1.0000 0.11000  0.79780  0.82200  Biso   1.000  H
  C54      1.0000 0.06480  0.96150  0.79320  Biso   1.000  C
  H38      1.0000 0.11180  0.00170  0.82490  Biso   1.000  H
  C55      1.0000 0.54780  0.79750  0.38990  Biso   1.000  C
  H39      1.0000 0.52590  0.75510  0.34430  Biso   1.000  H
  C56      1.0000 0.54410  0.91800  0.38620  Biso   1.000  C
  H40      1.0000 0.51700  0.95640  0.33960  Biso   1.000  H
  C57      1.0000 0.60400  0.92220  0.51430  Biso   1.000  C
  H41      1.0000 0.61950  0.96290  0.56020  Biso   1.000  H
  C58      1.0000 0.60800  0.80110  0.51410  Biso   1.000  C
  H42      1.0000 0.63120  0.76150  0.56060  Biso   1.000  H
  C59      1.0000 0.00460  0.33590  0.69460  Biso   1.000  C
  H43      1.0000 0.00850  0.37670  0.65440  Biso   1.000  H
  C60      1.0000 0.00410  0.21550  0.69230  Biso   1.000  C
  H44      1.0000 0.00650  0.17430  0.65160  Biso   1.000  H
  C61      1.0000 0.01150  0.83630  0.69800  Biso   1.000  C
  H45      1.0000 0.02090  0.79420  0.66100  Biso   1.000  H
  C62      1.0000 0.01020  0.95520  0.69650  Biso   1.000  C
  H46      1.0000 0.01650  0.99440  0.65700  Biso   1.000  H
  Ni3      1.0000 0.57923  0.44984  0.95126  Biso   1.000  Ni
  O13      1.0000 0.62790  0.44574  0.06194  Biso   1.000  O
  O14      1.0000 0.53997  0.55689  0.08428  Biso   1.000  O
  O15      1.0000 0.69018  0.54537  0.43773  Biso   1.000  O
  O16      1.0000 0.57162  0.54947  0.34396  Biso   1.000  O
  O17      1.0000 0.89254  0.41110  0.25395  Biso   1.000  O
  O18      1.0000 0.92161  0.44080  0.37361  Biso   1.000  O
  C63      1.0000 0.65784  0.49760  0.18538  Biso   1.000  C
  C64      1.0000 0.62891  0.52360  0.23779  Biso   1.000  C
  H47      1.0000 0.57480  0.54460  0.22220  Biso   1.000  H
  C65      1.0000 0.67964  0.51880  0.31366  Biso   1.000  C
  C66      1.0000 0.76013  0.49120  0.33630  Biso   1.000  C
  H48      1.0000 0.79470  0.48980  0.38770  Biso   1.000  H
  C67      1.0000 0.79010  0.46560  0.28365  Biso   1.000  C
  C68      1.0000 0.73755  0.46820  0.20862  Biso   1.000  C
  H49      1.0000 0.75660  0.44940  0.17240  Biso   1.000  H
  C69      1.0000 0.60346  0.50040  0.10434  Biso   1.000  C
  C70      1.0000 0.64530  0.53960  0.36774  Biso   1.000  C
  C71      1.0000 0.87420  0.43720  0.30585  Biso   1.000  C
  N5       1.0000 0.58122  0.63440  0.94948  Biso   1.000  N
  N6       1.0000 0.57938  0.26590  0.95171  Biso   1.000  N
  C72      1.0000 0.63700  0.69720  0.00532  Biso   1.000  C
  H50      1.0000 0.67690  0.65480  0.04480  Biso   1.000  H
  C73      1.0000 0.63860  0.81870  0.00768  Biso   1.000  C
  H51      1.0000 0.67900  0.85870  0.04810  Biso   1.000  H
  C74      1.0000 0.58050  0.88410  0.95018  Biso   1.000  C
  C75      1.0000 0.52460  0.82050  0.89312  Biso   1.000  C
  H52      1.0000 0.48420  0.86060  0.85280  Biso   1.000  H
  C76      1.0000 0.52760  0.69630  0.89467  Biso   1.000  C
  H53      1.0000 0.48900  0.65410  0.85410  Biso   1.000  H
  C77      1.0000 0.51720  0.20200  0.91090  Biso   1.000  C
  H54      1.0000 0.46970  0.24250  0.88070  Biso   1.000  H
  C78      1.0000 0.51660  0.08040  0.90940  Biso   1.000  C
  H55      1.0000 0.46930  0.04090  0.87760  Biso   1.000  H
  C79      1.0000 0.64590  0.08160  0.99710  Biso   1.000  C
  H56      1.0000 0.69290  0.04270  0.02990  Biso   1.000  H
  C80      1.0000 0.64250  0.20530  0.99520  Biso   1.000  C
  H57      1.0000 0.68820  0.24820  0.02700  Biso   1.000  H
  C81      1.0000 0.58010  0.01450  0.95081  Biso   1.000  C
  C82      1.0000 0.06600  0.65690  0.28550  Biso   1.000  C
  H58      1.0000 0.11390  0.61420  0.31120  Biso   1.000  H
  C83      1.0000 0.06890  0.77760  0.28730  Biso   1.000  C
  H59      1.0000 0.11800  0.81680  0.31400  Biso   1.000  H
  C84      1.0000 0.06300  0.16070  0.29150  Biso   1.000  C
  H60      1.0000 0.11000  0.20220  0.32200  Biso   1.000  H
  C85      1.0000 0.06480  0.03850  0.29320  Biso   1.000  C
  H61      1.0000 0.11180  0.99830  0.32490  Biso   1.000  H
  C86      1.0000 0.54780  0.20250  0.88990  Biso   1.000  C
  H62      1.0000 0.52590  0.24490  0.84430  Biso   1.000  H
  C87      1.0000 0.54410  0.08200  0.88620  Biso   1.000  C
  H63      1.0000 0.51700  0.04360  0.83960  Biso   1.000  H
  C88      1.0000 0.60400  0.07780  0.01430  Biso   1.000  C
  H64      1.0000 0.61950  0.03710  0.06020  Biso   1.000  H
  C89      1.0000 0.60800  0.19890  0.01410  Biso   1.000  C
  H65      1.0000 0.63120  0.23850  0.06060  Biso   1.000  H
  C90      1.0000 0.00460  0.66410  0.19460  Biso   1.000  C
  H66      1.0000 0.00850  0.62330  0.15440  Biso   1.000  H
  C91      1.0000 0.00410  0.78450  0.19230  Biso   1.000  C
  H67      1.0000 0.00650  0.82570  0.15160  Biso   1.000  H
  C92      1.0000 0.01150  0.16370  0.19800  Biso   1.000  C
  H68      1.0000 0.02090  0.20580  0.16100  Biso   1.000  H
  C93      1.0000 0.01020  0.04480  0.19650  Biso   1.000  C
  H69      1.0000 0.01650  0.00560  0.15700  Biso   1.000  H
  Ni4      1.0000 0.42077  0.44984  0.54874  Biso   1.000  Ni
  O19      1.0000 0.37210  0.44574  0.43806  Biso   1.000  O
  O20      1.0000 0.46003  0.55689  0.41572  Biso   1.000  O
  O21      1.0000 0.30982  0.54537  0.06227  Biso   1.000  O
  O22      1.0000 0.42838  0.54947  0.15604  Biso   1.000  O
  O23      1.0000 0.10746  0.41110  0.24605  Biso   1.000  O
  O24      1.0000 0.07839  0.44080  0.12639  Biso   1.000  O
  C94      1.0000 0.34216  0.49760  0.31462  Biso   1.000  C
  C95      1.0000 0.37109  0.52360  0.26221  Biso   1.000  C
  H70      1.0000 0.42520  0.54460  0.27780  Biso   1.000  H
  C96      1.0000 0.32036  0.51880  0.18634  Biso   1.000  C
  C97      1.0000 0.23987  0.49120  0.16370  Biso   1.000  C
  H71      1.0000 0.20530  0.48980  0.11230  Biso   1.000  H
  C98      1.0000 0.20990  0.46560  0.21635  Biso   1.000  C
  C99      1.0000 0.26245  0.46820  0.29138  Biso   1.000  C
  H72      1.0000 0.24340  0.44940  0.32760  Biso   1.000  H
  C100     1.0000 0.39654  0.50040  0.39566  Biso   1.000  C
  C101     1.0000 0.35470  0.53960  0.13226  Biso   1.000  C
  C102     1.0000 0.12580  0.43720  0.19415  Biso   1.000  C
  N7       1.0000 0.41878  0.63440  0.55052  Biso   1.000  N
  N8       1.0000 0.42062  0.26590  0.54829  Biso   1.000  N
  C103     1.0000 0.36300  0.69720  0.49468  Biso   1.000  C
  H73      1.0000 0.32310  0.65480  0.45520  Biso   1.000  H
  C104     1.0000 0.36140  0.81870  0.49232  Biso   1.000  C
  H74      1.0000 0.32100  0.85870  0.45190  Biso   1.000  H
  C105     1.0000 0.41950  0.88410  0.54982  Biso   1.000  C
  C106     1.0000 0.47540  0.82050  0.60688  Biso   1.000  C
  H75      1.0000 0.51580  0.86060  0.64720  Biso   1.000  H
  C107     1.0000 0.47240  0.69630  0.60533  Biso   1.000  C
  H76      1.0000 0.51100  0.65410  0.64590  Biso   1.000  H
  C108     1.0000 0.48280  0.20200  0.58910  Biso   1.000  C
  H77      1.0000 0.53030  0.24250  0.61930  Biso   1.000  H
  C109     1.0000 0.48340  0.08040  0.59060  Biso   1.000  C
  H78      1.0000 0.53070  0.04090  0.62240  Biso   1.000  H
  C110     1.0000 0.35410  0.08160  0.50290  Biso   1.000  C
  H79      1.0000 0.30710  0.04270  0.47010  Biso   1.000  H
  C111     1.0000 0.35750  0.20530  0.50480  Biso   1.000  C
  H80      1.0000 0.31180  0.24820  0.47300  Biso   1.000  H
  C112     1.0000 0.41990  0.01450  0.54919  Biso   1.000  C
  C113     1.0000 0.93400  0.65690  0.21450  Biso   1.000  C
  H81      1.0000 0.88610  0.61420  0.18880  Biso   1.000  H
  C114     1.0000 0.93110  0.77760  0.21270  Biso   1.000  C
  H82      1.0000 0.88200  0.81680  0.18600  Biso   1.000  H
  C115     1.0000 0.93700  0.16070  0.20850  Biso   1.000  C
  H83      1.0000 0.89000  0.20220  0.17800  Biso   1.000  H
  C116     1.0000 0.93520  0.03850  0.20680  Biso   1.000  C
  H84      1.0000 0.88820  0.99830  0.17510  Biso   1.000  H
  C117     1.0000 0.45220  0.20250  0.61010  Biso   1.000  C
  H85      1.0000 0.47410  0.24490  0.65570  Biso   1.000  H
  C118     1.0000 0.45590  0.08200  0.61380  Biso   1.000  C
  H86      1.0000 0.48300  0.04360  0.66040  Biso   1.000  H
  C119     1.0000 0.39600  0.07780  0.48570  Biso   1.000  C
  H87      1.0000 0.38050  0.03710  0.43980  Biso   1.000  H
  C120     1.0000 0.39200  0.19890  0.48590  Biso   1.000  C
  H88      1.0000 0.36880  0.23850  0.43940  Biso   1.000  H
  C121     1.0000 0.99540  0.66410  0.30540  Biso   1.000  C
  H89      1.0000 0.99150  0.62330  0.34560  Biso   1.000  H
  C122     1.0000 0.99590  0.78450  0.30770  Biso   1.000  C
  H90      1.0000 0.99350  0.82570  0.34840  Biso   1.000  H
  C123     1.0000 0.98850  0.16370  0.30200  Biso   1.000  C
  H91      1.0000 0.97910  0.20580  0.33900  Biso   1.000  H
  C124     1.0000 0.98980  0.04480  0.30350  Biso   1.000  C
  H92      1.0000 0.98350  0.00560  0.34300  Biso   1.000  H
  Ni5      1.0000 0.00000  0.59049  0.75000  Biso   1.000  Ni
  N9       1.0000 0.00000  0.40410  0.75000  Biso   1.000  N
  N10      1.0000 0.00000  0.77590  0.75000  Biso   1.000  N
  C125     1.0000 0.00000  0.15540  0.75000  Biso   1.000  C
  C126     1.0000 0.00000  0.02410  0.75000  Biso   1.000  C
  Ni6      1.0000 0.00000  0.40951  0.25000  Biso   1.000  Ni
  N11      1.0000 0.00000  0.59590  0.25000  Biso   1.000  N
  N12      1.0000 0.00000  0.22410  0.25000  Biso   1.000  N
  C127     1.0000 0.00000  0.84460  0.25000  Biso   1.000  C
  C128     1.0000 0.00000  0.97590  0.25000  Biso   1.000  C
