data_image0
_cell_length_a       17.454
_cell_length_b       13.62
_cell_length_c       19.539
_cell_angle_alpha    90
_cell_angle_beta     94.064
_cell_angle_gamma    90

_symmetry_space_group_name_H-M    "P 1"
_symmetry_int_tables_number       1

loop_
  _symmetry_equiv_pos_as_xyz
  'x, y, z'

loop_
  _atom_site_label
  _atom_site_occupancy
  _atom_site_fract_x
  _atom_site_fract_y
  _atom_site_fract_z
  _atom_site_thermal_displace_type
  _atom_site_B_iso_or_equiv
  _atom_site_type_symbol
  Tb1      1.0000 0.38744  0.98420  0.95177  Biso   1.000  Tb
  Tb2      1.0000 0.88916  0.53258  0.03414  Biso   1.000  Tb
  N1       1.0000 0.38770  0.30750  0.85730  Biso   1.000  N
  N2       1.0000 0.91360  0.16510  0.17250  Biso   1.000  N
  N3       1.0000 0.08990  0.71140  0.22460  Biso   1.000  N
  O1       1.0000 0.45240  0.83380  0.93900  Biso   1.000  O
  O2       1.0000 0.56340  0.88160  0.98860  Biso   1.000  O
  O3       1.0000 0.78760  0.65170  0.99460  Biso   1.000  O
  O4       1.0000 0.76690  0.49890  0.96760  Biso   1.000  O
  O5       1.0000 0.28390  0.86840  0.97290  Biso   1.000  O
  O6       1.0000 0.26620  0.02120  0.00160  Biso   1.000  O
  O7       1.0000 0.97120  0.66590  0.04030  Biso   1.000  O
  O8       1.0000 0.08340  0.62240  0.99980  Biso   1.000  O
  O9       1.0000 0.41260  0.92590  0.06300  Biso   1.000  O
  O10      1.0000 0.52080  0.97000  0.12130  Biso   1.000  O
  O11      1.0000 0.52840  0.98280  0.37210  Biso   1.000  O
  O12      1.0000 0.42270  0.94880  0.42420  Biso   1.000  O
  C1       1.0000 0.52240  0.81940  0.95850  Biso   1.000  C
  C2       1.0000 0.74320  0.57940  0.97390  Biso   1.000  C
  C3       1.0000 0.55460  0.72160  0.94400  Biso   1.000  C
  C4       1.0000 0.63120  0.70260  0.96230  Biso   1.000  C
  H1       1.0000 0.66240  0.74980  0.98450  Biso   1.000  H
  C5       1.0000 0.66210  0.60500  0.94540  Biso   1.000  C
  C6       1.0000 0.61320  0.53470  0.92410  Biso   1.000  C
  H2       1.0000 0.63260  0.47230  0.91710  Biso   1.000  H
  C7       1.0000 0.53510  0.54930  0.91200  Biso   1.000  C
  C8       1.0000 0.50720  0.64490  0.92160  Biso   1.000  C
  H3       1.0000 0.45510  0.65690  0.91250  Biso   1.000  H
  C9       1.0000 0.48290  0.47080  0.88950  Biso   1.000  C
  C10      1.0000 0.51070  0.37940  0.86650  Biso   1.000  C
  H4       1.0000 0.56320  0.37010  0.86380  Biso   1.000  H
  C11      1.0000 0.46050  0.30460  0.84840  Biso   1.000  C
  H5       1.0000 0.47990  0.24860  0.82860  Biso   1.000  H
  C12      1.0000 0.36140  0.39000  0.86840  Biso   1.000  C
  H6       1.0000 0.30840  0.39860  0.86320  Biso   1.000  H
  C13      1.0000 0.40690  0.47120  0.88860  Biso   1.000  C
  H7       1.0000 0.38270  0.52820  0.90200  Biso   1.000  H
  C14      1.0000 0.24370  0.93160  0.99780  Biso   1.000  C
  C15      1.0000 0.03960  0.68490  0.02750  Biso   1.000  C
  C16      1.0000 0.16770  0.90690  0.02330  Biso   1.000  C
  C17      1.0000 0.13940  0.81040  0.01790  Biso   1.000  C
  H8       1.0000 0.17050  0.76270  0.99990  Biso   1.000  H
  C18      1.0000 0.06790  0.78230  0.03760  Biso   1.000  C
  C19      1.0000 0.02590  0.85280  0.07130  Biso   1.000  C
  H9       1.0000 0.97870  0.83540  0.08700  Biso   1.000  H
  C20      1.0000 0.05330  0.95030  0.08240  Biso   1.000  C
  C21      1.0000 0.12730  0.97320  0.06030  Biso   1.000  C
  H10      1.0000 0.14880  0.03420  0.07100  Biso   1.000  H
  C22      1.0000 0.01100  0.02380  0.12070  Biso   1.000  C
  C23      1.0000 0.94550  0.00360  0.14840  Biso   1.000  C
  H11      1.0000 0.92960  0.93860  0.14990  Biso   1.000  H
  C24      1.0000 0.89890  0.07660  0.17580  Biso   1.000  C
  H12      1.0000 0.85540  0.05720  0.19710  Biso   1.000  H
  C25      1.0000 0.97410  0.18780  0.14100  Biso   1.000  C
  H13      1.0000 0.98610  0.25360  0.13490  Biso   1.000  H
  C26      1.0000 0.01940  0.11930  0.11710  Biso   1.000  C
  H14      1.0000 0.06190  0.14160  0.09550  Biso   1.000  H
  C27      1.0000 0.45440  0.94030  0.11910  Biso   1.000  C
  C28      1.0000 0.46280  0.95070  0.37690  Biso   1.000  C
  C29      1.0000 0.41910  0.91530  0.18150  Biso   1.000  C
  C30      1.0000 0.45360  0.94370  0.24350  Biso   1.000  C
  H15      1.0000 0.50040  0.97660  0.24520  Biso   1.000  H
  C31      1.0000 0.41890  0.92360  0.30420  Biso   1.000  C
  C32      1.0000 0.34940  0.88030  0.30180  Biso   1.000  C
  H16      1.0000 0.32620  0.87100  0.34270  Biso   1.000  H
  C33      1.0000 0.31340  0.85070  0.24480  Biso   1.000  C
  C34      1.0000 0.34730  0.87100  0.18110  Biso   1.000  C
  H17      1.0000 0.32110  0.85430  0.13970  Biso   1.000  H
  C35      1.0000 0.23280  0.80350  0.23900  Biso   1.000  C
  C36      1.0000 0.17180  0.83920  0.27300  Biso   1.000  C
  H18      1.0000 0.17850  0.89430  0.30100  Biso   1.000  H
  C37      1.0000 0.10090  0.79350  0.26580  Biso   1.000  C
  H19      1.0000 0.06020  0.81830  0.28880  Biso   1.000  H
  C38      1.0000 0.15070  0.67550  0.19000  Biso   1.000  C
  H20      1.0000 0.14400  0.62050  0.16210  Biso   1.000  H
  C39      1.0000 0.22130  0.72170  0.19700  Biso   1.000  C
  H21      1.0000 0.26160  0.69770  0.17330  Biso   1.000  H
  C40      1.0000 0.23330  0.73890  0.29400  Biso   1.000  C
  C41      1.0000 0.16940  0.68200  0.30550  Biso   1.000  C
  C42      1.0000 0.10370  0.75500  0.20650  Biso   1.000  C
  C43      1.0000 0.16760  0.81200  0.19510  Biso   1.000  C
  H22      1.0000 0.27730  0.73340  0.32360  Biso   1.000  H
  H23      1.0000 0.17030  0.63940  0.34250  Biso   1.000  H
  H24      1.0000 0.05980  0.76090  0.17680  Biso   1.000  H
  H25      1.0000 0.16670  0.85470  0.15810  Biso   1.000  H
  N4       1.0000 0.10430  0.69100  0.26140  Biso   1.000  N
  Tb3      1.0000 0.11256  0.48420  0.54823  Biso   1.000  Tb
  Tb4      1.0000 0.61084  0.03258  0.46586  Biso   1.000  Tb
  N5       1.0000 0.11230  0.80750  0.64270  Biso   1.000  N
  N6       1.0000 0.58640  0.66510  0.32750  Biso   1.000  N
  N7       1.0000 0.41010  0.21140  0.27540  Biso   1.000  N
  O13      1.0000 0.04760  0.33380  0.56100  Biso   1.000  O
  O14      1.0000 0.93660  0.38160  0.51140  Biso   1.000  O
  O15      1.0000 0.71240  0.15170  0.50540  Biso   1.000  O
  O16      1.0000 0.73310  0.99890  0.53240  Biso   1.000  O
  O17      1.0000 0.21610  0.36840  0.52710  Biso   1.000  O
  O18      1.0000 0.23380  0.52120  0.49840  Biso   1.000  O
  O19      1.0000 0.52880  0.16590  0.45970  Biso   1.000  O
  O20      1.0000 0.41660  0.12240  0.50020  Biso   1.000  O
  O21      1.0000 0.08740  0.42590  0.43700  Biso   1.000  O
  O22      1.0000 0.97920  0.47000  0.37870  Biso   1.000  O
  O23      1.0000 0.97160  0.48280  0.12790  Biso   1.000  O
  O24      1.0000 0.07730  0.44880  0.07580  Biso   1.000  O
  C44      1.0000 0.97760  0.31940  0.54150  Biso   1.000  C
  C45      1.0000 0.75680  0.07940  0.52610  Biso   1.000  C
  C46      1.0000 0.94540  0.22160  0.55600  Biso   1.000  C
  C47      1.0000 0.86880  0.20260  0.53770  Biso   1.000  C
  H26      1.0000 0.83760  0.24980  0.51550  Biso   1.000  H
  C48      1.0000 0.83790  0.10500  0.55460  Biso   1.000  C
  C49      1.0000 0.88680  0.03470  0.57590  Biso   1.000  C
  H27      1.0000 0.86740  0.97230  0.58290  Biso   1.000  H
  C50      1.0000 0.96490  0.04930  0.58800  Biso   1.000  C
  C51      1.0000 0.99280  0.14490  0.57840  Biso   1.000  C
  H28      1.0000 0.04490  0.15690  0.58750  Biso   1.000  H
  C52      1.0000 0.01710  0.97080  0.61050  Biso   1.000  C
  C53      1.0000 0.98930  0.87940  0.63350  Biso   1.000  C
  H29      1.0000 0.93680  0.87010  0.63620  Biso   1.000  H
  C54      1.0000 0.03950  0.80460  0.65160  Biso   1.000  C
  H30      1.0000 0.02010  0.74860  0.67140  Biso   1.000  H
  C55      1.0000 0.13860  0.89000  0.63160  Biso   1.000  C
  H31      1.0000 0.19160  0.89860  0.63680  Biso   1.000  H
  C56      1.0000 0.09310  0.97120  0.61140  Biso   1.000  C
  H32      1.0000 0.11730  0.02820  0.59800  Biso   1.000  H
  C57      1.0000 0.25630  0.43160  0.50220  Biso   1.000  C
  C58      1.0000 0.46040  0.18490  0.47250  Biso   1.000  C
  C59      1.0000 0.33230  0.40690  0.47670  Biso   1.000  C
  C60      1.0000 0.36060  0.31040  0.48210  Biso   1.000  C
  H33      1.0000 0.32950  0.26270  0.50010  Biso   1.000  H
  C61      1.0000 0.43210  0.28230  0.46240  Biso   1.000  C
  C62      1.0000 0.47410  0.35280  0.42870  Biso   1.000  C
  H34      1.0000 0.52130  0.33540  0.41300  Biso   1.000  H
  C63      1.0000 0.44670  0.45030  0.41760  Biso   1.000  C
  C64      1.0000 0.37270  0.47320  0.43970  Biso   1.000  C
  H35      1.0000 0.35120  0.53420  0.42900  Biso   1.000  H
  C65      1.0000 0.48900  0.52380  0.37930  Biso   1.000  C
  C66      1.0000 0.55450  0.50360  0.35160  Biso   1.000  C
  H36      1.0000 0.57040  0.43860  0.35010  Biso   1.000  H
  C67      1.0000 0.60110  0.57660  0.32420  Biso   1.000  C
  H37      1.0000 0.64460  0.55720  0.30290  Biso   1.000  H
  C68      1.0000 0.52590  0.68780  0.35900  Biso   1.000  C
  H38      1.0000 0.51390  0.75360  0.36510  Biso   1.000  H
  C69      1.0000 0.48060  0.61930  0.38290  Biso   1.000  C
  H39      1.0000 0.43810  0.64160  0.40450  Biso   1.000  H
  C70      1.0000 0.04560  0.44030  0.38090  Biso   1.000  C
  C71      1.0000 0.03720  0.45070  0.12310  Biso   1.000  C
  C72      1.0000 0.08090  0.41530  0.31850  Biso   1.000  C
  C73      1.0000 0.04640  0.44370  0.25650  Biso   1.000  C
  H40      1.0000 0.99960  0.47660  0.25480  Biso   1.000  H
  C74      1.0000 0.08110  0.42360  0.19580  Biso   1.000  C
  C75      1.0000 0.15060  0.38030  0.19820  Biso   1.000  C
  H41      1.0000 0.17380  0.37100  0.15730  Biso   1.000  H
  C76      1.0000 0.18660  0.35070  0.25520  Biso   1.000  C
  C77      1.0000 0.15270  0.37100  0.31890  Biso   1.000  C
  H42      1.0000 0.17890  0.35430  0.36030  Biso   1.000  H
  C78      1.0000 0.26720  0.30350  0.26100  Biso   1.000  C
  C79      1.0000 0.32820  0.33920  0.22700  Biso   1.000  C
  H43      1.0000 0.32150  0.39430  0.19900  Biso   1.000  H
  C80      1.0000 0.39910  0.29350  0.23420  Biso   1.000  C
  H44      1.0000 0.43980  0.31830  0.21120  Biso   1.000  H
  C81      1.0000 0.34930  0.17550  0.31000  Biso   1.000  C
  H45      1.0000 0.35600  0.12050  0.33790  Biso   1.000  H
  C82      1.0000 0.27870  0.22170  0.30300  Biso   1.000  C
  H46      1.0000 0.23840  0.19770  0.32670  Biso   1.000  H
  C83      1.0000 0.26670  0.23890  0.20600  Biso   1.000  C
  C84      1.0000 0.33060  0.18200  0.19450  Biso   1.000  C
  C85      1.0000 0.39630  0.25500  0.29350  Biso   1.000  C
  C86      1.0000 0.33240  0.31200  0.30490  Biso   1.000  C
  H47      1.0000 0.22270  0.23340  0.17640  Biso   1.000  H
  H48      1.0000 0.32970  0.13940  0.15750  Biso   1.000  H
  H49      1.0000 0.44020  0.26090  0.32320  Biso   1.000  H
  H50      1.0000 0.33330  0.35470  0.34190  Biso   1.000  H
  N8       1.0000 0.39570  0.19100  0.23860  Biso   1.000  N
  Tb5      1.0000 0.61256  0.01580  0.04823  Biso   1.000  Tb
  Tb6      1.0000 0.11084  0.46742  0.96586  Biso   1.000  Tb
  N9       1.0000 0.61230  0.69250  0.14270  Biso   1.000  N
  N10      1.0000 0.08640  0.83490  0.82750  Biso   1.000  N
  N11      1.0000 0.91010  0.28860  0.77540  Biso   1.000  N
  O25      1.0000 0.54760  0.16620  0.06100  Biso   1.000  O
  O26      1.0000 0.43660  0.11840  0.01140  Biso   1.000  O
  O27      1.0000 0.21240  0.34830  0.00540  Biso   1.000  O
  O28      1.0000 0.23310  0.50110  0.03240  Biso   1.000  O
  O29      1.0000 0.71610  0.13160  0.02710  Biso   1.000  O
  O30      1.0000 0.73380  0.97880  0.99840  Biso   1.000  O
  O31      1.0000 0.02880  0.33410  0.95970  Biso   1.000  O
  O32      1.0000 0.91660  0.37760  0.00020  Biso   1.000  O
  O33      1.0000 0.58740  0.07410  0.93700  Biso   1.000  O
  O34      1.0000 0.47920  0.03000  0.87870  Biso   1.000  O
  O35      1.0000 0.47160  0.01720  0.62790  Biso   1.000  O
  O36      1.0000 0.57730  0.05120  0.57580  Biso   1.000  O
  C87      1.0000 0.47760  0.18060  0.04150  Biso   1.000  C
  C88      1.0000 0.25680  0.42060  0.02610  Biso   1.000  C
  C89      1.0000 0.44540  0.27840  0.05600  Biso   1.000  C
  C90      1.0000 0.36880  0.29740  0.03770  Biso   1.000  C
  H51      1.0000 0.33760  0.25020  0.01550  Biso   1.000  H
  C91      1.0000 0.33790  0.39500  0.05460  Biso   1.000  C
  C92      1.0000 0.38680  0.46530  0.07590  Biso   1.000  C
  H52      1.0000 0.36740  0.52770  0.08290  Biso   1.000  H
  C93      1.0000 0.46490  0.45070  0.08800  Biso   1.000  C
  C94      1.0000 0.49280  0.35510  0.07840  Biso   1.000  C
  H53      1.0000 0.54490  0.34310  0.08750  Biso   1.000  H
  C95      1.0000 0.51710  0.52920  0.11050  Biso   1.000  C
  C96      1.0000 0.48930  0.62060  0.13350  Biso   1.000  C
  H54      1.0000 0.43680  0.62990  0.13620  Biso   1.000  H
  C97      1.0000 0.53950  0.69540  0.15160  Biso   1.000  C
  H55      1.0000 0.52010  0.75140  0.17140  Biso   1.000  H
  C98      1.0000 0.63860  0.61000  0.13160  Biso   1.000  C
  H56      1.0000 0.69160  0.60140  0.13680  Biso   1.000  H
  C99      1.0000 0.59310  0.52880  0.11140  Biso   1.000  C
  H57      1.0000 0.61730  0.47180  0.09800  Biso   1.000  H
  C100     1.0000 0.75630  0.06840  0.00220  Biso   1.000  C
  C101     1.0000 0.96040  0.31510  0.97250  Biso   1.000  C
  C102     1.0000 0.83230  0.09310  0.97670  Biso   1.000  C
  C103     1.0000 0.86060  0.18960  0.98210  Biso   1.000  C
  H58      1.0000 0.82950  0.23730  0.00010  Biso   1.000  H
  C104     1.0000 0.93210  0.21770  0.96240  Biso   1.000  C
  C105     1.0000 0.97410  0.14720  0.92870  Biso   1.000  C
  H59      1.0000 0.02130  0.16460  0.91300  Biso   1.000  H
  C106     1.0000 0.94670  0.04970  0.91760  Biso   1.000  C
  C107     1.0000 0.87270  0.02680  0.93970  Biso   1.000  C
  H60      1.0000 0.85120  0.96580  0.92900  Biso   1.000  H
  C108     1.0000 0.98900  0.97620  0.87930  Biso   1.000  C
  C109     1.0000 0.05450  0.99640  0.85160  Biso   1.000  C
  H61      1.0000 0.07040  0.06140  0.85010  Biso   1.000  H
  C110     1.0000 0.10110  0.92340  0.82420  Biso   1.000  C
  H62      1.0000 0.14460  0.94280  0.80290  Biso   1.000  H
  C111     1.0000 0.02590  0.81220  0.85900  Biso   1.000  C
  H63      1.0000 0.01390  0.74640  0.86510  Biso   1.000  H
  C112     1.0000 0.98060  0.88070  0.88290  Biso   1.000  C
  H64      1.0000 0.93810  0.85840  0.90450  Biso   1.000  H
  C113     1.0000 0.54560  0.05970  0.88090  Biso   1.000  C
  C114     1.0000 0.53720  0.04930  0.62310  Biso   1.000  C
  C115     1.0000 0.58090  0.08470  0.81850  Biso   1.000  C
  C116     1.0000 0.54640  0.05630  0.75650  Biso   1.000  C
  H65      1.0000 0.49960  0.02340  0.75480  Biso   1.000  H
  C117     1.0000 0.58110  0.07640  0.69580  Biso   1.000  C
  C118     1.0000 0.65060  0.11970  0.69820  Biso   1.000  C
  H66      1.0000 0.67380  0.12900  0.65730  Biso   1.000  H
  C119     1.0000 0.68660  0.14930  0.75520  Biso   1.000  C
  C120     1.0000 0.65270  0.12900  0.81890  Biso   1.000  C
  H67      1.0000 0.67890  0.14570  0.86030  Biso   1.000  H
  C121     1.0000 0.76720  0.19650  0.76100  Biso   1.000  C
  C122     1.0000 0.82820  0.16080  0.72700  Biso   1.000  C
  H68      1.0000 0.82150  0.10570  0.69900  Biso   1.000  H
  C123     1.0000 0.89910  0.20650  0.73420  Biso   1.000  C
  H69      1.0000 0.93980  0.18170  0.71120  Biso   1.000  H
  C124     1.0000 0.84930  0.32450  0.81000  Biso   1.000  C
  H70      1.0000 0.85600  0.37950  0.83790  Biso   1.000  H
  C125     1.0000 0.77870  0.27830  0.80300  Biso   1.000  C
  H71      1.0000 0.73840  0.30230  0.82670  Biso   1.000  H
  C126     1.0000 0.76670  0.26110  0.70600  Biso   1.000  C
  C127     1.0000 0.83060  0.31800  0.69450  Biso   1.000  C
  C128     1.0000 0.89630  0.24500  0.79350  Biso   1.000  C
  C129     1.0000 0.83240  0.18800  0.80490  Biso   1.000  C
  H72      1.0000 0.72270  0.26660  0.67640  Biso   1.000  H
  H73      1.0000 0.82970  0.36060  0.65750  Biso   1.000  H
  H74      1.0000 0.94020  0.23910  0.82320  Biso   1.000  H
  H75      1.0000 0.83330  0.14530  0.84190  Biso   1.000  H
  N12      1.0000 0.89570  0.30900  0.73860  Biso   1.000  N
  Tb7      1.0000 0.88744  0.51580  0.45177  Biso   1.000  Tb
  Tb8      1.0000 0.38916  0.96742  0.53414  Biso   1.000  Tb
  N13      1.0000 0.88770  0.19250  0.35730  Biso   1.000  N
  N14      1.0000 0.41360  0.33490  0.67250  Biso   1.000  N
  N15      1.0000 0.58990  0.78860  0.72460  Biso   1.000  N
  O37      1.0000 0.95240  0.66620  0.43900  Biso   1.000  O
  O38      1.0000 0.06340  0.61840  0.48860  Biso   1.000  O
  O39      1.0000 0.28760  0.84830  0.49460  Biso   1.000  O
  O40      1.0000 0.26690  0.00110  0.46760  Biso   1.000  O
  O41      1.0000 0.78390  0.63160  0.47290  Biso   1.000  O
  O42      1.0000 0.76620  0.47880  0.50160  Biso   1.000  O
  O43      1.0000 0.47120  0.83410  0.54030  Biso   1.000  O
  O44      1.0000 0.58340  0.87760  0.49980  Biso   1.000  O
  O45      1.0000 0.91260  0.57410  0.56300  Biso   1.000  O
  O46      1.0000 0.02080  0.53000  0.62130  Biso   1.000  O
  O47      1.0000 0.02840  0.51720  0.87210  Biso   1.000  O
  O48      1.0000 0.92270  0.55120  0.92420  Biso   1.000  O
  C130     1.0000 0.02240  0.68060  0.45850  Biso   1.000  C
  C131     1.0000 0.24320  0.92060  0.47390  Biso   1.000  C
  C132     1.0000 0.05460  0.77840  0.44400  Biso   1.000  C
  C133     1.0000 0.13120  0.79740  0.46230  Biso   1.000  C
  H76      1.0000 0.16240  0.75020  0.48450  Biso   1.000  H
  C134     1.0000 0.16210  0.89500  0.44540  Biso   1.000  C
  C135     1.0000 0.11320  0.96530  0.42410  Biso   1.000  C
  H77      1.0000 0.13260  0.02770  0.41710  Biso   1.000  H
  C136     1.0000 0.03510  0.95070  0.41200  Biso   1.000  C
  C137     1.0000 0.00720  0.85510  0.42160  Biso   1.000  C
  H78      1.0000 0.95510  0.84310  0.41250  Biso   1.000  H
  C138     1.0000 0.98290  0.02920  0.38950  Biso   1.000  C
  C139     1.0000 0.01070  0.12060  0.36650  Biso   1.000  C
  H79      1.0000 0.06320  0.12990  0.36380  Biso   1.000  H
  C140     1.0000 0.96050  0.19540  0.34840  Biso   1.000  C
  H80      1.0000 0.97990  0.25140  0.32860  Biso   1.000  H
  C141     1.0000 0.86140  0.11000  0.36840  Biso   1.000  C
  H81      1.0000 0.80840  0.10140  0.36320  Biso   1.000  H
  C142     1.0000 0.90690  0.02880  0.38860  Biso   1.000  C
  H82      1.0000 0.88270  0.97180  0.40200  Biso   1.000  H
  C143     1.0000 0.74370  0.56840  0.49780  Biso   1.000  C
  C144     1.0000 0.53960  0.81510  0.52750  Biso   1.000  C
  C145     1.0000 0.66770  0.59310  0.52330  Biso   1.000  C
  C146     1.0000 0.63940  0.68960  0.51790  Biso   1.000  C
  H83      1.0000 0.67050  0.73730  0.49990  Biso   1.000  H
  C147     1.0000 0.56790  0.71770  0.53760  Biso   1.000  C
  C148     1.0000 0.52590  0.64720  0.57130  Biso   1.000  C
  H84      1.0000 0.47870  0.66460  0.58700  Biso   1.000  H
  C149     1.0000 0.55330  0.54970  0.58240  Biso   1.000  C
  C150     1.0000 0.62730  0.52680  0.56030  Biso   1.000  C
  H85      1.0000 0.64880  0.46580  0.57100  Biso   1.000  H
  C151     1.0000 0.51100  0.47620  0.62070  Biso   1.000  C
  C152     1.0000 0.44550  0.49640  0.64840  Biso   1.000  C
  H86      1.0000 0.42960  0.56140  0.64990  Biso   1.000  H
  C153     1.0000 0.39890  0.42340  0.67580  Biso   1.000  C
  H87      1.0000 0.35540  0.44280  0.69710  Biso   1.000  H
  C154     1.0000 0.47410  0.31220  0.64100  Biso   1.000  C
  H88      1.0000 0.48610  0.24640  0.63490  Biso   1.000  H
  C155     1.0000 0.51940  0.38070  0.61710  Biso   1.000  C
  H89      1.0000 0.56190  0.35840  0.59550  Biso   1.000  H
  C156     1.0000 0.95440  0.55970  0.61910  Biso   1.000  C
  C157     1.0000 0.96280  0.54930  0.87690  Biso   1.000  C
  C158     1.0000 0.91910  0.58470  0.68150  Biso   1.000  C
  C159     1.0000 0.95360  0.55630  0.74350  Biso   1.000  C
  H90      1.0000 0.00040  0.52340  0.74520  Biso   1.000  H
  C160     1.0000 0.91890  0.57640  0.80420  Biso   1.000  C
  C161     1.0000 0.84940  0.61970  0.80180  Biso   1.000  C
  H91      1.0000 0.82620  0.62900  0.84270  Biso   1.000  H
  C162     1.0000 0.81340  0.64930  0.74480  Biso   1.000  C
  C163     1.0000 0.84730  0.62900  0.68110  Biso   1.000  C
  H92      1.0000 0.82110  0.64570  0.63970  Biso   1.000  H
  C164     1.0000 0.73280  0.69650  0.73900  Biso   1.000  C
  C165     1.0000 0.67180  0.66080  0.77300  Biso   1.000  C
  H93      1.0000 0.67850  0.60570  0.80100  Biso   1.000  H
  C166     1.0000 0.60090  0.70650  0.76580  Biso   1.000  C
  H94      1.0000 0.56020  0.68170  0.78880  Biso   1.000  H
  C167     1.0000 0.65070  0.82450  0.69000  Biso   1.000  C
  H95      1.0000 0.64400  0.87950  0.66210  Biso   1.000  H
  C168     1.0000 0.72130  0.77830  0.69700  Biso   1.000  C
  H96      1.0000 0.76160  0.80230  0.67330  Biso   1.000  H
  C169     1.0000 0.73330  0.76110  0.79400  Biso   1.000  C
  C170     1.0000 0.66940  0.81800  0.80550  Biso   1.000  C
  C171     1.0000 0.60370  0.74500  0.70650  Biso   1.000  C
  C172     1.0000 0.66760  0.68800  0.69510  Biso   1.000  C
  H97      1.0000 0.77730  0.76660  0.82360  Biso   1.000  H
  H98      1.0000 0.67030  0.86060  0.84250  Biso   1.000  H
  H99      1.0000 0.55980  0.73910  0.67680  Biso   1.000  H
  H100     1.0000 0.66670  0.64530  0.65810  Biso   1.000  H
  N16      1.0000 0.60430  0.80900  0.76140  Biso   1.000  N
