data_image0
_cell_length_a       14.746
_cell_length_b       11.038
_cell_length_c       12.306
_cell_angle_alpha    90
_cell_angle_beta     90
_cell_angle_gamma    90

_symmetry_space_group_name_H-M    "P 1"
_symmetry_int_tables_number       1

loop_
  _symmetry_equiv_pos_as_xyz
  'x, y, z'

loop_
  _atom_site_label
  _atom_site_occupancy
  _atom_site_fract_x
  _atom_site_fract_y
  _atom_site_fract_z
  _atom_site_thermal_displace_type
  _atom_site_B_iso_or_equiv
  _atom_site_type_symbol
  O1       1.0000 0.23880  0.90810  0.36850  Biso   1.000  O
  O2       1.0000 0.11830  0.83540  0.45000  Biso   1.000  O
  O3       1.0000 0.20930  0.83740  0.35150  Biso   1.000  O
  O4       1.0000 0.13760  0.90700  0.48330  Biso   1.000  O
  C1       1.0000 0.02030  0.04120  0.34190  Biso   1.000  C
  H1       1.0000 0.00230  0.03590  0.41410  Biso   1.000  H
  C2       1.0000 0.96850  0.11020  0.26900  Biso   1.000  C
  H2       1.0000 0.91720  0.15110  0.29300  Biso   1.000  H
  C3       1.0000 0.99410  0.11670  0.16230  Biso   1.000  C
  C4       1.0000 0.09660  0.98190  0.30900  Biso   1.000  C
  C5       1.0000 0.12050  0.98690  0.20190  Biso   1.000  C
  H3       1.0000 0.17120  0.94450  0.17780  Biso   1.000  H
  C6       1.0000 0.07060  0.05350  0.12950  Biso   1.000  C
  H4       1.0000 0.08840  0.05650  0.05710  Biso   1.000  H
  C7       1.0000 0.15300  0.90460  0.38430  Biso   1.000  C
  C8       1.0000 0.84850  0.19280  0.08280  Biso   1.000  C
  H5       1.0000 0.81710  0.15690  0.13980  Biso   1.000  H
  C9       1.0000 0.94180  0.18880  0.08120  Biso   1.000  C
  O5       1.0000 0.26120  0.59190  0.36850  Biso   1.000  O
  O6       1.0000 0.38170  0.66460  0.45000  Biso   1.000  O
  O7       1.0000 0.29070  0.66260  0.35150  Biso   1.000  O
  O8       1.0000 0.36240  0.59300  0.48330  Biso   1.000  O
  C10      1.0000 0.47970  0.45880  0.34190  Biso   1.000  C
  H6       1.0000 0.49770  0.46410  0.41410  Biso   1.000  H
  C11      1.0000 0.53150  0.38980  0.26900  Biso   1.000  C
  H7       1.0000 0.58280  0.34890  0.29300  Biso   1.000  H
  C12      1.0000 0.50590  0.38330  0.16230  Biso   1.000  C
  C13      1.0000 0.40340  0.51810  0.30900  Biso   1.000  C
  C14      1.0000 0.37950  0.51310  0.20190  Biso   1.000  C
  H8       1.0000 0.32880  0.55550  0.17780  Biso   1.000  H
  C15      1.0000 0.42940  0.44650  0.12950  Biso   1.000  C
  H9       1.0000 0.41160  0.44350  0.05710  Biso   1.000  H
  C16      1.0000 0.34700  0.59540  0.38430  Biso   1.000  C
  C17      1.0000 0.65150  0.30720  0.08280  Biso   1.000  C
  H10      1.0000 0.68290  0.34310  0.13980  Biso   1.000  H
  C18      1.0000 0.55820  0.31120  0.08120  Biso   1.000  C
  O9       1.0000 0.26120  0.90810  0.63150  Biso   1.000  O
  O10      1.0000 0.38170  0.83540  0.55000  Biso   1.000  O
  O11      1.0000 0.29070  0.83740  0.64850  Biso   1.000  O
  O12      1.0000 0.36240  0.90700  0.51670  Biso   1.000  O
  C19      1.0000 0.47970  0.04120  0.65810  Biso   1.000  C
  H11      1.0000 0.49770  0.03590  0.58590  Biso   1.000  H
  C20      1.0000 0.53150  0.11020  0.73100  Biso   1.000  C
  H12      1.0000 0.58280  0.15110  0.70700  Biso   1.000  H
  C21      1.0000 0.50590  0.11670  0.83770  Biso   1.000  C
  C22      1.0000 0.40340  0.98190  0.69100  Biso   1.000  C
  C23      1.0000 0.37950  0.98690  0.79810  Biso   1.000  C
  H13      1.0000 0.32880  0.94450  0.82220  Biso   1.000  H
  C24      1.0000 0.42940  0.05350  0.87050  Biso   1.000  C
  H14      1.0000 0.41160  0.05650  0.94290  Biso   1.000  H
  C25      1.0000 0.34700  0.90460  0.61570  Biso   1.000  C
  C26      1.0000 0.65150  0.19280  0.91720  Biso   1.000  C
  H15      1.0000 0.68290  0.15690  0.86020  Biso   1.000  H
  C27      1.0000 0.55820  0.18880  0.91880  Biso   1.000  C
  O13      1.0000 0.23880  0.59190  0.63150  Biso   1.000  O
  O14      1.0000 0.11830  0.66460  0.55000  Biso   1.000  O
  O15      1.0000 0.20930  0.66260  0.64850  Biso   1.000  O
  O16      1.0000 0.13760  0.59300  0.51670  Biso   1.000  O
  C28      1.0000 0.02030  0.45880  0.65810  Biso   1.000  C
  H16      1.0000 0.00230  0.46410  0.58590  Biso   1.000  H
  C29      1.0000 0.96850  0.38980  0.73100  Biso   1.000  C
  H17      1.0000 0.91720  0.34890  0.70700  Biso   1.000  H
  C30      1.0000 0.99410  0.38330  0.83770  Biso   1.000  C
  C31      1.0000 0.09660  0.51810  0.69100  Biso   1.000  C
  C32      1.0000 0.12050  0.51310  0.79810  Biso   1.000  C
  H18      1.0000 0.17120  0.55550  0.82220  Biso   1.000  H
  C33      1.0000 0.07060  0.44650  0.87050  Biso   1.000  C
  H19      1.0000 0.08840  0.44350  0.94290  Biso   1.000  H
  C34      1.0000 0.15300  0.59540  0.61570  Biso   1.000  C
  C35      1.0000 0.84850  0.30720  0.91720  Biso   1.000  C
  H20      1.0000 0.81710  0.34310  0.86020  Biso   1.000  H
  C36      1.0000 0.94180  0.31120  0.91880  Biso   1.000  C
  In1      1.0000 0.25000  0.75000  0.50000  Biso   1.000  In
  C37      1.0000 0.80090  0.25000  0.00000  Biso   1.000  C
  C38      1.0000 0.98790  0.25000  0.00000  Biso   1.000  C
  H21      1.0000 0.05090  0.25000  0.00000  Biso   1.000  H
  C39      1.0000 0.69910  0.25000  0.00000  Biso   1.000  C
  C40      1.0000 0.51210  0.25000  0.00000  Biso   1.000  C
  H22      1.0000 0.44910  0.25000  0.00000  Biso   1.000  H
  O17      1.0000 0.76120  0.09190  0.63150  Biso   1.000  O
  O18      1.0000 0.88170  0.16460  0.55000  Biso   1.000  O
  O19      1.0000 0.79070  0.16260  0.64850  Biso   1.000  O
  O20      1.0000 0.86240  0.09300  0.51670  Biso   1.000  O
  C41      1.0000 0.97970  0.95880  0.65810  Biso   1.000  C
  H23      1.0000 0.99770  0.96410  0.58590  Biso   1.000  H
  C42      1.0000 0.03150  0.88980  0.73100  Biso   1.000  C
  H24      1.0000 0.08280  0.84890  0.70700  Biso   1.000  H
  C43      1.0000 0.00590  0.88330  0.83770  Biso   1.000  C
  C44      1.0000 0.90340  0.01810  0.69100  Biso   1.000  C
  C45      1.0000 0.87950  0.01310  0.79810  Biso   1.000  C
  H25      1.0000 0.82880  0.05550  0.82220  Biso   1.000  H
  C46      1.0000 0.92940  0.94650  0.87050  Biso   1.000  C
  H26      1.0000 0.91160  0.94350  0.94290  Biso   1.000  H
  C47      1.0000 0.84700  0.09540  0.61570  Biso   1.000  C
  C48      1.0000 0.15150  0.80720  0.91720  Biso   1.000  C
  H27      1.0000 0.18290  0.84310  0.86020  Biso   1.000  H
  C49      1.0000 0.05820  0.81120  0.91880  Biso   1.000  C
  O21      1.0000 0.73880  0.40810  0.63150  Biso   1.000  O
  O22      1.0000 0.61830  0.33540  0.55000  Biso   1.000  O
  O23      1.0000 0.70930  0.33740  0.64850  Biso   1.000  O
  O24      1.0000 0.63760  0.40700  0.51670  Biso   1.000  O
  C50      1.0000 0.52030  0.54120  0.65810  Biso   1.000  C
  H28      1.0000 0.50230  0.53590  0.58590  Biso   1.000  H
  C51      1.0000 0.46850  0.61020  0.73100  Biso   1.000  C
  H29      1.0000 0.41720  0.65110  0.70700  Biso   1.000  H
  C52      1.0000 0.49410  0.61670  0.83770  Biso   1.000  C
  C53      1.0000 0.59660  0.48190  0.69100  Biso   1.000  C
  C54      1.0000 0.62050  0.48690  0.79810  Biso   1.000  C
  H30      1.0000 0.67120  0.44450  0.82220  Biso   1.000  H
  C55      1.0000 0.57060  0.55350  0.87050  Biso   1.000  C
  H31      1.0000 0.58840  0.55650  0.94290  Biso   1.000  H
  C56      1.0000 0.65300  0.40460  0.61570  Biso   1.000  C
  C57      1.0000 0.34850  0.69280  0.91720  Biso   1.000  C
  H32      1.0000 0.31710  0.65690  0.86020  Biso   1.000  H
  C58      1.0000 0.44180  0.68880  0.91880  Biso   1.000  C
  O25      1.0000 0.73880  0.09190  0.36850  Biso   1.000  O
  O26      1.0000 0.61830  0.16460  0.45000  Biso   1.000  O
  O27      1.0000 0.70930  0.16260  0.35150  Biso   1.000  O
  O28      1.0000 0.63760  0.09300  0.48330  Biso   1.000  O
  C59      1.0000 0.52030  0.95880  0.34190  Biso   1.000  C
  H33      1.0000 0.50230  0.96410  0.41410  Biso   1.000  H
  C60      1.0000 0.46850  0.88980  0.26900  Biso   1.000  C
  H34      1.0000 0.41720  0.84890  0.29300  Biso   1.000  H
  C61      1.0000 0.49410  0.88330  0.16230  Biso   1.000  C
  C62      1.0000 0.59660  0.01810  0.30900  Biso   1.000  C
  C63      1.0000 0.62050  0.01310  0.20190  Biso   1.000  C
  H35      1.0000 0.67120  0.05550  0.17780  Biso   1.000  H
  C64      1.0000 0.57060  0.94650  0.12950  Biso   1.000  C
  H36      1.0000 0.58840  0.94350  0.05710  Biso   1.000  H
  C65      1.0000 0.65300  0.09540  0.38430  Biso   1.000  C
  C66      1.0000 0.34850  0.80720  0.08280  Biso   1.000  C
  H37      1.0000 0.31710  0.84310  0.13980  Biso   1.000  H
  C67      1.0000 0.44180  0.81120  0.08120  Biso   1.000  C
  O29      1.0000 0.76120  0.40810  0.36850  Biso   1.000  O
  O30      1.0000 0.88170  0.33540  0.45000  Biso   1.000  O
  O31      1.0000 0.79070  0.33740  0.35150  Biso   1.000  O
  O32      1.0000 0.86240  0.40700  0.48330  Biso   1.000  O
  C68      1.0000 0.97970  0.54120  0.34190  Biso   1.000  C
  H38      1.0000 0.99770  0.53590  0.41410  Biso   1.000  H
  C69      1.0000 0.03150  0.61020  0.26900  Biso   1.000  C
  H39      1.0000 0.08280  0.65110  0.29300  Biso   1.000  H
  C70      1.0000 0.00590  0.61670  0.16230  Biso   1.000  C
  C71      1.0000 0.90340  0.48190  0.30900  Biso   1.000  C
  C72      1.0000 0.87950  0.48690  0.20190  Biso   1.000  C
  H40      1.0000 0.82880  0.44450  0.17780  Biso   1.000  H
  C73      1.0000 0.92940  0.55350  0.12950  Biso   1.000  C
  H41      1.0000 0.91160  0.55650  0.05710  Biso   1.000  H
  C74      1.0000 0.84700  0.40460  0.38430  Biso   1.000  C
  C75      1.0000 0.15150  0.69280  0.08280  Biso   1.000  C
  H42      1.0000 0.18290  0.65690  0.13980  Biso   1.000  H
  C76      1.0000 0.05820  0.68880  0.08120  Biso   1.000  C
  In2      1.0000 0.75000  0.25000  0.50000  Biso   1.000  In
  C77      1.0000 0.19910  0.75000  0.00000  Biso   1.000  C
  C78      1.0000 0.01210  0.75000  0.00000  Biso   1.000  C
  H43      1.0000 0.94910  0.75000  0.00000  Biso   1.000  H
  C79      1.0000 0.30090  0.75000  0.00000  Biso   1.000  C
  C80      1.0000 0.48790  0.75000  0.00000  Biso   1.000  C
  H44      1.0000 0.55090  0.75000  0.00000  Biso   1.000  H
