data_image0
_cell_length_a       13.7195
_cell_length_b       13.6998
_cell_length_c       18.1247
_cell_angle_alpha    77.634
_cell_angle_beta     77.225
_cell_angle_gamma    63.562

_symmetry_space_group_name_H-M    "P 1"
_symmetry_int_tables_number       1

loop_
  _symmetry_equiv_pos_as_xyz
  'x, y, z'

loop_
  _atom_site_label
  _atom_site_occupancy
  _atom_site_fract_x
  _atom_site_fract_y
  _atom_site_fract_z
  _atom_site_thermal_displace_type
  _atom_site_B_iso_or_equiv
  _atom_site_type_symbol
  Co1      1.0000 0.96921  0.21290  0.12336  Biso   1.000  Co
  S1       1.0000 0.15360  0.82179  0.13762  Biso   1.000  S
  S2       1.0000 0.73376  0.58891  0.08803  Biso   1.000  S
  N1       1.0000 0.99970  0.25790  0.99910  Biso   1.000  N
  N2       1.0000 0.94990  0.16380  0.24820  Biso   1.000  N
  N3       1.0000 0.81600  0.20180  0.11940  Biso   1.000  N
  N4       1.0000 0.12400  0.22350  0.13090  Biso   1.000  N
  N5       1.0000 0.05730  0.04800  0.10910  Biso   1.000  N
  N6       1.0000 0.88010  0.37750  0.13750  Biso   1.000  N
  C1       1.0000 0.09590  0.20180  0.95980  Biso   1.000  C
  H1       1.0000 0.14490  0.13630  0.98330  Biso   1.000  H
  C2       1.0000 0.12510  0.23850  0.88460  Biso   1.000  C
  H2       1.0000 0.19470  0.19860  0.85980  Biso   1.000  H
  C3       1.0000 0.05810  0.32760  0.84720  Biso   1.000  C
  C4       1.0000 0.95680  0.38740  0.88690  Biso   1.000  C
  H3       1.0000 0.90560  0.45170  0.86390  Biso   1.000  H
  C5       1.0000 0.93650  0.34850  0.95900  Biso   1.000  C
  H4       1.0000 0.86870  0.39030  0.98510  Biso   1.000  H
  C6       1.0000 0.04060  0.18420  0.95010  Biso   1.000  C
  H5       1.0000 0.04610  0.11350  0.96890  Biso   1.000  H
  C7       1.0000 0.07580  0.20630  0.87230  Biso   1.000  C
  H6       1.0000 0.10650  0.15350  0.83920  Biso   1.000  H
  C8       1.0000 0.02310  0.38420  0.89360  Biso   1.000  C
  H7       1.0000 0.01210  0.45720  0.87810  Biso   1.000  H
  C9       1.0000 0.99600  0.35530  0.96910  Biso   1.000  C
  H8       1.0000 0.97350  0.40790  0.00160  Biso   1.000  H
  C10      1.0000 0.09360  0.36420  0.76780  Biso   1.000  C
  H9       1.0000 0.06510  0.34040  0.73670  Biso   1.000  H
  C11      1.0000 0.95290  0.06520  0.27950  Biso   1.000  C
  H10      1.0000 0.94870  0.02160  0.24850  Biso   1.000  H
  C12      1.0000 0.96180  0.02470  0.35550  Biso   1.000  C
  H11      1.0000 0.96310  0.95570  0.37530  Biso   1.000  H
  C13      1.0000 0.96900  0.08950  0.40200  Biso   1.000  C
  C14      1.0000 0.96070  0.19130  0.37130  Biso   1.000  C
  H12      1.0000 0.96180  0.23810  0.40110  Biso   1.000  H
  C15      1.0000 0.95070  0.22390  0.29660  Biso   1.000  C
  H13      1.0000 0.94360  0.29490  0.27710  Biso   1.000  H
  C16      1.0000 0.98800  0.04960  0.48260  Biso   1.000  C
  H14      1.0000 0.98190  0.10130  0.51130  Biso   1.000  H
  C17      1.0000 0.81080  0.13860  0.07630  Biso   1.000  C
  H15      1.0000 0.87430  0.09960  0.04490  Biso   1.000  H
  C18      1.0000 0.71620  0.12720  0.07520  Biso   1.000  C
  H16      1.0000 0.71660  0.08020  0.04480  Biso   1.000  H
  C19      1.0000 0.62140  0.18660  0.12000  Biso   1.000  C
  C20      1.0000 0.62610  0.25050  0.16410  Biso   1.000  C
  H17      1.0000 0.56330  0.29110  0.19540  Biso   1.000  H
  C21      1.0000 0.72230  0.25590  0.16320  Biso   1.000  C
  H18      1.0000 0.72340  0.30020  0.19510  Biso   1.000  H
  C22      1.0000 0.51780  0.17750  0.11930  Biso   1.000  C
  H19      1.0000 0.52470  0.11650  0.10030  Biso   1.000  H
  C23      1.0000 0.21710  0.14030  0.13440  Biso   1.000  C
  H20      1.0000 0.21820  0.07200  0.13440  Biso   1.000  H
  C24      1.0000 0.31550  0.14160  0.13810  Biso   1.000  C
  H21      1.0000 0.37900  0.07660  0.14100  Biso   1.000  H
  C25      1.0000 0.31830  0.23620  0.13760  Biso   1.000  C
  C26      1.0000 0.22340  0.32220  0.13950  Biso   1.000  C
  H22      1.0000 0.21940  0.38980  0.14550  Biso   1.000  H
  C27      1.0000 0.13040  0.31360  0.13280  Biso   1.000  C
  H23      1.0000 0.06660  0.37830  0.12930  Biso   1.000  H
  C28      1.0000 0.42160  0.24340  0.14170  Biso   1.000  C
  H24      1.0000 0.41450  0.30270  0.16300  Biso   1.000  H
  C29      1.0000 0.09720  0.95490  0.12090  Biso   1.000  C
  C30      1.0000 0.81900  0.46540  0.11900  Biso   1.000  C
  Co2      1.0000 0.28713  0.53075  0.37657  Biso   1.000  Co
  S3       1.0000 0.67838  0.34610  0.36235  Biso   1.000  S
  S4       1.0000 0.91119  0.76622  0.41188  Biso   1.000  S
  N7       1.0000 0.24210  0.50010  0.50080  Biso   1.000  N
  N8       1.0000 0.33550  0.55020  0.25180  Biso   1.000  N
  N9       1.0000 0.29880  0.68390  0.38050  Biso   1.000  N
  N10      1.0000 0.27690  0.37600  0.36930  Biso   1.000  N
  N11      1.0000 0.45200  0.44240  0.39130  Biso   1.000  N
  N12      1.0000 0.12250  0.61980  0.36270  Biso   1.000  N
  C31      1.0000 0.29700  0.40420  0.53890  Biso   1.000  C
  H25      1.0000 0.36220  0.35480  0.51470  Biso   1.000  H
  C32      1.0000 0.25960  0.37490  0.61480  Biso   1.000  C
  H26      1.0000 0.29840  0.30480  0.63890  Biso   1.000  H
  C33      1.0000 0.17230  0.44250  0.65270  Biso   1.000  C
  C34      1.0000 0.11220  0.54420  0.61210  Biso   1.000  C
  H27      1.0000 0.04710  0.59510  0.63520  Biso   1.000  H
  C35      1.0000 0.15130  0.56510  0.53990  Biso   1.000  C
  H28      1.0000 0.11040  0.63290  0.51400  Biso   1.000  H
  C36      1.0000 0.31370  0.45950  0.55010  Biso   1.000  C
  H29      1.0000 0.38270  0.45920  0.53170  Biso   1.000  H
  C37      1.0000 0.29640  0.41800  0.62590  Biso   1.000  C
  H30      1.0000 0.35130  0.37960  0.65680  Biso   1.000  H
  C38      1.0000 0.11600  0.47650  0.60710  Biso   1.000  C
  H31      1.0000 0.04350  0.48570  0.62280  Biso   1.000  H
  C39      1.0000 0.14520  0.50520  0.53100  Biso   1.000  C
  H32      1.0000 0.09210  0.52990  0.49900  Biso   1.000  H
  C40      1.0000 0.13620  0.40450  0.73310  Biso   1.000  C
  H33      1.0000 0.16510  0.42770  0.76430  Biso   1.000  H
  C41      1.0000 0.43470  0.54720  0.22050  Biso   1.000  C
  H34      1.0000 0.47810  0.55130  0.25150  Biso   1.000  H
  C42      1.0000 0.47540  0.53810  0.14390  Biso   1.000  C
  H35      1.0000 0.54430  0.53700  0.12380  Biso   1.000  H
  C43      1.0000 0.41090  0.53050  0.09810  Biso   1.000  C
  C44      1.0000 0.30930  0.53960  0.12870  Biso   1.000  C
  H36      1.0000 0.26270  0.53920  0.09870  Biso   1.000  H
  C45      1.0000 0.27590  0.54910  0.20330  Biso   1.000  C
  H37      1.0000 0.20500  0.55550  0.22280  Biso   1.000  H
  C46      1.0000 0.45030  0.51210  0.01720  Biso   1.000  C
  H38      1.0000 0.39880  0.51840  0.98860  Biso   1.000  H
  C47      1.0000 0.36130  0.68950  0.42400  Biso   1.000  C
  H39      1.0000 0.39920  0.62670  0.45580  Biso   1.000  H
  C48      1.0000 0.37270  0.78400  0.42440  Biso   1.000  C
  H40      1.0000 0.41990  0.78420  0.45410  Biso   1.000  H
  C49      1.0000 0.31330  0.87840  0.38000  Biso   1.000  C
  C50      1.0000 0.24990  0.87390  0.33560  Biso   1.000  C
  H41      1.0000 0.21010  0.93610  0.30420  Biso   1.000  H
  C51      1.0000 0.24460  0.77720  0.33710  Biso   1.000  C
  H42      1.0000 0.20010  0.77550  0.30580  Biso   1.000  H
  C52      1.0000 0.32230  0.98270  0.38020  Biso   1.000  C
  H43      1.0000 0.38340  0.97580  0.39870  Biso   1.000  H
  C53      1.0000 0.18670  0.36990  0.36620  Biso   1.000  C
  H44      1.0000 0.12260  0.43450  0.36740  Biso   1.000  H
  C54      1.0000 0.17760  0.27570  0.36130  Biso   1.000  C
  H45      1.0000 0.10980  0.27890  0.35730  Biso   1.000  H
  C55      1.0000 0.26410  0.18170  0.36210  Biso   1.000  C
  C56      1.0000 0.35840  0.18490  0.36090  Biso   1.000  C
  H46      1.0000 0.42360  0.12160  0.35690  Biso   1.000  H
  C57      1.0000 0.35980  0.28300  0.36570  Biso   1.000  C
  H47      1.0000 0.42800  0.28160  0.36630  Biso   1.000  H
  C58      1.0000 0.25690  0.07870  0.35850  Biso   1.000  C
  H48      1.0000 0.19750  0.08560  0.33790  Biso   1.000  H
  C59      1.0000 0.54520  0.40260  0.37900  Biso   1.000  C
  C60      1.0000 0.03470  0.68150  0.38130  Biso   1.000  C
  Co3      1.0000 0.03079  0.78710  0.87664  Biso   1.000  Co
  S5       1.0000 0.84640  0.17821  0.86238  Biso   1.000  S
  S6       1.0000 0.26624  0.41109  0.91197  Biso   1.000  S
  N13      1.0000 0.00030  0.74210  0.00090  Biso   1.000  N
  N14      1.0000 0.05010  0.83620  0.75180  Biso   1.000  N
  N15      1.0000 0.18400  0.79820  0.88060  Biso   1.000  N
  N16      1.0000 0.87600  0.77650  0.86910  Biso   1.000  N
  N17      1.0000 0.94270  0.95200  0.89090  Biso   1.000  N
  N18      1.0000 0.11990  0.62250  0.86250  Biso   1.000  N
  C61      1.0000 0.90410  0.79820  0.04020  Biso   1.000  C
  H49      1.0000 0.85510  0.86370  0.01670  Biso   1.000  H
  C62      1.0000 0.87490  0.76150  0.11540  Biso   1.000  C
  H50      1.0000 0.80530  0.80140  0.14020  Biso   1.000  H
  C63      1.0000 0.94190  0.67240  0.15280  Biso   1.000  C
  C64      1.0000 0.04320  0.61260  0.11310  Biso   1.000  C
  H51      1.0000 0.09440  0.54830  0.13610  Biso   1.000  H
  C65      1.0000 0.06350  0.65150  0.04100  Biso   1.000  C
  H52      1.0000 0.13130  0.60970  0.01490  Biso   1.000  H
  C66      1.0000 0.95940  0.81580  0.04990  Biso   1.000  C
  H53      1.0000 0.95390  0.88650  0.03110  Biso   1.000  H
  C67      1.0000 0.92420  0.79370  0.12770  Biso   1.000  C
  H54      1.0000 0.89350  0.84650  0.16080  Biso   1.000  H
  C68      1.0000 0.97690  0.61580  0.10640  Biso   1.000  C
  H55      1.0000 0.98790  0.54280  0.12190  Biso   1.000  H
  C69      1.0000 0.00400  0.64470  0.03090  Biso   1.000  C
  H56      1.0000 0.02650  0.59210  0.99840  Biso   1.000  H
  C70      1.0000 0.90640  0.63580  0.23220  Biso   1.000  C
  H57      1.0000 0.93490  0.65960  0.26330  Biso   1.000  H
  C71      1.0000 0.04710  0.93480  0.72050  Biso   1.000  C
  H58      1.0000 0.05130  0.97840  0.75150  Biso   1.000  H
  C72      1.0000 0.03820  0.97530  0.64450  Biso   1.000  C
  H59      1.0000 0.03690  0.04430  0.62470  Biso   1.000  H
  C73      1.0000 0.03100  0.91050  0.59800  Biso   1.000  C
  C74      1.0000 0.03930  0.80870  0.62870  Biso   1.000  C
  H60      1.0000 0.03820  0.76190  0.59890  Biso   1.000  H
  C75      1.0000 0.04930  0.77610  0.70340  Biso   1.000  C
  H61      1.0000 0.05640  0.70510  0.72290  Biso   1.000  H
  C76      1.0000 0.01200  0.95040  0.51740  Biso   1.000  C
  H62      1.0000 0.01810  0.89870  0.48870  Biso   1.000  H
  C77      1.0000 0.18920  0.86140  0.92370  Biso   1.000  C
  H63      1.0000 0.12570  0.90040  0.95510  Biso   1.000  H
  C78      1.0000 0.28380  0.87280  0.92480  Biso   1.000  C
  H64      1.0000 0.28340  0.91980  0.95520  Biso   1.000  H
  C79      1.0000 0.37860  0.81340  0.88000  Biso   1.000  C
  C80      1.0000 0.37390  0.74950  0.83590  Biso   1.000  C
  H65      1.0000 0.43670  0.70890  0.80460  Biso   1.000  H
  C81      1.0000 0.27770  0.74410  0.83680  Biso   1.000  C
  H66      1.0000 0.27660  0.69980  0.80490  Biso   1.000  H
  C82      1.0000 0.48220  0.82250  0.88070  Biso   1.000  C
  H67      1.0000 0.47530  0.88350  0.89970  Biso   1.000  H
  C83      1.0000 0.78290  0.85970  0.86560  Biso   1.000  C
  H68      1.0000 0.78180  0.92800  0.86560  Biso   1.000  H
  C84      1.0000 0.68450  0.85840  0.86190  Biso   1.000  C
  H69      1.0000 0.62100  0.92340  0.85900  Biso   1.000  H
  C85      1.0000 0.68170  0.76380  0.86240  Biso   1.000  C
  C86      1.0000 0.77660  0.67780  0.86050  Biso   1.000  C
  H70      1.0000 0.78060  0.61020  0.85450  Biso   1.000  H
  C87      1.0000 0.86960  0.68640  0.86720  Biso   1.000  C
  H71      1.0000 0.93340  0.62170  0.87070  Biso   1.000  H
  C88      1.0000 0.57840  0.75660  0.85830  Biso   1.000  C
  H72      1.0000 0.58550  0.69730  0.83700  Biso   1.000  H
  C89      1.0000 0.90280  0.04510  0.87910  Biso   1.000  C
  C90      1.0000 0.18100  0.53460  0.88100  Biso   1.000  C
  Co4      1.0000 0.71287  0.46925  0.62343  Biso   1.000  Co
  S7       1.0000 0.32162  0.65390  0.63765  Biso   1.000  S
  S8       1.0000 0.08881  0.23378  0.58812  Biso   1.000  S
  N19      1.0000 0.75790  0.49990  0.49920  Biso   1.000  N
  N20      1.0000 0.66450  0.44980  0.74820  Biso   1.000  N
  N21      1.0000 0.70120  0.31610  0.61950  Biso   1.000  N
  N22      1.0000 0.72310  0.62400  0.63070  Biso   1.000  N
  N23      1.0000 0.54800  0.55760  0.60870  Biso   1.000  N
  N24      1.0000 0.87750  0.38020  0.63730  Biso   1.000  N
  C91      1.0000 0.70300  0.59580  0.46110  Biso   1.000  C
  H73      1.0000 0.63780  0.64520  0.48530  Biso   1.000  H
  C92      1.0000 0.74040  0.62510  0.38520  Biso   1.000  C
  H74      1.0000 0.70160  0.69520  0.36110  Biso   1.000  H
  C93      1.0000 0.82770  0.55750  0.34730  Biso   1.000  C
  C94      1.0000 0.88780  0.45580  0.38790  Biso   1.000  C
  H75      1.0000 0.95290  0.40490  0.36480  Biso   1.000  H
  C95      1.0000 0.84870  0.43490  0.46010  Biso   1.000  C
  H76      1.0000 0.88960  0.36710  0.48600  Biso   1.000  H
  C96      1.0000 0.68630  0.54050  0.44990  Biso   1.000  C
  H77      1.0000 0.61730  0.54080  0.46830  Biso   1.000  H
  C97      1.0000 0.70360  0.58200  0.37410  Biso   1.000  C
  H78      1.0000 0.64870  0.62040  0.34320  Biso   1.000  H
  C98      1.0000 0.88400  0.52350  0.39290  Biso   1.000  C
  H79      1.0000 0.95650  0.51430  0.37720  Biso   1.000  H
  C99      1.0000 0.85480  0.49480  0.46900  Biso   1.000  C
  H80      1.0000 0.90790  0.47010  0.50100  Biso   1.000  H
  C100     1.0000 0.86380  0.59550  0.26690  Biso   1.000  C
  H81      1.0000 0.83490  0.57230  0.23570  Biso   1.000  H
  C101     1.0000 0.56530  0.45280  0.77950  Biso   1.000  C
  H82      1.0000 0.52190  0.44870  0.74850  Biso   1.000  H
  C102     1.0000 0.52460  0.46190  0.85610  Biso   1.000  C
  H83      1.0000 0.45570  0.46300  0.87620  Biso   1.000  H
  C103     1.0000 0.58910  0.46950  0.90190  Biso   1.000  C
  C104     1.0000 0.69070  0.46040  0.87130  Biso   1.000  C
  H84      1.0000 0.73730  0.46080  0.90130  Biso   1.000  H
  C105     1.0000 0.72410  0.45090  0.79670  Biso   1.000  C
  H85      1.0000 0.79500  0.44450  0.77720  Biso   1.000  H
  C106     1.0000 0.54970  0.48790  0.98280  Biso   1.000  C
  H86      1.0000 0.60120  0.48160  0.01140  Biso   1.000  H
  C107     1.0000 0.63870  0.31050  0.57600  Biso   1.000  C
  H87      1.0000 0.60080  0.37330  0.54420  Biso   1.000  H
  C108     1.0000 0.62730  0.21600  0.57560  Biso   1.000  C
  H88      1.0000 0.58010  0.21580  0.54590  Biso   1.000  H
  C109     1.0000 0.68670  0.12160  0.62000  Biso   1.000  C
  C110     1.0000 0.75010  0.12610  0.66440  Biso   1.000  C
  H89      1.0000 0.78990  0.06390  0.69580  Biso   1.000  H
  C111     1.0000 0.75540  0.22280  0.66290  Biso   1.000  C
  H90      1.0000 0.79990  0.22450  0.69420  Biso   1.000  H
  C112     1.0000 0.67770  0.01730  0.61980  Biso   1.000  C
  H91      1.0000 0.61660  0.02420  0.60130  Biso   1.000  H
  C113     1.0000 0.81330  0.63010  0.63380  Biso   1.000  C
  H92      1.0000 0.87740  0.56550  0.63260  Biso   1.000  H
  C114     1.0000 0.82240  0.72430  0.63870  Biso   1.000  C
  H93      1.0000 0.89020  0.72110  0.64270  Biso   1.000  H
  C115     1.0000 0.73590  0.81830  0.63790  Biso   1.000  C
  C116     1.0000 0.64160  0.81510  0.63910  Biso   1.000  C
  H94      1.0000 0.57640  0.87840  0.64310  Biso   1.000  H
  C117     1.0000 0.64020  0.71700  0.63430  Biso   1.000  C
  H95      1.0000 0.57200  0.71840  0.63370  Biso   1.000  H
  C118     1.0000 0.74310  0.92130  0.64150  Biso   1.000  C
  H96      1.0000 0.80250  0.91440  0.66210  Biso   1.000  H
  C119     1.0000 0.45480  0.59740  0.62100  Biso   1.000  C
  C120     1.0000 0.96530  0.31850  0.61870  Biso   1.000  C
