data_image0
_cell_length_a       20.1401
_cell_length_b       20.1401
_cell_length_c       20.1401
_cell_angle_alpha    90
_cell_angle_beta     90
_cell_angle_gamma    90

_symmetry_space_group_name_H-M    "P 1"
_symmetry_int_tables_number       1

loop_
  _symmetry_equiv_pos_as_xyz
  'x, y, z'

loop_
  _atom_site_label
  _atom_site_occupancy
  _atom_site_fract_x
  _atom_site_fract_y
  _atom_site_fract_z
  _atom_site_thermal_displace_type
  _atom_site_B_iso_or_equiv
  _atom_site_type_symbol
  O1       1.0000 0.95380  0.53860  0.09420  Biso   1.000  O
  O2       1.0000 0.87100  0.47800  0.12460  Biso   1.000  O
  C1       1.0000 0.90510  0.52690  0.12970  Biso   1.000  C
  C2       1.0000 0.85570  0.55910  0.18300  Biso   1.000  C
  C3       1.0000 0.88210  0.61640  0.21110  Biso   1.000  C
  H1       1.0000 0.92120  0.63440  0.19440  Biso   1.000  H
  C4       1.0000 0.85010  0.64670  0.26420  Biso   1.000  C
  C5       1.0000 0.79160  0.61980  0.28920  Biso   1.000  C
  C6       1.0000 0.76520  0.56250  0.26100  Biso   1.000  C
  H2       1.0000 0.72610  0.54450  0.27770  Biso   1.000  H
  C7       1.0000 0.79720  0.53220  0.20790  Biso   1.000  C
  H3       1.0000 0.77950  0.49400  0.18910  Biso   1.000  H
  C8       1.0000 0.89630  0.58270  0.18010  Biso   1.000  C
  C9       1.0000 0.93980  0.63600  0.18440  Biso   1.000  C
  H4       1.0000 0.97460  0.63990  0.15420  Biso   1.000  H
  C10      1.0000 0.93140  0.68360  0.23360  Biso   1.000  C
  H5       1.0000 0.96050  0.71930  0.23640  Biso   1.000  H
  C11      1.0000 0.87940  0.67790  0.27860  Biso   1.000  C
  C12      1.0000 0.83580  0.62460  0.27440  Biso   1.000  C
  C13      1.0000 0.84420  0.57690  0.22510  Biso   1.000  C
  H6       1.0000 0.81510  0.54120  0.22230  Biso   1.000  H
  O3       1.0000 0.54620  0.46140  0.59420  Biso   1.000  O
  O4       1.0000 0.62900  0.52200  0.62460  Biso   1.000  O
  C14      1.0000 0.59490  0.47310  0.62970  Biso   1.000  C
  C15      1.0000 0.64430  0.44090  0.68300  Biso   1.000  C
  C16      1.0000 0.61790  0.38360  0.71110  Biso   1.000  C
  H7       1.0000 0.57880  0.36560  0.69440  Biso   1.000  H
  C17      1.0000 0.64990  0.35330  0.76420  Biso   1.000  C
  C18      1.0000 0.70840  0.38020  0.78920  Biso   1.000  C
  C19      1.0000 0.73480  0.43750  0.76100  Biso   1.000  C
  H8       1.0000 0.77390  0.45550  0.77770  Biso   1.000  H
  C20      1.0000 0.70280  0.46780  0.70790  Biso   1.000  C
  H9       1.0000 0.72050  0.50600  0.68910  Biso   1.000  H
  C21      1.0000 0.60370  0.41730  0.68010  Biso   1.000  C
  C22      1.0000 0.56020  0.36400  0.68440  Biso   1.000  C
  H10      1.0000 0.52540  0.36010  0.65420  Biso   1.000  H
  C23      1.0000 0.56860  0.31640  0.73360  Biso   1.000  C
  H11      1.0000 0.53950  0.28070  0.73640  Biso   1.000  H
  C24      1.0000 0.62060  0.32210  0.77860  Biso   1.000  C
  C25      1.0000 0.66420  0.37540  0.77440  Biso   1.000  C
  C26      1.0000 0.65580  0.42310  0.72510  Biso   1.000  C
  H12      1.0000 0.68490  0.45880  0.72230  Biso   1.000  H
  O5       1.0000 0.04620  0.03860  0.40580  Biso   1.000  O
  O6       1.0000 0.12900  0.97800  0.37540  Biso   1.000  O
  C27      1.0000 0.09490  0.02690  0.37030  Biso   1.000  C
  C28      1.0000 0.14430  0.05910  0.31700  Biso   1.000  C
  C29      1.0000 0.11790  0.11640  0.28890  Biso   1.000  C
  H13      1.0000 0.07880  0.13440  0.30560  Biso   1.000  H
  C30      1.0000 0.14990  0.14670  0.23580  Biso   1.000  C
  C31      1.0000 0.20840  0.11980  0.21080  Biso   1.000  C
  C32      1.0000 0.23480  0.06250  0.23900  Biso   1.000  C
  H14      1.0000 0.27390  0.04450  0.22230  Biso   1.000  H
  C33      1.0000 0.20280  0.03220  0.29210  Biso   1.000  C
  H15      1.0000 0.22050  0.99400  0.31090  Biso   1.000  H
  C34      1.0000 0.10370  0.08270  0.31990  Biso   1.000  C
  C35      1.0000 0.06020  0.13600  0.31560  Biso   1.000  C
  H16      1.0000 0.02540  0.13990  0.34580  Biso   1.000  H
  C36      1.0000 0.06860  0.18360  0.26640  Biso   1.000  C
  H17      1.0000 0.03950  0.21930  0.26360  Biso   1.000  H
  C37      1.0000 0.12060  0.17790  0.22140  Biso   1.000  C
  C38      1.0000 0.16420  0.12460  0.22560  Biso   1.000  C
  C39      1.0000 0.15580  0.07690  0.27490  Biso   1.000  C
  H18      1.0000 0.18490  0.04120  0.27770  Biso   1.000  H
  O7       1.0000 0.45380  0.96140  0.90580  Biso   1.000  O
  O8       1.0000 0.37100  0.02200  0.87540  Biso   1.000  O
  C40      1.0000 0.40510  0.97310  0.87030  Biso   1.000  C
  C41      1.0000 0.35570  0.94090  0.81700  Biso   1.000  C
  C42      1.0000 0.38210  0.88360  0.78890  Biso   1.000  C
  H19      1.0000 0.42120  0.86560  0.80560  Biso   1.000  H
  C43      1.0000 0.35010  0.85330  0.73580  Biso   1.000  C
  C44      1.0000 0.29160  0.88020  0.71080  Biso   1.000  C
  C45      1.0000 0.26520  0.93750  0.73900  Biso   1.000  C
  H20      1.0000 0.22610  0.95550  0.72230  Biso   1.000  H
  C46      1.0000 0.29720  0.96780  0.79210  Biso   1.000  C
  H21      1.0000 0.27950  0.00600  0.81090  Biso   1.000  H
  C47      1.0000 0.39630  0.91730  0.81990  Biso   1.000  C
  C48      1.0000 0.43980  0.86400  0.81560  Biso   1.000  C
  H22      1.0000 0.47460  0.86010  0.84580  Biso   1.000  H
  C49      1.0000 0.43140  0.81640  0.76640  Biso   1.000  C
  H23      1.0000 0.46050  0.78070  0.76360  Biso   1.000  H
  C50      1.0000 0.37940  0.82210  0.72140  Biso   1.000  C
  C51      1.0000 0.33580  0.87540  0.72560  Biso   1.000  C
  C52      1.0000 0.34420  0.92310  0.77490  Biso   1.000  C
  H24      1.0000 0.31510  0.95880  0.77770  Biso   1.000  H
  O9       1.0000 0.09420  0.95380  0.53860  Biso   1.000  O
  O10      1.0000 0.12460  0.87100  0.47800  Biso   1.000  O
  C53      1.0000 0.12970  0.90510  0.52690  Biso   1.000  C
  C54      1.0000 0.18300  0.85570  0.55910  Biso   1.000  C
  C55      1.0000 0.21110  0.88210  0.61640  Biso   1.000  C
  H25      1.0000 0.19440  0.92120  0.63440  Biso   1.000  H
  C56      1.0000 0.26420  0.85010  0.64670  Biso   1.000  C
  C57      1.0000 0.28920  0.79160  0.61980  Biso   1.000  C
  C58      1.0000 0.26100  0.76520  0.56250  Biso   1.000  C
  H26      1.0000 0.27770  0.72610  0.54450  Biso   1.000  H
  C59      1.0000 0.20790  0.79720  0.53220  Biso   1.000  C
  H27      1.0000 0.18910  0.77950  0.49400  Biso   1.000  H
  C60      1.0000 0.18010  0.89630  0.58270  Biso   1.000  C
  C61      1.0000 0.18440  0.93980  0.63600  Biso   1.000  C
  H28      1.0000 0.15420  0.97460  0.63990  Biso   1.000  H
  C62      1.0000 0.23360  0.93140  0.68360  Biso   1.000  C
  H29      1.0000 0.23640  0.96050  0.71930  Biso   1.000  H
  C63      1.0000 0.27860  0.87940  0.67790  Biso   1.000  C
  C64      1.0000 0.27440  0.83580  0.62460  Biso   1.000  C
  C65      1.0000 0.22510  0.84420  0.57690  Biso   1.000  C
  H30      1.0000 0.22230  0.81510  0.54120  Biso   1.000  H
  O11      1.0000 0.59420  0.54620  0.46140  Biso   1.000  O
  O12      1.0000 0.62460  0.62900  0.52200  Biso   1.000  O
  C66      1.0000 0.62970  0.59490  0.47310  Biso   1.000  C
  C67      1.0000 0.68300  0.64430  0.44090  Biso   1.000  C
  C68      1.0000 0.71110  0.61790  0.38360  Biso   1.000  C
  H31      1.0000 0.69440  0.57880  0.36560  Biso   1.000  H
  C69      1.0000 0.76420  0.64990  0.35330  Biso   1.000  C
  C70      1.0000 0.78920  0.70840  0.38020  Biso   1.000  C
  C71      1.0000 0.76100  0.73480  0.43750  Biso   1.000  C
  H32      1.0000 0.77770  0.77390  0.45550  Biso   1.000  H
  C72      1.0000 0.70790  0.70280  0.46780  Biso   1.000  C
  H33      1.0000 0.68910  0.72050  0.50600  Biso   1.000  H
  C73      1.0000 0.68010  0.60370  0.41730  Biso   1.000  C
  C74      1.0000 0.68440  0.56020  0.36400  Biso   1.000  C
  H34      1.0000 0.65420  0.52540  0.36010  Biso   1.000  H
  C75      1.0000 0.73360  0.56860  0.31640  Biso   1.000  C
  H35      1.0000 0.73640  0.53950  0.28070  Biso   1.000  H
  C76      1.0000 0.77860  0.62060  0.32210  Biso   1.000  C
  C77      1.0000 0.77440  0.66420  0.37540  Biso   1.000  C
  C78      1.0000 0.72510  0.65580  0.42310  Biso   1.000  C
  H36      1.0000 0.72230  0.68490  0.45880  Biso   1.000  H
  O13      1.0000 0.40580  0.04620  0.03860  Biso   1.000  O
  O14      1.0000 0.37540  0.12900  0.97800  Biso   1.000  O
  C79      1.0000 0.37030  0.09490  0.02690  Biso   1.000  C
  C80      1.0000 0.31700  0.14430  0.05910  Biso   1.000  C
  C81      1.0000 0.28890  0.11790  0.11640  Biso   1.000  C
  H37      1.0000 0.30560  0.07880  0.13440  Biso   1.000  H
  C82      1.0000 0.23580  0.14990  0.14670  Biso   1.000  C
  C83      1.0000 0.21080  0.20840  0.11980  Biso   1.000  C
  C84      1.0000 0.23900  0.23480  0.06250  Biso   1.000  C
  H38      1.0000 0.22230  0.27390  0.04450  Biso   1.000  H
  C85      1.0000 0.29210  0.20280  0.03220  Biso   1.000  C
  H39      1.0000 0.31090  0.22050  0.99400  Biso   1.000  H
  C86      1.0000 0.31990  0.10370  0.08270  Biso   1.000  C
  C87      1.0000 0.31560  0.06020  0.13600  Biso   1.000  C
  H40      1.0000 0.34580  0.02540  0.13990  Biso   1.000  H
  C88      1.0000 0.26640  0.06860  0.18360  Biso   1.000  C
  H41      1.0000 0.26360  0.03950  0.21930  Biso   1.000  H
  C89      1.0000 0.22140  0.12060  0.17790  Biso   1.000  C
  C90      1.0000 0.22560  0.16420  0.12460  Biso   1.000  C
  C91      1.0000 0.27490  0.15580  0.07690  Biso   1.000  C
  H42      1.0000 0.27770  0.18490  0.04120  Biso   1.000  H
  O15      1.0000 0.90580  0.45380  0.96140  Biso   1.000  O
  O16      1.0000 0.87540  0.37100  0.02200  Biso   1.000  O
  C92      1.0000 0.87030  0.40510  0.97310  Biso   1.000  C
  C93      1.0000 0.81700  0.35570  0.94090  Biso   1.000  C
  C94      1.0000 0.78890  0.38210  0.88360  Biso   1.000  C
  H43      1.0000 0.80560  0.42120  0.86560  Biso   1.000  H
  C95      1.0000 0.73580  0.35010  0.85330  Biso   1.000  C
  C96      1.0000 0.71080  0.29160  0.88020  Biso   1.000  C
  C97      1.0000 0.73900  0.26520  0.93750  Biso   1.000  C
  H44      1.0000 0.72230  0.22610  0.95550  Biso   1.000  H
  C98      1.0000 0.79210  0.29720  0.96780  Biso   1.000  C
  H45      1.0000 0.81090  0.27950  0.00600  Biso   1.000  H
  C99      1.0000 0.81990  0.39630  0.91730  Biso   1.000  C
  C100     1.0000 0.81560  0.43980  0.86400  Biso   1.000  C
  H46      1.0000 0.84580  0.47460  0.86010  Biso   1.000  H
  C101     1.0000 0.76640  0.43140  0.81640  Biso   1.000  C
  H47      1.0000 0.76360  0.46050  0.78070  Biso   1.000  H
  C102     1.0000 0.72140  0.37940  0.82210  Biso   1.000  C
  C103     1.0000 0.72560  0.33580  0.87540  Biso   1.000  C
  C104     1.0000 0.77490  0.34420  0.92310  Biso   1.000  C
  H48      1.0000 0.77770  0.31510  0.95880  Biso   1.000  H
  O17      1.0000 0.53860  0.09420  0.95380  Biso   1.000  O
  O18      1.0000 0.47800  0.12460  0.87100  Biso   1.000  O
  C105     1.0000 0.52690  0.12970  0.90510  Biso   1.000  C
  C106     1.0000 0.55910  0.18300  0.85570  Biso   1.000  C
  C107     1.0000 0.61640  0.21110  0.88210  Biso   1.000  C
  H49      1.0000 0.63440  0.19440  0.92120  Biso   1.000  H
  C108     1.0000 0.64670  0.26420  0.85010  Biso   1.000  C
  C109     1.0000 0.61980  0.28920  0.79160  Biso   1.000  C
  C110     1.0000 0.56250  0.26100  0.76520  Biso   1.000  C
  H50      1.0000 0.54450  0.27770  0.72610  Biso   1.000  H
  C111     1.0000 0.53220  0.20790  0.79720  Biso   1.000  C
  H51      1.0000 0.49400  0.18910  0.77950  Biso   1.000  H
  C112     1.0000 0.58270  0.18010  0.89630  Biso   1.000  C
  C113     1.0000 0.63600  0.18440  0.93980  Biso   1.000  C
  H52      1.0000 0.63990  0.15420  0.97460  Biso   1.000  H
  C114     1.0000 0.68360  0.23360  0.93140  Biso   1.000  C
  H53      1.0000 0.71930  0.23640  0.96050  Biso   1.000  H
  C115     1.0000 0.67790  0.27860  0.87940  Biso   1.000  C
  C116     1.0000 0.62460  0.27440  0.83580  Biso   1.000  C
  C117     1.0000 0.57690  0.22510  0.84420  Biso   1.000  C
  H54      1.0000 0.54120  0.22230  0.81510  Biso   1.000  H
  O19      1.0000 0.46140  0.59420  0.54620  Biso   1.000  O
  O20      1.0000 0.52200  0.62460  0.62900  Biso   1.000  O
  C118     1.0000 0.47310  0.62970  0.59490  Biso   1.000  C
  C119     1.0000 0.44090  0.68300  0.64430  Biso   1.000  C
  C120     1.0000 0.38360  0.71110  0.61790  Biso   1.000  C
  H55      1.0000 0.36560  0.69440  0.57880  Biso   1.000  H
  C121     1.0000 0.35330  0.76420  0.64990  Biso   1.000  C
  C122     1.0000 0.38020  0.78920  0.70840  Biso   1.000  C
  C123     1.0000 0.43750  0.76100  0.73480  Biso   1.000  C
  H56      1.0000 0.45550  0.77770  0.77390  Biso   1.000  H
  C124     1.0000 0.46780  0.70790  0.70280  Biso   1.000  C
  H57      1.0000 0.50600  0.68910  0.72050  Biso   1.000  H
  C125     1.0000 0.41730  0.68010  0.60370  Biso   1.000  C
  C126     1.0000 0.36400  0.68440  0.56020  Biso   1.000  C
  H58      1.0000 0.36010  0.65420  0.52540  Biso   1.000  H
  C127     1.0000 0.31640  0.73360  0.56860  Biso   1.000  C
  H59      1.0000 0.28070  0.73640  0.53950  Biso   1.000  H
  C128     1.0000 0.32210  0.77860  0.62060  Biso   1.000  C
  C129     1.0000 0.37540  0.77440  0.66420  Biso   1.000  C
  C130     1.0000 0.42310  0.72510  0.65580  Biso   1.000  C
  H60      1.0000 0.45880  0.72230  0.68490  Biso   1.000  H
  O21      1.0000 0.03860  0.40580  0.04620  Biso   1.000  O
  O22      1.0000 0.97800  0.37540  0.12900  Biso   1.000  O
  C131     1.0000 0.02690  0.37030  0.09490  Biso   1.000  C
  C132     1.0000 0.05910  0.31700  0.14430  Biso   1.000  C
  C133     1.0000 0.11640  0.28890  0.11790  Biso   1.000  C
  H61      1.0000 0.13440  0.30560  0.07880  Biso   1.000  H
  C134     1.0000 0.14670  0.23580  0.14990  Biso   1.000  C
  C135     1.0000 0.11980  0.21080  0.20840  Biso   1.000  C
  C136     1.0000 0.06250  0.23900  0.23480  Biso   1.000  C
  H62      1.0000 0.04450  0.22230  0.27390  Biso   1.000  H
  C137     1.0000 0.03220  0.29210  0.20280  Biso   1.000  C
  H63      1.0000 0.99400  0.31090  0.22050  Biso   1.000  H
  C138     1.0000 0.08270  0.31990  0.10370  Biso   1.000  C
  C139     1.0000 0.13600  0.31560  0.06020  Biso   1.000  C
  H64      1.0000 0.13990  0.34580  0.02540  Biso   1.000  H
  C140     1.0000 0.18360  0.26640  0.06860  Biso   1.000  C
  H65      1.0000 0.21930  0.26360  0.03950  Biso   1.000  H
  C141     1.0000 0.17790  0.22140  0.12060  Biso   1.000  C
  C142     1.0000 0.12460  0.22560  0.16420  Biso   1.000  C
  C143     1.0000 0.07690  0.27490  0.15580  Biso   1.000  C
  H66      1.0000 0.04120  0.27770  0.18490  Biso   1.000  H
  O23      1.0000 0.96140  0.90580  0.45380  Biso   1.000  O
  O24      1.0000 0.02200  0.87540  0.37100  Biso   1.000  O
  C144     1.0000 0.97310  0.87030  0.40510  Biso   1.000  C
  C145     1.0000 0.94090  0.81700  0.35570  Biso   1.000  C
  C146     1.0000 0.88360  0.78890  0.38210  Biso   1.000  C
  H67      1.0000 0.86560  0.80560  0.42120  Biso   1.000  H
  C147     1.0000 0.85330  0.73580  0.35010  Biso   1.000  C
  C148     1.0000 0.88020  0.71080  0.29160  Biso   1.000  C
  C149     1.0000 0.93750  0.73900  0.26520  Biso   1.000  C
  H68      1.0000 0.95550  0.72230  0.22610  Biso   1.000  H
  C150     1.0000 0.96780  0.79210  0.29720  Biso   1.000  C
  H69      1.0000 0.00600  0.81090  0.27950  Biso   1.000  H
  C151     1.0000 0.91730  0.81990  0.39630  Biso   1.000  C
  C152     1.0000 0.86400  0.81560  0.43980  Biso   1.000  C
  H70      1.0000 0.86010  0.84580  0.47460  Biso   1.000  H
  C153     1.0000 0.81640  0.76640  0.43140  Biso   1.000  C
  H71      1.0000 0.78070  0.76360  0.46050  Biso   1.000  H
  C154     1.0000 0.82210  0.72140  0.37940  Biso   1.000  C
  C155     1.0000 0.87540  0.72560  0.33580  Biso   1.000  C
  C156     1.0000 0.92310  0.77490  0.34420  Biso   1.000  C
  H72      1.0000 0.95880  0.77770  0.31510  Biso   1.000  H
  O25      1.0000 0.78860  0.70380  0.65580  Biso   1.000  O
  O26      1.0000 0.72800  0.62100  0.62540  Biso   1.000  O
  C157     1.0000 0.77690  0.65510  0.62030  Biso   1.000  C
  C158     1.0000 0.80910  0.60570  0.56700  Biso   1.000  C
  C159     1.0000 0.86640  0.63210  0.53890  Biso   1.000  C
  H73      1.0000 0.88440  0.67120  0.55560  Biso   1.000  H
  C160     1.0000 0.89670  0.60010  0.48580  Biso   1.000  C
  C161     1.0000 0.86980  0.54160  0.46080  Biso   1.000  C
  C162     1.0000 0.81250  0.51520  0.48900  Biso   1.000  C
  H74      1.0000 0.79450  0.47610  0.47230  Biso   1.000  H
  C163     1.0000 0.78220  0.54720  0.54210  Biso   1.000  C
  H75      1.0000 0.74400  0.52950  0.56090  Biso   1.000  H
  C164     1.0000 0.83270  0.64630  0.56990  Biso   1.000  C
  C165     1.0000 0.88600  0.68980  0.56560  Biso   1.000  C
  H76      1.0000 0.88990  0.72460  0.59580  Biso   1.000  H
  C166     1.0000 0.93360  0.68140  0.51640  Biso   1.000  C
  H77      1.0000 0.96930  0.71050  0.51360  Biso   1.000  H
  C167     1.0000 0.92790  0.62940  0.47140  Biso   1.000  C
  C168     1.0000 0.87460  0.58580  0.47560  Biso   1.000  C
  C169     1.0000 0.82690  0.59420  0.52490  Biso   1.000  C
  H78      1.0000 0.79120  0.56510  0.52770  Biso   1.000  H
  O27      1.0000 0.71140  0.29620  0.15580  Biso   1.000  O
  O28      1.0000 0.77200  0.37900  0.12540  Biso   1.000  O
  C170     1.0000 0.72310  0.34490  0.12030  Biso   1.000  C
  C171     1.0000 0.69090  0.39430  0.06700  Biso   1.000  C
  C172     1.0000 0.63360  0.36790  0.03890  Biso   1.000  C
  H79      1.0000 0.61560  0.32880  0.05560  Biso   1.000  H
  C173     1.0000 0.60330  0.39990  0.98580  Biso   1.000  C
  C174     1.0000 0.63020  0.45840  0.96080  Biso   1.000  C
  C175     1.0000 0.68750  0.48480  0.98900  Biso   1.000  C
  H80      1.0000 0.70550  0.52390  0.97230  Biso   1.000  H
  C176     1.0000 0.71780  0.45280  0.04210  Biso   1.000  C
  H81      1.0000 0.75600  0.47050  0.06090  Biso   1.000  H
  C177     1.0000 0.66730  0.35370  0.06990  Biso   1.000  C
  C178     1.0000 0.61400  0.31020  0.06560  Biso   1.000  C
  H82      1.0000 0.61010  0.27540  0.09580  Biso   1.000  H
  C179     1.0000 0.56640  0.31860  0.01640  Biso   1.000  C
  H83      1.0000 0.53070  0.28950  0.01360  Biso   1.000  H
  C180     1.0000 0.57210  0.37060  0.97140  Biso   1.000  C
  C181     1.0000 0.62540  0.41420  0.97560  Biso   1.000  C
  C182     1.0000 0.67310  0.40580  0.02490  Biso   1.000  C
  H84      1.0000 0.70880  0.43490  0.02770  Biso   1.000  H
  O29      1.0000 0.28860  0.79620  0.34420  Biso   1.000  O
  O30      1.0000 0.22800  0.87900  0.37460  Biso   1.000  O
  C183     1.0000 0.27690  0.84490  0.37970  Biso   1.000  C
  C184     1.0000 0.30910  0.89430  0.43300  Biso   1.000  C
  C185     1.0000 0.36640  0.86790  0.46110  Biso   1.000  C
  H85      1.0000 0.38440  0.82880  0.44440  Biso   1.000  H
  C186     1.0000 0.39670  0.89990  0.51420  Biso   1.000  C
  C187     1.0000 0.36980  0.95840  0.53920  Biso   1.000  C
  C188     1.0000 0.31250  0.98480  0.51100  Biso   1.000  C
  H86      1.0000 0.29450  0.02390  0.52770  Biso   1.000  H
  C189     1.0000 0.28220  0.95280  0.45790  Biso   1.000  C
  H87      1.0000 0.24400  0.97050  0.43910  Biso   1.000  H
  C190     1.0000 0.33270  0.85370  0.43010  Biso   1.000  C
  C191     1.0000 0.38600  0.81020  0.43440  Biso   1.000  C
  H88      1.0000 0.38990  0.77540  0.40420  Biso   1.000  H
  C192     1.0000 0.43360  0.81860  0.48360  Biso   1.000  C
  H89      1.0000 0.46930  0.78950  0.48640  Biso   1.000  H
  C193     1.0000 0.42790  0.87060  0.52860  Biso   1.000  C
  C194     1.0000 0.37460  0.91420  0.52440  Biso   1.000  C
  C195     1.0000 0.32690  0.90580  0.47510  Biso   1.000  C
  H90      1.0000 0.29120  0.93490  0.47230  Biso   1.000  H
  O31      1.0000 0.21140  0.20380  0.84420  Biso   1.000  O
  O32      1.0000 0.27200  0.12100  0.87460  Biso   1.000  O
  C196     1.0000 0.22310  0.15510  0.87970  Biso   1.000  C
  C197     1.0000 0.19090  0.10570  0.93300  Biso   1.000  C
  C198     1.0000 0.13360  0.13210  0.96110  Biso   1.000  C
  H91      1.0000 0.11560  0.17120  0.94440  Biso   1.000  H
  C199     1.0000 0.10330  0.10010  0.01420  Biso   1.000  C
  C200     1.0000 0.13020  0.04160  0.03920  Biso   1.000  C
  C201     1.0000 0.18750  0.01520  0.01100  Biso   1.000  C
  H92      1.0000 0.20550  0.97610  0.02770  Biso   1.000  H
  C202     1.0000 0.21780  0.04720  0.95790  Biso   1.000  C
  H93      1.0000 0.25600  0.02950  0.93910  Biso   1.000  H
  C203     1.0000 0.16730  0.14630  0.93010  Biso   1.000  C
  C204     1.0000 0.11400  0.18980  0.93440  Biso   1.000  C
  H94      1.0000 0.11010  0.22460  0.90420  Biso   1.000  H
  C205     1.0000 0.06640  0.18140  0.98360  Biso   1.000  C
  H95      1.0000 0.03070  0.21050  0.98640  Biso   1.000  H
  C206     1.0000 0.07210  0.12940  0.02860  Biso   1.000  C
  C207     1.0000 0.12540  0.08580  0.02440  Biso   1.000  C
  C208     1.0000 0.17310  0.09420  0.97510  Biso   1.000  C
  H96      1.0000 0.20880  0.06510  0.97230  Biso   1.000  H
  O33      1.0000 0.20380  0.84420  0.21140  Biso   1.000  O
  O34      1.0000 0.12100  0.87460  0.27200  Biso   1.000  O
  C209     1.0000 0.15510  0.87970  0.22310  Biso   1.000  C
  C210     1.0000 0.10570  0.93300  0.19090  Biso   1.000  C
  C211     1.0000 0.13210  0.96110  0.13360  Biso   1.000  C
  H97      1.0000 0.17120  0.94440  0.11560  Biso   1.000  H
  C212     1.0000 0.10010  0.01420  0.10330  Biso   1.000  C
  C213     1.0000 0.04160  0.03920  0.13020  Biso   1.000  C
  C214     1.0000 0.01520  0.01100  0.18750  Biso   1.000  C
  H98      1.0000 0.97610  0.02770  0.20550  Biso   1.000  H
  C215     1.0000 0.04720  0.95790  0.21780  Biso   1.000  C
  H99      1.0000 0.02950  0.93910  0.25600  Biso   1.000  H
  C216     1.0000 0.14630  0.93010  0.16730  Biso   1.000  C
  C217     1.0000 0.18980  0.93440  0.11400  Biso   1.000  C
  H100     1.0000 0.22460  0.90420  0.11010  Biso   1.000  H
  C218     1.0000 0.18140  0.98360  0.06640  Biso   1.000  C
  H101     1.0000 0.21050  0.98640  0.03070  Biso   1.000  H
  C219     1.0000 0.12940  0.02860  0.07210  Biso   1.000  C
  C220     1.0000 0.08580  0.02440  0.12540  Biso   1.000  C
  C221     1.0000 0.09420  0.97510  0.17310  Biso   1.000  C
  H102     1.0000 0.06510  0.97230  0.20880  Biso   1.000  H
  O35      1.0000 0.79620  0.34420  0.28860  Biso   1.000  O
  O36      1.0000 0.87900  0.37460  0.22800  Biso   1.000  O
  C222     1.0000 0.84490  0.37970  0.27690  Biso   1.000  C
  C223     1.0000 0.89430  0.43300  0.30910  Biso   1.000  C
  C224     1.0000 0.86790  0.46110  0.36640  Biso   1.000  C
  H103     1.0000 0.82880  0.44440  0.38440  Biso   1.000  H
  C225     1.0000 0.89990  0.51420  0.39670  Biso   1.000  C
  C226     1.0000 0.95840  0.53920  0.36980  Biso   1.000  C
  C227     1.0000 0.98480  0.51100  0.31250  Biso   1.000  C
  H104     1.0000 0.02390  0.52770  0.29450  Biso   1.000  H
  C228     1.0000 0.95280  0.45790  0.28220  Biso   1.000  C
  H105     1.0000 0.97050  0.43910  0.24400  Biso   1.000  H
  C229     1.0000 0.85370  0.43010  0.33270  Biso   1.000  C
  C230     1.0000 0.81020  0.43440  0.38600  Biso   1.000  C
  H106     1.0000 0.77540  0.40420  0.38990  Biso   1.000  H
  C231     1.0000 0.81860  0.48360  0.43360  Biso   1.000  C
  H107     1.0000 0.78950  0.48640  0.46930  Biso   1.000  H
  C232     1.0000 0.87060  0.52860  0.42790  Biso   1.000  C
  C233     1.0000 0.91420  0.52440  0.37460  Biso   1.000  C
  C234     1.0000 0.90580  0.47510  0.32690  Biso   1.000  C
  H108     1.0000 0.93490  0.47230  0.29120  Biso   1.000  H
  O37      1.0000 0.29620  0.15580  0.71140  Biso   1.000  O
  O38      1.0000 0.37900  0.12540  0.77200  Biso   1.000  O
  C235     1.0000 0.34490  0.12030  0.72310  Biso   1.000  C
  C236     1.0000 0.39430  0.06700  0.69090  Biso   1.000  C
  C237     1.0000 0.36790  0.03890  0.63360  Biso   1.000  C
  H109     1.0000 0.32880  0.05560  0.61560  Biso   1.000  H
  C238     1.0000 0.39990  0.98580  0.60330  Biso   1.000  C
  C239     1.0000 0.45840  0.96080  0.63020  Biso   1.000  C
  C240     1.0000 0.48480  0.98900  0.68750  Biso   1.000  C
  H110     1.0000 0.52390  0.97230  0.70550  Biso   1.000  H
  C241     1.0000 0.45280  0.04210  0.71780  Biso   1.000  C
  H111     1.0000 0.47050  0.06090  0.75600  Biso   1.000  H
  C242     1.0000 0.35370  0.06990  0.66730  Biso   1.000  C
  C243     1.0000 0.31020  0.06560  0.61400  Biso   1.000  C
  H112     1.0000 0.27540  0.09580  0.61010  Biso   1.000  H
  C244     1.0000 0.31860  0.01640  0.56640  Biso   1.000  C
  H113     1.0000 0.28950  0.01360  0.53070  Biso   1.000  H
  C245     1.0000 0.37060  0.97140  0.57210  Biso   1.000  C
  C246     1.0000 0.41420  0.97560  0.62540  Biso   1.000  C
  C247     1.0000 0.40580  0.02490  0.67310  Biso   1.000  C
  H114     1.0000 0.43490  0.02770  0.70880  Biso   1.000  H
  O39      1.0000 0.70380  0.65580  0.78860  Biso   1.000  O
  O40      1.0000 0.62100  0.62540  0.72800  Biso   1.000  O
  C248     1.0000 0.65510  0.62030  0.77690  Biso   1.000  C
  C249     1.0000 0.60570  0.56700  0.80910  Biso   1.000  C
  C250     1.0000 0.63210  0.53890  0.86640  Biso   1.000  C
  H115     1.0000 0.67120  0.55560  0.88440  Biso   1.000  H
  C251     1.0000 0.60010  0.48580  0.89670  Biso   1.000  C
  C252     1.0000 0.54160  0.46080  0.86980  Biso   1.000  C
  C253     1.0000 0.51520  0.48900  0.81250  Biso   1.000  C
  H116     1.0000 0.47610  0.47230  0.79450  Biso   1.000  H
  C254     1.0000 0.54720  0.54210  0.78220  Biso   1.000  C
  H117     1.0000 0.52950  0.56090  0.74400  Biso   1.000  H
  C255     1.0000 0.64630  0.56990  0.83270  Biso   1.000  C
  C256     1.0000 0.68980  0.56560  0.88600  Biso   1.000  C
  H118     1.0000 0.72460  0.59580  0.88990  Biso   1.000  H
  C257     1.0000 0.68140  0.51640  0.93360  Biso   1.000  C
  H119     1.0000 0.71050  0.51360  0.96930  Biso   1.000  H
  C258     1.0000 0.62940  0.47140  0.92790  Biso   1.000  C
  C259     1.0000 0.58580  0.47560  0.87460  Biso   1.000  C
  C260     1.0000 0.59420  0.52490  0.82690  Biso   1.000  C
  H120     1.0000 0.56510  0.52770  0.79120  Biso   1.000  H
  O41      1.0000 0.34420  0.28860  0.79620  Biso   1.000  O
  O42      1.0000 0.37460  0.22800  0.87900  Biso   1.000  O
  C261     1.0000 0.37970  0.27690  0.84490  Biso   1.000  C
  C262     1.0000 0.43300  0.30910  0.89430  Biso   1.000  C
  C263     1.0000 0.46110  0.36640  0.86790  Biso   1.000  C
  H121     1.0000 0.44440  0.38440  0.82880  Biso   1.000  H
  C264     1.0000 0.51420  0.39670  0.89990  Biso   1.000  C
  C265     1.0000 0.53920  0.36980  0.95840  Biso   1.000  C
  C266     1.0000 0.51100  0.31250  0.98480  Biso   1.000  C
  H122     1.0000 0.52770  0.29450  0.02390  Biso   1.000  H
  C267     1.0000 0.45790  0.28220  0.95280  Biso   1.000  C
  H123     1.0000 0.43910  0.24400  0.97050  Biso   1.000  H
  C268     1.0000 0.43010  0.33270  0.85370  Biso   1.000  C
  C269     1.0000 0.43440  0.38600  0.81020  Biso   1.000  C
  H124     1.0000 0.40420  0.38990  0.77540  Biso   1.000  H
  C270     1.0000 0.48360  0.43360  0.81860  Biso   1.000  C
  H125     1.0000 0.48640  0.46930  0.78950  Biso   1.000  H
  C271     1.0000 0.52860  0.42790  0.87060  Biso   1.000  C
  C272     1.0000 0.52440  0.37460  0.91420  Biso   1.000  C
  C273     1.0000 0.47510  0.32690  0.90580  Biso   1.000  C
  H126     1.0000 0.47230  0.29120  0.93490  Biso   1.000  H
  O43      1.0000 0.84420  0.21140  0.20380  Biso   1.000  O
  O44      1.0000 0.87460  0.27200  0.12100  Biso   1.000  O
  C274     1.0000 0.87970  0.22310  0.15510  Biso   1.000  C
  C275     1.0000 0.93300  0.19090  0.10570  Biso   1.000  C
  C276     1.0000 0.96110  0.13360  0.13210  Biso   1.000  C
  H127     1.0000 0.94440  0.11560  0.17120  Biso   1.000  H
  C277     1.0000 0.01420  0.10330  0.10010  Biso   1.000  C
  C278     1.0000 0.03920  0.13020  0.04160  Biso   1.000  C
  C279     1.0000 0.01100  0.18750  0.01520  Biso   1.000  C
  H128     1.0000 0.02770  0.20550  0.97610  Biso   1.000  H
  C280     1.0000 0.95790  0.21780  0.04720  Biso   1.000  C
  H129     1.0000 0.93910  0.25600  0.02950  Biso   1.000  H
  C281     1.0000 0.93010  0.16730  0.14630  Biso   1.000  C
  C282     1.0000 0.93440  0.11400  0.18980  Biso   1.000  C
  H130     1.0000 0.90420  0.11010  0.22460  Biso   1.000  H
  C283     1.0000 0.98360  0.06640  0.18140  Biso   1.000  C
  H131     1.0000 0.98640  0.03070  0.21050  Biso   1.000  H
  C284     1.0000 0.02860  0.07210  0.12940  Biso   1.000  C
  C285     1.0000 0.02440  0.12540  0.08580  Biso   1.000  C
  C286     1.0000 0.97510  0.17310  0.09420  Biso   1.000  C
  H132     1.0000 0.97230  0.20880  0.06510  Biso   1.000  H
  O45      1.0000 0.65580  0.78860  0.70380  Biso   1.000  O
  O46      1.0000 0.62540  0.72800  0.62100  Biso   1.000  O
  C287     1.0000 0.62030  0.77690  0.65510  Biso   1.000  C
  C288     1.0000 0.56700  0.80910  0.60570  Biso   1.000  C
  C289     1.0000 0.53890  0.86640  0.63210  Biso   1.000  C
  H133     1.0000 0.55560  0.88440  0.67120  Biso   1.000  H
  C290     1.0000 0.48580  0.89670  0.60010  Biso   1.000  C
  C291     1.0000 0.46080  0.86980  0.54160  Biso   1.000  C
  C292     1.0000 0.48900  0.81250  0.51520  Biso   1.000  C
  H134     1.0000 0.47230  0.79450  0.47610  Biso   1.000  H
  C293     1.0000 0.54210  0.78220  0.54720  Biso   1.000  C
  H135     1.0000 0.56090  0.74400  0.52950  Biso   1.000  H
  C294     1.0000 0.56990  0.83270  0.64630  Biso   1.000  C
  C295     1.0000 0.56560  0.88600  0.68980  Biso   1.000  C
  H136     1.0000 0.59580  0.88990  0.72460  Biso   1.000  H
  C296     1.0000 0.51640  0.93360  0.68140  Biso   1.000  C
  H137     1.0000 0.51360  0.96930  0.71050  Biso   1.000  H
  C297     1.0000 0.47140  0.92790  0.62940  Biso   1.000  C
  C298     1.0000 0.47560  0.87460  0.58580  Biso   1.000  C
  C299     1.0000 0.52490  0.82690  0.59420  Biso   1.000  C
  H138     1.0000 0.52770  0.79120  0.56510  Biso   1.000  H
  O47      1.0000 0.15580  0.71140  0.29620  Biso   1.000  O
  O48      1.0000 0.12540  0.77200  0.37900  Biso   1.000  O
  C300     1.0000 0.12030  0.72310  0.34490  Biso   1.000  C
  C301     1.0000 0.06700  0.69090  0.39430  Biso   1.000  C
  C302     1.0000 0.03890  0.63360  0.36790  Biso   1.000  C
  H139     1.0000 0.05560  0.61560  0.32880  Biso   1.000  H
  C303     1.0000 0.98580  0.60330  0.39990  Biso   1.000  C
  C304     1.0000 0.96080  0.63020  0.45840  Biso   1.000  C
  C305     1.0000 0.98900  0.68750  0.48480  Biso   1.000  C
  H140     1.0000 0.97230  0.70550  0.52390  Biso   1.000  H
  C306     1.0000 0.04210  0.71780  0.45280  Biso   1.000  C
  H141     1.0000 0.06090  0.75600  0.47050  Biso   1.000  H
  C307     1.0000 0.06990  0.66730  0.35370  Biso   1.000  C
  C308     1.0000 0.06560  0.61400  0.31020  Biso   1.000  C
  H142     1.0000 0.09580  0.61010  0.27540  Biso   1.000  H
  C309     1.0000 0.01640  0.56640  0.31860  Biso   1.000  C
  H143     1.0000 0.01360  0.53070  0.28950  Biso   1.000  H
  C310     1.0000 0.97140  0.57210  0.37060  Biso   1.000  C
  C311     1.0000 0.97560  0.62540  0.41420  Biso   1.000  C
  C312     1.0000 0.02490  0.67310  0.40580  Biso   1.000  C
  H144     1.0000 0.02770  0.70880  0.43490  Biso   1.000  H
  Zn1      1.0000 0.87500  0.37500  0.12500  Biso   1.000  Zn
  Zn2      1.0000 0.62500  0.62500  0.62500  Biso   1.000  Zn
  Zn3      1.0000 0.12500  0.87500  0.37500  Biso   1.000  Zn
  Zn4      1.0000 0.37500  0.12500  0.87500  Biso   1.000  Zn
  Zn5      1.0000 0.97477  0.47477  0.02523  Biso   1.000  Zn
  Zn6      1.0000 0.52523  0.52523  0.52523  Biso   1.000  Zn
  Zn7      1.0000 0.02523  0.97477  0.47477  Biso   1.000  Zn
  Zn8      1.0000 0.47477  0.02523  0.97477  Biso   1.000  Zn
  Zn9      1.0000 0.72477  0.72477  0.72477  Biso   1.000  Zn
  Zn10     1.0000 0.77523  0.27523  0.22477  Biso   1.000  Zn
  Zn11     1.0000 0.22477  0.77523  0.27523  Biso   1.000  Zn
  Zn12     1.0000 0.27523  0.22477  0.77523  Biso   1.000  Zn
