data_image0
_cell_length_a       11.958
_cell_length_b       11.958
_cell_length_c       25.035
_cell_angle_alpha    90
_cell_angle_beta     90
_cell_angle_gamma    120

_symmetry_space_group_name_H-M    "P 1"
_symmetry_int_tables_number       1

loop_
  _symmetry_equiv_pos_as_xyz
  'x, y, z'

loop_
  _atom_site_label
  _atom_site_occupancy
  _atom_site_fract_x
  _atom_site_fract_y
  _atom_site_fract_z
  _atom_site_thermal_displace_type
  _atom_site_B_iso_or_equiv
  _atom_site_type_symbol
  H1       1.0000 0.05530  0.14890  0.12920  Biso   1.000  H
  N1       1.0000 0.19940  0.33570  0.11330  Biso   1.000  N
  C1       1.0000 0.17990  0.30710  0.02750  Biso   1.000  C
  H2       1.0000 0.19470  0.32120  0.99020  Biso   1.000  H
  C2       1.0000 0.23980  0.40070  0.06570  Biso   1.000  C
  H3       1.0000 0.29670  0.49050  0.06040  Biso   1.000  H
  C3       1.0000 0.24130  0.39120  0.16710  Biso   1.000  C
  H4       1.0000 0.31060  0.37520  0.17960  Biso   1.000  H
  H5       1.0000 0.16780  0.34810  0.19220  Biso   1.000  H
  C4       1.0000 0.29030  0.53440  0.16690  Biso   1.000  C
  H6       1.0000 0.72197  0.48223  0.46253  Biso   1.000  H
  N2       1.0000 0.86607  0.66903  0.44663  Biso   1.000  N
  C5       1.0000 0.84657  0.64043  0.36083  Biso   1.000  C
  H7       1.0000 0.86137  0.65453  0.32353  Biso   1.000  H
  C6       1.0000 0.90647  0.73403  0.39903  Biso   1.000  C
  H8       1.0000 0.96337  0.82383  0.39373  Biso   1.000  H
  C7       1.0000 0.90797  0.72453  0.50043  Biso   1.000  C
  H9       1.0000 0.97727  0.70853  0.51293  Biso   1.000  H
  H10      1.0000 0.83447  0.68143  0.52553  Biso   1.000  H
  C8       1.0000 0.95697  0.86773  0.50023  Biso   1.000  C
  H11      1.0000 0.38863  0.81557  0.79587  Biso   1.000  H
  N3       1.0000 0.53273  0.00237  0.77997  Biso   1.000  N
  C9       1.0000 0.51323  0.97377  0.69417  Biso   1.000  C
  H12      1.0000 0.52803  0.98787  0.65687  Biso   1.000  H
  C10      1.0000 0.57313  0.06737  0.73237  Biso   1.000  C
  H13      1.0000 0.63003  0.15717  0.72707  Biso   1.000  H
  C11      1.0000 0.57463  0.05787  0.83377  Biso   1.000  C
  H14      1.0000 0.64393  0.04187  0.84627  Biso   1.000  H
  H15      1.0000 0.50113  0.01477  0.85887  Biso   1.000  H
  C12      1.0000 0.62363  0.20107  0.83357  Biso   1.000  C
  H16      1.0000 0.85110  0.90640  0.12920  Biso   1.000  H
  N4       1.0000 0.66430  0.86370  0.11330  Biso   1.000  N
  C13      1.0000 0.69290  0.87280  0.02750  Biso   1.000  C
  H17      1.0000 0.67880  0.87350  0.99020  Biso   1.000  H
  C14      1.0000 0.59930  0.83910  0.06570  Biso   1.000  C
  H18      1.0000 0.50950  0.80620  0.06040  Biso   1.000  H
  C15      1.0000 0.60880  0.85010  0.16710  Biso   1.000  C
  H19      1.0000 0.62480  0.93540  0.17960  Biso   1.000  H
  H20      1.0000 0.65190  0.81970  0.19220  Biso   1.000  H
  C16      1.0000 0.46560  0.75590  0.16690  Biso   1.000  C
  H21      1.0000 0.51777  0.23973  0.46253  Biso   1.000  H
  N5       1.0000 0.33097  0.19703  0.44663  Biso   1.000  N
  C17      1.0000 0.35957  0.20613  0.36083  Biso   1.000  C
  H22      1.0000 0.34547  0.20683  0.32353  Biso   1.000  H
  C18      1.0000 0.26597  0.17243  0.39903  Biso   1.000  C
  H23      1.0000 0.17617  0.13953  0.39373  Biso   1.000  H
  C19      1.0000 0.27547  0.18343  0.50043  Biso   1.000  C
  H24      1.0000 0.29147  0.26873  0.51293  Biso   1.000  H
  H25      1.0000 0.31857  0.15303  0.52553  Biso   1.000  H
  C20      1.0000 0.13227  0.08923  0.50023  Biso   1.000  C
  H26      1.0000 0.18443  0.57307  0.79587  Biso   1.000  H
  N6       1.0000 0.99763  0.53037  0.77997  Biso   1.000  N
  C21      1.0000 0.02623  0.53947  0.69417  Biso   1.000  C
  H27      1.0000 0.01213  0.54017  0.65687  Biso   1.000  H
  C22      1.0000 0.93263  0.50577  0.73237  Biso   1.000  C
  H28      1.0000 0.84283  0.47287  0.72707  Biso   1.000  H
  C23      1.0000 0.94213  0.51677  0.83377  Biso   1.000  C
  H29      1.0000 0.95813  0.60207  0.84627  Biso   1.000  H
  H30      1.0000 0.98523  0.48637  0.85887  Biso   1.000  H
  C24      1.0000 0.79893  0.42257  0.83357  Biso   1.000  C
  H31      1.0000 0.09360  0.94470  0.12920  Biso   1.000  H
  N7       1.0000 0.13630  0.80060  0.11330  Biso   1.000  N
  C25      1.0000 0.12720  0.82010  0.02750  Biso   1.000  C
  H32      1.0000 0.12650  0.80530  0.99020  Biso   1.000  H
  C26      1.0000 0.16090  0.76020  0.06570  Biso   1.000  C
  H33      1.0000 0.19380  0.70330  0.06040  Biso   1.000  H
  C27      1.0000 0.14990  0.75870  0.16710  Biso   1.000  C
  H34      1.0000 0.06460  0.68940  0.17960  Biso   1.000  H
  H35      1.0000 0.18030  0.83220  0.19220  Biso   1.000  H
  C28      1.0000 0.24410  0.70970  0.16690  Biso   1.000  C
  H36      1.0000 0.76027  0.27803  0.46253  Biso   1.000  H
  N8       1.0000 0.80297  0.13393  0.44663  Biso   1.000  N
  C29      1.0000 0.79387  0.15343  0.36083  Biso   1.000  C
  H37      1.0000 0.79317  0.13863  0.32353  Biso   1.000  H
  C30      1.0000 0.82757  0.09353  0.39903  Biso   1.000  C
  H38      1.0000 0.86047  0.03663  0.39373  Biso   1.000  H
  C31      1.0000 0.81657  0.09203  0.50043  Biso   1.000  C
  H39      1.0000 0.73127  0.02273  0.51293  Biso   1.000  H
  H40      1.0000 0.84697  0.16553  0.52553  Biso   1.000  H
  C32      1.0000 0.91077  0.04303  0.50023  Biso   1.000  C
  H41      1.0000 0.42693  0.61137  0.79587  Biso   1.000  H
  N9       1.0000 0.46963  0.46727  0.77997  Biso   1.000  N
  C33      1.0000 0.46053  0.48677  0.69417  Biso   1.000  C
  H42      1.0000 0.45983  0.47197  0.65687  Biso   1.000  H
  C34      1.0000 0.49423  0.42687  0.73237  Biso   1.000  C
  H43      1.0000 0.52713  0.36997  0.72707  Biso   1.000  H
  C35      1.0000 0.48323  0.42537  0.83377  Biso   1.000  C
  H44      1.0000 0.39793  0.35607  0.84627  Biso   1.000  H
  H45      1.0000 0.51363  0.49887  0.85887  Biso   1.000  H
  C36      1.0000 0.57743  0.37637  0.83357  Biso   1.000  C
  H46      1.0000 0.14890  0.05530  0.87080  Biso   1.000  H
  N10      1.0000 0.33570  0.19940  0.88670  Biso   1.000  N
  C37      1.0000 0.30710  0.17990  0.97250  Biso   1.000  C
  H47      1.0000 0.32120  0.19470  0.00980  Biso   1.000  H
  C38      1.0000 0.40070  0.23980  0.93430  Biso   1.000  C
  H48      1.0000 0.49050  0.29670  0.93960  Biso   1.000  H
  C39      1.0000 0.39120  0.24130  0.83290  Biso   1.000  C
  H49      1.0000 0.37520  0.31060  0.82040  Biso   1.000  H
  H50      1.0000 0.34810  0.16780  0.80780  Biso   1.000  H
  C40      1.0000 0.53440  0.29030  0.83310  Biso   1.000  C
  H51      1.0000 0.81557  0.38863  0.20413  Biso   1.000  H
  N11      1.0000 0.00237  0.53273  0.22003  Biso   1.000  N
  C41      1.0000 0.97377  0.51323  0.30583  Biso   1.000  C
  H52      1.0000 0.98787  0.52803  0.34313  Biso   1.000  H
  C42      1.0000 0.06737  0.57313  0.26763  Biso   1.000  C
  H53      1.0000 0.15717  0.63003  0.27293  Biso   1.000  H
  C43      1.0000 0.05787  0.57463  0.16623  Biso   1.000  C
  H54      1.0000 0.04187  0.64393  0.15373  Biso   1.000  H
  H55      1.0000 0.01477  0.50113  0.14113  Biso   1.000  H
  C44      1.0000 0.20107  0.62363  0.16643  Biso   1.000  C
  H56      1.0000 0.48223  0.72197  0.53747  Biso   1.000  H
  N12      1.0000 0.66903  0.86607  0.55337  Biso   1.000  N
  C45      1.0000 0.64043  0.84657  0.63917  Biso   1.000  C
  H57      1.0000 0.65453  0.86137  0.67647  Biso   1.000  H
  C46      1.0000 0.73403  0.90647  0.60097  Biso   1.000  C
  H58      1.0000 0.82383  0.96337  0.60627  Biso   1.000  H
  C47      1.0000 0.72453  0.90797  0.49957  Biso   1.000  C
  H59      1.0000 0.70853  0.97727  0.48707  Biso   1.000  H
  H60      1.0000 0.68143  0.83447  0.47447  Biso   1.000  H
  C48      1.0000 0.86773  0.95697  0.49977  Biso   1.000  C
  H61      1.0000 0.90640  0.85110  0.87080  Biso   1.000  H
  N13      1.0000 0.86370  0.66430  0.88670  Biso   1.000  N
  C49      1.0000 0.87280  0.69290  0.97250  Biso   1.000  C
  H62      1.0000 0.87350  0.67880  0.00980  Biso   1.000  H
  C50      1.0000 0.83910  0.59930  0.93430  Biso   1.000  C
  H63      1.0000 0.80620  0.50950  0.93960  Biso   1.000  H
  C51      1.0000 0.85010  0.60880  0.83290  Biso   1.000  C
  H64      1.0000 0.93540  0.62480  0.82040  Biso   1.000  H
  H65      1.0000 0.81970  0.65190  0.80780  Biso   1.000  H
  C52      1.0000 0.75590  0.46560  0.83310  Biso   1.000  C
  H66      1.0000 0.57307  0.18443  0.20413  Biso   1.000  H
  N14      1.0000 0.53037  0.99763  0.22003  Biso   1.000  N
  C53      1.0000 0.53947  0.02623  0.30583  Biso   1.000  C
  H67      1.0000 0.54017  0.01213  0.34313  Biso   1.000  H
  C54      1.0000 0.50577  0.93263  0.26763  Biso   1.000  C
  H68      1.0000 0.47287  0.84283  0.27293  Biso   1.000  H
  C55      1.0000 0.51677  0.94213  0.16623  Biso   1.000  C
  H69      1.0000 0.60207  0.95813  0.15373  Biso   1.000  H
  H70      1.0000 0.48637  0.98523  0.14113  Biso   1.000  H
  C56      1.0000 0.42257  0.79893  0.16643  Biso   1.000  C
  H71      1.0000 0.23973  0.51777  0.53747  Biso   1.000  H
  N15      1.0000 0.19703  0.33097  0.55337  Biso   1.000  N
  C57      1.0000 0.20613  0.35957  0.63917  Biso   1.000  C
  H72      1.0000 0.20683  0.34547  0.67647  Biso   1.000  H
  C58      1.0000 0.17243  0.26597  0.60097  Biso   1.000  C
  H73      1.0000 0.13953  0.17617  0.60627  Biso   1.000  H
  C59      1.0000 0.18343  0.27547  0.49957  Biso   1.000  C
  H74      1.0000 0.26873  0.29147  0.48707  Biso   1.000  H
  H75      1.0000 0.15303  0.31857  0.47447  Biso   1.000  H
  C60      1.0000 0.08923  0.13227  0.49977  Biso   1.000  C
  H76      1.0000 0.94470  0.09360  0.87080  Biso   1.000  H
  N16      1.0000 0.80060  0.13630  0.88670  Biso   1.000  N
  C61      1.0000 0.82010  0.12720  0.97250  Biso   1.000  C
  H77      1.0000 0.80530  0.12650  0.00980  Biso   1.000  H
  C62      1.0000 0.76020  0.16090  0.93430  Biso   1.000  C
  H78      1.0000 0.70330  0.19380  0.93960  Biso   1.000  H
  C63      1.0000 0.75870  0.14990  0.83290  Biso   1.000  C
  H79      1.0000 0.68940  0.06460  0.82040  Biso   1.000  H
  H80      1.0000 0.83220  0.18030  0.80780  Biso   1.000  H
  C64      1.0000 0.70970  0.24410  0.83310  Biso   1.000  C
  H81      1.0000 0.61137  0.42693  0.20413  Biso   1.000  H
  N17      1.0000 0.46727  0.46963  0.22003  Biso   1.000  N
  C65      1.0000 0.48677  0.46053  0.30583  Biso   1.000  C
  H82      1.0000 0.47197  0.45983  0.34313  Biso   1.000  H
  C66      1.0000 0.42687  0.49423  0.26763  Biso   1.000  C
  H83      1.0000 0.36997  0.52713  0.27293  Biso   1.000  H
  C67      1.0000 0.42537  0.48323  0.16623  Biso   1.000  C
  H84      1.0000 0.35607  0.39793  0.15373  Biso   1.000  H
  H85      1.0000 0.49887  0.51363  0.14113  Biso   1.000  H
  C68      1.0000 0.37637  0.57743  0.16643  Biso   1.000  C
  H86      1.0000 0.27803  0.76027  0.53747  Biso   1.000  H
  N18      1.0000 0.13393  0.80297  0.55337  Biso   1.000  N
  C69      1.0000 0.15343  0.79387  0.63917  Biso   1.000  C
  H87      1.0000 0.13863  0.79317  0.67647  Biso   1.000  H
  C70      1.0000 0.09353  0.82757  0.60097  Biso   1.000  C
  H88      1.0000 0.03663  0.86047  0.60627  Biso   1.000  H
  C71      1.0000 0.09203  0.81657  0.49957  Biso   1.000  C
  H89      1.0000 0.02273  0.73127  0.48707  Biso   1.000  H
  H90      1.0000 0.16553  0.84697  0.47447  Biso   1.000  H
  C72      1.0000 0.04303  0.91077  0.49977  Biso   1.000  C
  H91      1.0000 0.94470  0.85110  0.87080  Biso   1.000  H
  N19      1.0000 0.80060  0.66430  0.88670  Biso   1.000  N
  C73      1.0000 0.82010  0.69290  0.97250  Biso   1.000  C
  H92      1.0000 0.80530  0.67880  0.00980  Biso   1.000  H
  C74      1.0000 0.76020  0.59930  0.93430  Biso   1.000  C
  H93      1.0000 0.70330  0.50950  0.93960  Biso   1.000  H
  C75      1.0000 0.75870  0.60880  0.83290  Biso   1.000  C
  H94      1.0000 0.68940  0.62480  0.82040  Biso   1.000  H
  H95      1.0000 0.83220  0.65190  0.80780  Biso   1.000  H
  C76      1.0000 0.70970  0.46560  0.83310  Biso   1.000  C
  H96      1.0000 0.61137  0.18443  0.20413  Biso   1.000  H
  N20      1.0000 0.46727  0.99763  0.22003  Biso   1.000  N
  C77      1.0000 0.48677  0.02623  0.30583  Biso   1.000  C
  H97      1.0000 0.47197  0.01213  0.34313  Biso   1.000  H
  C78      1.0000 0.42687  0.93263  0.26763  Biso   1.000  C
  H98      1.0000 0.36997  0.84283  0.27293  Biso   1.000  H
  C79      1.0000 0.42537  0.94213  0.16623  Biso   1.000  C
  H99      1.0000 0.35607  0.95813  0.15373  Biso   1.000  H
  H100     1.0000 0.49887  0.98523  0.14113  Biso   1.000  H
  C80      1.0000 0.37637  0.79893  0.16643  Biso   1.000  C
  H101     1.0000 0.27803  0.51777  0.53747  Biso   1.000  H
  N21      1.0000 0.13393  0.33097  0.55337  Biso   1.000  N
  C81      1.0000 0.15343  0.35957  0.63917  Biso   1.000  C
  H102     1.0000 0.13863  0.34547  0.67647  Biso   1.000  H
  C82      1.0000 0.09353  0.26597  0.60097  Biso   1.000  C
  H103     1.0000 0.03663  0.17617  0.60627  Biso   1.000  H
  C83      1.0000 0.09203  0.27547  0.49957  Biso   1.000  C
  H104     1.0000 0.02273  0.29147  0.48707  Biso   1.000  H
  H105     1.0000 0.16553  0.31857  0.47447  Biso   1.000  H
  C84      1.0000 0.04303  0.13227  0.49977  Biso   1.000  C
  H106     1.0000 0.14890  0.09360  0.87080  Biso   1.000  H
  N22      1.0000 0.33570  0.13630  0.88670  Biso   1.000  N
  C85      1.0000 0.30710  0.12720  0.97250  Biso   1.000  C
  H107     1.0000 0.32120  0.12650  0.00980  Biso   1.000  H
  C86      1.0000 0.40070  0.16090  0.93430  Biso   1.000  C
  H108     1.0000 0.49050  0.19380  0.93960  Biso   1.000  H
  C87      1.0000 0.39120  0.14990  0.83290  Biso   1.000  C
  H109     1.0000 0.37520  0.06460  0.82040  Biso   1.000  H
  H110     1.0000 0.34810  0.18030  0.80780  Biso   1.000  H
  C88      1.0000 0.53440  0.24410  0.83310  Biso   1.000  C
  H111     1.0000 0.81557  0.42693  0.20413  Biso   1.000  H
  N23      1.0000 0.00237  0.46963  0.22003  Biso   1.000  N
  C89      1.0000 0.97377  0.46053  0.30583  Biso   1.000  C
  H112     1.0000 0.98787  0.45983  0.34313  Biso   1.000  H
  C90      1.0000 0.06737  0.49423  0.26763  Biso   1.000  C
  H113     1.0000 0.15717  0.52713  0.27293  Biso   1.000  H
  C91      1.0000 0.05787  0.48323  0.16623  Biso   1.000  C
  H114     1.0000 0.04187  0.39793  0.15373  Biso   1.000  H
  H115     1.0000 0.01477  0.51363  0.14113  Biso   1.000  H
  C92      1.0000 0.20107  0.57743  0.16643  Biso   1.000  C
  H116     1.0000 0.48223  0.76027  0.53747  Biso   1.000  H
  N24      1.0000 0.66903  0.80297  0.55337  Biso   1.000  N
  C93      1.0000 0.64043  0.79387  0.63917  Biso   1.000  C
  H117     1.0000 0.65453  0.79317  0.67647  Biso   1.000  H
  C94      1.0000 0.73403  0.82757  0.60097  Biso   1.000  C
  H118     1.0000 0.82383  0.86047  0.60627  Biso   1.000  H
  C95      1.0000 0.72453  0.81657  0.49957  Biso   1.000  C
  H119     1.0000 0.70853  0.73127  0.48707  Biso   1.000  H
  H120     1.0000 0.68143  0.84697  0.47447  Biso   1.000  H
  C96      1.0000 0.86773  0.91077  0.49977  Biso   1.000  C
  H121     1.0000 0.90640  0.05530  0.87080  Biso   1.000  H
  N25      1.0000 0.86370  0.19940  0.88670  Biso   1.000  N
  C97      1.0000 0.87280  0.17990  0.97250  Biso   1.000  C
  H122     1.0000 0.87350  0.19470  0.00980  Biso   1.000  H
  C98      1.0000 0.83910  0.23980  0.93430  Biso   1.000  C
  H123     1.0000 0.80620  0.29670  0.93960  Biso   1.000  H
  C99      1.0000 0.85010  0.24130  0.83290  Biso   1.000  C
  H124     1.0000 0.93540  0.31060  0.82040  Biso   1.000  H
  H125     1.0000 0.81970  0.16780  0.80780  Biso   1.000  H
  C100     1.0000 0.75590  0.29030  0.83310  Biso   1.000  C
  H126     1.0000 0.57307  0.38863  0.20413  Biso   1.000  H
  N26      1.0000 0.53037  0.53273  0.22003  Biso   1.000  N
  C101     1.0000 0.53947  0.51323  0.30583  Biso   1.000  C
  H127     1.0000 0.54017  0.52803  0.34313  Biso   1.000  H
  C102     1.0000 0.50577  0.57313  0.26763  Biso   1.000  C
  H128     1.0000 0.47287  0.63003  0.27293  Biso   1.000  H
  C103     1.0000 0.51677  0.57463  0.16623  Biso   1.000  C
  H129     1.0000 0.60207  0.64393  0.15373  Biso   1.000  H
  H130     1.0000 0.48637  0.50113  0.14113  Biso   1.000  H
  C104     1.0000 0.42257  0.62363  0.16643  Biso   1.000  C
  H131     1.0000 0.23973  0.72197  0.53747  Biso   1.000  H
  N27      1.0000 0.19703  0.86607  0.55337  Biso   1.000  N
  C105     1.0000 0.20613  0.84657  0.63917  Biso   1.000  C
  H132     1.0000 0.20683  0.86137  0.67647  Biso   1.000  H
  C106     1.0000 0.17243  0.90647  0.60097  Biso   1.000  C
  H133     1.0000 0.13953  0.96337  0.60627  Biso   1.000  H
  C107     1.0000 0.18343  0.90797  0.49957  Biso   1.000  C
  H134     1.0000 0.26873  0.97727  0.48707  Biso   1.000  H
  H135     1.0000 0.15303  0.83447  0.47447  Biso   1.000  H
  C108     1.0000 0.08923  0.95697  0.49977  Biso   1.000  C
  H136     1.0000 0.85110  0.94470  0.12920  Biso   1.000  H
  N28      1.0000 0.66430  0.80060  0.11330  Biso   1.000  N
  C109     1.0000 0.69290  0.82010  0.02750  Biso   1.000  C
  H137     1.0000 0.67880  0.80530  0.99020  Biso   1.000  H
  C110     1.0000 0.59930  0.76020  0.06570  Biso   1.000  C
  H138     1.0000 0.50950  0.70330  0.06040  Biso   1.000  H
  C111     1.0000 0.60880  0.75870  0.16710  Biso   1.000  C
  H139     1.0000 0.62480  0.68940  0.17960  Biso   1.000  H
  H140     1.0000 0.65190  0.83220  0.19220  Biso   1.000  H
  C112     1.0000 0.46560  0.70970  0.16690  Biso   1.000  C
  H141     1.0000 0.51777  0.27803  0.46253  Biso   1.000  H
  N29      1.0000 0.33097  0.13393  0.44663  Biso   1.000  N
  C113     1.0000 0.35957  0.15343  0.36083  Biso   1.000  C
  H142     1.0000 0.34547  0.13863  0.32353  Biso   1.000  H
  C114     1.0000 0.26597  0.09353  0.39903  Biso   1.000  C
  H143     1.0000 0.17617  0.03663  0.39373  Biso   1.000  H
  C115     1.0000 0.27547  0.09203  0.50043  Biso   1.000  C
  H144     1.0000 0.29147  0.02273  0.51293  Biso   1.000  H
  H145     1.0000 0.31857  0.16553  0.52553  Biso   1.000  H
  C116     1.0000 0.13227  0.04303  0.50023  Biso   1.000  C
  H146     1.0000 0.18443  0.61137  0.79587  Biso   1.000  H
  N30      1.0000 0.99763  0.46727  0.77997  Biso   1.000  N
  C117     1.0000 0.02623  0.48677  0.69417  Biso   1.000  C
  H147     1.0000 0.01213  0.47197  0.65687  Biso   1.000  H
  C118     1.0000 0.93263  0.42687  0.73237  Biso   1.000  C
  H148     1.0000 0.84283  0.36997  0.72707  Biso   1.000  H
  C119     1.0000 0.94213  0.42537  0.83377  Biso   1.000  C
  H149     1.0000 0.95813  0.35607  0.84627  Biso   1.000  H
  H150     1.0000 0.98523  0.49887  0.85887  Biso   1.000  H
  C120     1.0000 0.79893  0.37637  0.83357  Biso   1.000  C
  H151     1.0000 0.09360  0.14890  0.12920  Biso   1.000  H
  N31      1.0000 0.13630  0.33570  0.11330  Biso   1.000  N
  C121     1.0000 0.12720  0.30710  0.02750  Biso   1.000  C
  H152     1.0000 0.12650  0.32120  0.99020  Biso   1.000  H
  C122     1.0000 0.16090  0.40070  0.06570  Biso   1.000  C
  H153     1.0000 0.19380  0.49050  0.06040  Biso   1.000  H
  C123     1.0000 0.14990  0.39120  0.16710  Biso   1.000  C
  H154     1.0000 0.06460  0.37520  0.17960  Biso   1.000  H
  H155     1.0000 0.18030  0.34810  0.19220  Biso   1.000  H
  C124     1.0000 0.24410  0.53440  0.16690  Biso   1.000  C
  H156     1.0000 0.76027  0.48223  0.46253  Biso   1.000  H
  N32      1.0000 0.80297  0.66903  0.44663  Biso   1.000  N
  C125     1.0000 0.79387  0.64043  0.36083  Biso   1.000  C
  H157     1.0000 0.79317  0.65453  0.32353  Biso   1.000  H
  C126     1.0000 0.82757  0.73403  0.39903  Biso   1.000  C
  H158     1.0000 0.86047  0.82383  0.39373  Biso   1.000  H
  C127     1.0000 0.81657  0.72453  0.50043  Biso   1.000  C
  H159     1.0000 0.73127  0.70853  0.51293  Biso   1.000  H
  H160     1.0000 0.84697  0.68143  0.52553  Biso   1.000  H
  C128     1.0000 0.91077  0.86773  0.50023  Biso   1.000  C
  H161     1.0000 0.42693  0.81557  0.79587  Biso   1.000  H
  N33      1.0000 0.46963  0.00237  0.77997  Biso   1.000  N
  C129     1.0000 0.46053  0.97377  0.69417  Biso   1.000  C
  H162     1.0000 0.45983  0.98787  0.65687  Biso   1.000  H
  C130     1.0000 0.49423  0.06737  0.73237  Biso   1.000  C
  H163     1.0000 0.52713  0.15717  0.72707  Biso   1.000  H
  C131     1.0000 0.48323  0.05787  0.83377  Biso   1.000  C
  H164     1.0000 0.39793  0.04187  0.84627  Biso   1.000  H
  H165     1.0000 0.51363  0.01477  0.85887  Biso   1.000  H
  C132     1.0000 0.57743  0.20107  0.83357  Biso   1.000  C
  H166     1.0000 0.05530  0.90640  0.12920  Biso   1.000  H
  N34      1.0000 0.19940  0.86370  0.11330  Biso   1.000  N
  C133     1.0000 0.17990  0.87280  0.02750  Biso   1.000  C
  H167     1.0000 0.19470  0.87350  0.99020  Biso   1.000  H
  C134     1.0000 0.23980  0.83910  0.06570  Biso   1.000  C
  H168     1.0000 0.29670  0.80620  0.06040  Biso   1.000  H
  C135     1.0000 0.24130  0.85010  0.16710  Biso   1.000  C
  H169     1.0000 0.31060  0.93540  0.17960  Biso   1.000  H
  H170     1.0000 0.16780  0.81970  0.19220  Biso   1.000  H
  C136     1.0000 0.29030  0.75590  0.16690  Biso   1.000  C
  H171     1.0000 0.72197  0.23973  0.46253  Biso   1.000  H
  N35      1.0000 0.86607  0.19703  0.44663  Biso   1.000  N
  C137     1.0000 0.84657  0.20613  0.36083  Biso   1.000  C
  H172     1.0000 0.86137  0.20683  0.32353  Biso   1.000  H
  C138     1.0000 0.90647  0.17243  0.39903  Biso   1.000  C
  H173     1.0000 0.96337  0.13953  0.39373  Biso   1.000  H
  C139     1.0000 0.90797  0.18343  0.50043  Biso   1.000  C
  H174     1.0000 0.97727  0.26873  0.51293  Biso   1.000  H
  H175     1.0000 0.83447  0.15303  0.52553  Biso   1.000  H
  C140     1.0000 0.95697  0.08923  0.50023  Biso   1.000  C
  H176     1.0000 0.38863  0.57307  0.79587  Biso   1.000  H
  N36      1.0000 0.53273  0.53037  0.77997  Biso   1.000  N
  C141     1.0000 0.51323  0.53947  0.69417  Biso   1.000  C
  H177     1.0000 0.52803  0.54017  0.65687  Biso   1.000  H
  C142     1.0000 0.57313  0.50577  0.73237  Biso   1.000  C
  H178     1.0000 0.63003  0.47287  0.72707  Biso   1.000  H
  C143     1.0000 0.57463  0.51677  0.83377  Biso   1.000  C
  H179     1.0000 0.64393  0.60207  0.84627  Biso   1.000  H
  H180     1.0000 0.50113  0.48637  0.85887  Biso   1.000  H
  C144     1.0000 0.62363  0.42257  0.83357  Biso   1.000  C
  Cd1      1.0000 0.00000  0.00000  0.00000  Biso   1.000  Cd
  Cd2      1.0000 0.66667  0.33333  0.33333  Biso   1.000  Cd
  Cd3      1.0000 0.33333  0.66667  0.66667  Biso   1.000  Cd
  N37      1.0000 0.09435  0.18870  0.05070  Biso   1.000  N
  C145     1.0000 0.10540  0.21080  0.10280  Biso   1.000  C
  N38      1.0000 0.76102  0.52203  0.38403  Biso   1.000  N
  C146     1.0000 0.77207  0.54413  0.43613  Biso   1.000  C
  N39      1.0000 0.42768  0.85537  0.71737  Biso   1.000  N
  C147     1.0000 0.43873  0.87747  0.76947  Biso   1.000  C
  N40      1.0000 0.81130  0.90565  0.05070  Biso   1.000  N
  C148     1.0000 0.78920  0.89460  0.10280  Biso   1.000  C
  N41      1.0000 0.47797  0.23898  0.38403  Biso   1.000  N
  C149     1.0000 0.45587  0.22793  0.43613  Biso   1.000  C
  N42      1.0000 0.14463  0.57232  0.71737  Biso   1.000  N
  C150     1.0000 0.12253  0.56127  0.76947  Biso   1.000  C
  N43      1.0000 0.09435  0.90565  0.05070  Biso   1.000  N
  C151     1.0000 0.10540  0.89460  0.10280  Biso   1.000  C
  N44      1.0000 0.76102  0.23898  0.38403  Biso   1.000  N
  C152     1.0000 0.77207  0.22793  0.43613  Biso   1.000  C
  N45      1.0000 0.42768  0.57232  0.71737  Biso   1.000  N
  C153     1.0000 0.43873  0.56127  0.76947  Biso   1.000  C
  N46      1.0000 0.18870  0.09435  0.94930  Biso   1.000  N
  C154     1.0000 0.21080  0.10540  0.89720  Biso   1.000  C
  N47      1.0000 0.85537  0.42768  0.28263  Biso   1.000  N
  C155     1.0000 0.87747  0.43873  0.23053  Biso   1.000  C
  N48      1.0000 0.52203  0.76102  0.61597  Biso   1.000  N
  C156     1.0000 0.54413  0.77207  0.56387  Biso   1.000  C
  N49      1.0000 0.90565  0.81130  0.94930  Biso   1.000  N
  C157     1.0000 0.89460  0.78920  0.89720  Biso   1.000  C
  N50      1.0000 0.57232  0.14463  0.28263  Biso   1.000  N
  C158     1.0000 0.56127  0.12253  0.23053  Biso   1.000  C
  N51      1.0000 0.23898  0.47797  0.61597  Biso   1.000  N
  C159     1.0000 0.22793  0.45587  0.56387  Biso   1.000  C
  N52      1.0000 0.90565  0.09435  0.94930  Biso   1.000  N
  C160     1.0000 0.89460  0.10540  0.89720  Biso   1.000  C
  N53      1.0000 0.57232  0.42768  0.28263  Biso   1.000  N
  C161     1.0000 0.56127  0.43873  0.23053  Biso   1.000  C
  N54      1.0000 0.23898  0.76102  0.61597  Biso   1.000  N
  C162     1.0000 0.22793  0.77207  0.56387  Biso   1.000  C
