data_image0
_cell_length_a       15.876
_cell_length_b       23.562
_cell_length_c       12.514
_cell_angle_alpha    90
_cell_angle_beta     117.77
_cell_angle_gamma    90

_symmetry_space_group_name_H-M    "P 1"
_symmetry_int_tables_number       1

loop_
  _symmetry_equiv_pos_as_xyz
  'x, y, z'

loop_
  _atom_site_label
  _atom_site_occupancy
  _atom_site_fract_x
  _atom_site_fract_y
  _atom_site_fract_z
  _atom_site_thermal_displace_type
  _atom_site_B_iso_or_equiv
  _atom_site_type_symbol
  C1       1.0000 0.04190  0.57380  0.12190  Biso   1.000  C
  H1       1.0000 0.07130  0.56020  0.20070  Biso   1.000  H
  C2       1.0000 0.08860  0.61400  0.08570  Biso   1.000  C
  C3       1.0000 0.04790  0.63430  0.96800  Biso   1.000  C
  H2       1.0000 0.07940  0.66100  0.94490  Biso   1.000  H
  C4       1.0000 0.95090  0.55400  0.04010  Biso   1.000  C
  H3       1.0000 0.91890  0.52790  0.06380  Biso   1.000  H
  C5       1.0000 0.90990  0.57480  0.92220  Biso   1.000  C
  C6       1.0000 0.95940  0.61400  0.88600  Biso   1.000  C
  H4       1.0000 0.93220  0.62610  0.80620  Biso   1.000  H
  N1       1.0000 0.81860  0.55820  0.83170  Biso   1.000  N
  H5       1.0000 0.80770  0.56380  0.75850  Biso   1.000  H
  C7       1.0000 0.74630  0.53470  0.84480  Biso   1.000  C
  O1       1.0000 0.58020  0.51930  0.73030  Biso   1.000  O
  O2       1.0000 0.74780  0.52090  0.94170  Biso   1.000  O
  C8       1.0000 0.65530  0.52780  0.72140  Biso   1.000  C
  O3       1.0000 0.66730  0.53130  0.62930  Biso   1.000  O
  Ca1      1.0000 0.91691  0.00424  0.57367  Biso   1.000  Ca
  S1       1.0000 0.19910  0.64370  0.18600  Biso   1.000  S
  O4       1.0000 0.25640  0.59730  0.26210  Biso   1.000  O
  O5       1.0000 0.23660  0.67820  0.11980  Biso   1.000  O
  O6       1.0000 0.02390  0.84910  0.61950  Biso   1.000  O
  O7       1.0000 0.10440  0.89070  0.41260  Biso   1.000  O
  O8       1.0000 0.02480  0.93690  0.54160  Biso   1.000  O
  C9       1.0000 0.08260  0.85870  0.47420  Biso   1.000  C
  N2       1.0000 0.08930  0.80090  0.47810  Biso   1.000  N
  H6       1.0000 0.07400  0.78420  0.52760  Biso   1.000  H
  C10      1.0000 0.13750  0.70710  0.44600  Biso   1.000  C
  H7       1.0000 0.13190  0.69420  0.51270  Biso   1.000  H
  C11      1.0000 0.11870  0.76460  0.41030  Biso   1.000  C
  C12      1.0000 0.16450  0.66960  0.38060  Biso   1.000  C
  H8       1.0000 0.17750  0.63170  0.40360  Biso   1.000  H
  C13      1.0000 0.03980  0.88380  0.55320  Biso   1.000  C
  C14      1.0000 0.17140  0.68990  0.28070  Biso   1.000  C
  C15      1.0000 0.12720  0.78450  0.31020  Biso   1.000  C
  H9       1.0000 0.11560  0.82240  0.28760  Biso   1.000  H
  C16      1.0000 0.15330  0.74640  0.24410  Biso   1.000  C
  H10      1.0000 0.15840  0.75880  0.17690  Biso   1.000  H
  S2       1.0000 0.20280  0.62990  0.22400  Biso   1.000  S
  O9       1.0000 0.24800  0.58150  0.30400  Biso   1.000  O
  O10      1.0000 0.25100  0.65830  0.16300  Biso   1.000  O
  C17      1.0000 0.54190  0.07380  0.12190  Biso   1.000  C
  H11      1.0000 0.57130  0.06020  0.20070  Biso   1.000  H
  C18      1.0000 0.58860  0.11400  0.08570  Biso   1.000  C
  C19      1.0000 0.54790  0.13430  0.96800  Biso   1.000  C
  H12      1.0000 0.57940  0.16100  0.94490  Biso   1.000  H
  C20      1.0000 0.45090  0.05400  0.04010  Biso   1.000  C
  H13      1.0000 0.41890  0.02790  0.06380  Biso   1.000  H
  C21      1.0000 0.40990  0.07480  0.92220  Biso   1.000  C
  C22      1.0000 0.45940  0.11400  0.88600  Biso   1.000  C
  H14      1.0000 0.43220  0.12610  0.80620  Biso   1.000  H
  N3       1.0000 0.31860  0.05820  0.83170  Biso   1.000  N
  H15      1.0000 0.30770  0.06380  0.75850  Biso   1.000  H
  C23      1.0000 0.24630  0.03470  0.84480  Biso   1.000  C
  O11      1.0000 0.08020  0.01930  0.73030  Biso   1.000  O
  O12      1.0000 0.24780  0.02090  0.94170  Biso   1.000  O
  C24      1.0000 0.15530  0.02780  0.72140  Biso   1.000  C
  O13      1.0000 0.16730  0.03130  0.62930  Biso   1.000  O
  Ca2      1.0000 0.41691  0.50424  0.57367  Biso   1.000  Ca
  S3       1.0000 0.69910  0.14370  0.18600  Biso   1.000  S
  O14      1.0000 0.75640  0.09730  0.26210  Biso   1.000  O
  O15      1.0000 0.73660  0.17820  0.11980  Biso   1.000  O
  O16      1.0000 0.52390  0.34910  0.61950  Biso   1.000  O
  O17      1.0000 0.60440  0.39070  0.41260  Biso   1.000  O
  O18      1.0000 0.52480  0.43690  0.54160  Biso   1.000  O
  C25      1.0000 0.58260  0.35870  0.47420  Biso   1.000  C
  N4       1.0000 0.58930  0.30090  0.47810  Biso   1.000  N
  H16      1.0000 0.57400  0.28420  0.52760  Biso   1.000  H
  C26      1.0000 0.63750  0.20710  0.44600  Biso   1.000  C
  H17      1.0000 0.63190  0.19420  0.51270  Biso   1.000  H
  C27      1.0000 0.61870  0.26460  0.41030  Biso   1.000  C
  C28      1.0000 0.66450  0.16960  0.38060  Biso   1.000  C
  H18      1.0000 0.67750  0.13170  0.40360  Biso   1.000  H
  C29      1.0000 0.53980  0.38380  0.55320  Biso   1.000  C
  C30      1.0000 0.67140  0.18990  0.28070  Biso   1.000  C
  C31      1.0000 0.62720  0.28450  0.31020  Biso   1.000  C
  H19      1.0000 0.61560  0.32240  0.28760  Biso   1.000  H
  C32      1.0000 0.65330  0.24640  0.24410  Biso   1.000  C
  H20      1.0000 0.65840  0.25880  0.17690  Biso   1.000  H
  S4       1.0000 0.70280  0.12990  0.22400  Biso   1.000  S
  O19      1.0000 0.74800  0.08150  0.30400  Biso   1.000  O
  O20      1.0000 0.75100  0.15830  0.16300  Biso   1.000  O
  C33      1.0000 0.95810  0.57380  0.37810  Biso   1.000  C
  H21      1.0000 0.92870  0.56020  0.29930  Biso   1.000  H
  C34      1.0000 0.91140  0.61400  0.41430  Biso   1.000  C
  C35      1.0000 0.95210  0.63430  0.53200  Biso   1.000  C
  H22      1.0000 0.92060  0.66100  0.55510  Biso   1.000  H
  C36      1.0000 0.04910  0.55400  0.45990  Biso   1.000  C
  H23      1.0000 0.08110  0.52790  0.43620  Biso   1.000  H
  C37      1.0000 0.09010  0.57480  0.57780  Biso   1.000  C
  C38      1.0000 0.04060  0.61400  0.61400  Biso   1.000  C
  H24      1.0000 0.06780  0.62610  0.69380  Biso   1.000  H
  N5       1.0000 0.18140  0.55820  0.66830  Biso   1.000  N
  H25      1.0000 0.19230  0.56380  0.74150  Biso   1.000  H
  C39      1.0000 0.25370  0.53470  0.65520  Biso   1.000  C
  O21      1.0000 0.41980  0.51930  0.76970  Biso   1.000  O
  O22      1.0000 0.25220  0.52090  0.55830  Biso   1.000  O
  C40      1.0000 0.34470  0.52780  0.77860  Biso   1.000  C
  O23      1.0000 0.33270  0.53130  0.87070  Biso   1.000  O
  Ca3      1.0000 0.08309  0.00424  0.92633  Biso   1.000  Ca
  S5       1.0000 0.80090  0.64370  0.31400  Biso   1.000  S
  O24      1.0000 0.74360  0.59730  0.23790  Biso   1.000  O
  O25      1.0000 0.76340  0.67820  0.38020  Biso   1.000  O
  O26      1.0000 0.97610  0.84910  0.88050  Biso   1.000  O
  O27      1.0000 0.89560  0.89070  0.08740  Biso   1.000  O
  O28      1.0000 0.97520  0.93690  0.95840  Biso   1.000  O
  C41      1.0000 0.91740  0.85870  0.02580  Biso   1.000  C
  N6       1.0000 0.91070  0.80090  0.02190  Biso   1.000  N
  H26      1.0000 0.92600  0.78420  0.97240  Biso   1.000  H
  C42      1.0000 0.86250  0.70710  0.05400  Biso   1.000  C
  H27      1.0000 0.86810  0.69420  0.98730  Biso   1.000  H
  C43      1.0000 0.88130  0.76460  0.08970  Biso   1.000  C
  C44      1.0000 0.83550  0.66960  0.11940  Biso   1.000  C
  H28      1.0000 0.82250  0.63170  0.09640  Biso   1.000  H
  C45      1.0000 0.96020  0.88380  0.94680  Biso   1.000  C
  C46      1.0000 0.82860  0.68990  0.21930  Biso   1.000  C
  C47      1.0000 0.87280  0.78450  0.18980  Biso   1.000  C
  H29      1.0000 0.88440  0.82240  0.21240  Biso   1.000  H
  C48      1.0000 0.84670  0.74640  0.25590  Biso   1.000  C
  H30      1.0000 0.84160  0.75880  0.32310  Biso   1.000  H
  S6       1.0000 0.79720  0.62990  0.27600  Biso   1.000  S
  O29      1.0000 0.75200  0.58150  0.19600  Biso   1.000  O
  O30      1.0000 0.74900  0.65830  0.33700  Biso   1.000  O
  C49      1.0000 0.45810  0.07380  0.37810  Biso   1.000  C
  H31      1.0000 0.42870  0.06020  0.29930  Biso   1.000  H
  C50      1.0000 0.41140  0.11400  0.41430  Biso   1.000  C
  C51      1.0000 0.45210  0.13430  0.53200  Biso   1.000  C
  H32      1.0000 0.42060  0.16100  0.55510  Biso   1.000  H
  C52      1.0000 0.54910  0.05400  0.45990  Biso   1.000  C
  H33      1.0000 0.58110  0.02790  0.43620  Biso   1.000  H
  C53      1.0000 0.59010  0.07480  0.57780  Biso   1.000  C
  C54      1.0000 0.54060  0.11400  0.61400  Biso   1.000  C
  H34      1.0000 0.56780  0.12610  0.69380  Biso   1.000  H
  N7       1.0000 0.68140  0.05820  0.66830  Biso   1.000  N
  H35      1.0000 0.69230  0.06380  0.74150  Biso   1.000  H
  C55      1.0000 0.75370  0.03470  0.65520  Biso   1.000  C
  O31      1.0000 0.91980  0.01930  0.76970  Biso   1.000  O
  O32      1.0000 0.75220  0.02090  0.55830  Biso   1.000  O
  C56      1.0000 0.84470  0.02780  0.77860  Biso   1.000  C
  O33      1.0000 0.83270  0.03130  0.87070  Biso   1.000  O
  Ca4      1.0000 0.58309  0.50424  0.92633  Biso   1.000  Ca
  S7       1.0000 0.30090  0.14370  0.31400  Biso   1.000  S
  O34      1.0000 0.24360  0.09730  0.23790  Biso   1.000  O
  O35      1.0000 0.26340  0.17820  0.38020  Biso   1.000  O
  O36      1.0000 0.47610  0.34910  0.88050  Biso   1.000  O
  O37      1.0000 0.39560  0.39070  0.08740  Biso   1.000  O
  O38      1.0000 0.47520  0.43690  0.95840  Biso   1.000  O
  C57      1.0000 0.41740  0.35870  0.02580  Biso   1.000  C
  N8       1.0000 0.41070  0.30090  0.02190  Biso   1.000  N
  H36      1.0000 0.42600  0.28420  0.97240  Biso   1.000  H
  C58      1.0000 0.36250  0.20710  0.05400  Biso   1.000  C
  H37      1.0000 0.36810  0.19420  0.98730  Biso   1.000  H
  C59      1.0000 0.38130  0.26460  0.08970  Biso   1.000  C
  C60      1.0000 0.33550  0.16960  0.11940  Biso   1.000  C
  H38      1.0000 0.32250  0.13170  0.09640  Biso   1.000  H
  C61      1.0000 0.46020  0.38380  0.94680  Biso   1.000  C
  C62      1.0000 0.32860  0.18990  0.21930  Biso   1.000  C
  C63      1.0000 0.37280  0.28450  0.18980  Biso   1.000  C
  H39      1.0000 0.38440  0.32240  0.21240  Biso   1.000  H
  C64      1.0000 0.34670  0.24640  0.25590  Biso   1.000  C
  H40      1.0000 0.34160  0.25880  0.32310  Biso   1.000  H
  S8       1.0000 0.29720  0.12990  0.27600  Biso   1.000  S
  O39      1.0000 0.25200  0.08150  0.19600  Biso   1.000  O
  O40      1.0000 0.24900  0.15830  0.33700  Biso   1.000  O
  C65      1.0000 0.95810  0.42620  0.87810  Biso   1.000  C
  H41      1.0000 0.92870  0.43980  0.79930  Biso   1.000  H
  C66      1.0000 0.91140  0.38600  0.91430  Biso   1.000  C
  C67      1.0000 0.95210  0.36570  0.03200  Biso   1.000  C
  H42      1.0000 0.92060  0.33900  0.05510  Biso   1.000  H
  C68      1.0000 0.04910  0.44600  0.95990  Biso   1.000  C
  H43      1.0000 0.08110  0.47210  0.93620  Biso   1.000  H
  C69      1.0000 0.09010  0.42520  0.07780  Biso   1.000  C
  C70      1.0000 0.04060  0.38600  0.11400  Biso   1.000  C
  H44      1.0000 0.06780  0.37390  0.19380  Biso   1.000  H
  N9       1.0000 0.18140  0.44180  0.16830  Biso   1.000  N
  H45      1.0000 0.19230  0.43620  0.24150  Biso   1.000  H
  C71      1.0000 0.25370  0.46530  0.15520  Biso   1.000  C
  O41      1.0000 0.41980  0.48070  0.26970  Biso   1.000  O
  O42      1.0000 0.25220  0.47910  0.05830  Biso   1.000  O
  C72      1.0000 0.34470  0.47220  0.27860  Biso   1.000  C
  O43      1.0000 0.33270  0.46870  0.37070  Biso   1.000  O
  Ca5      1.0000 0.08309  0.99576  0.42633  Biso   1.000  Ca
  S9       1.0000 0.80090  0.35630  0.81400  Biso   1.000  S
  O44      1.0000 0.74360  0.40270  0.73790  Biso   1.000  O
  O45      1.0000 0.76340  0.32180  0.88020  Biso   1.000  O
  O46      1.0000 0.97610  0.15090  0.38050  Biso   1.000  O
  O47      1.0000 0.89560  0.10930  0.58740  Biso   1.000  O
  O48      1.0000 0.97520  0.06310  0.45840  Biso   1.000  O
  C73      1.0000 0.91740  0.14130  0.52580  Biso   1.000  C
  N10      1.0000 0.91070  0.19910  0.52190  Biso   1.000  N
  H46      1.0000 0.92600  0.21580  0.47240  Biso   1.000  H
  C74      1.0000 0.86250  0.29290  0.55400  Biso   1.000  C
  H47      1.0000 0.86810  0.30580  0.48730  Biso   1.000  H
  C75      1.0000 0.88130  0.23540  0.58970  Biso   1.000  C
  C76      1.0000 0.83550  0.33040  0.61940  Biso   1.000  C
  H48      1.0000 0.82250  0.36830  0.59640  Biso   1.000  H
  C77      1.0000 0.96020  0.11620  0.44680  Biso   1.000  C
  C78      1.0000 0.82860  0.31010  0.71930  Biso   1.000  C
  C79      1.0000 0.87280  0.21550  0.68980  Biso   1.000  C
  H49      1.0000 0.88440  0.17760  0.71240  Biso   1.000  H
  C80      1.0000 0.84670  0.25360  0.75590  Biso   1.000  C
  H50      1.0000 0.84160  0.24120  0.82310  Biso   1.000  H
  S10      1.0000 0.79720  0.37010  0.77600  Biso   1.000  S
  O49      1.0000 0.75200  0.41850  0.69600  Biso   1.000  O
  O50      1.0000 0.74900  0.34170  0.83700  Biso   1.000  O
  C81      1.0000 0.45810  0.92620  0.87810  Biso   1.000  C
  H51      1.0000 0.42870  0.93980  0.79930  Biso   1.000  H
  C82      1.0000 0.41140  0.88600  0.91430  Biso   1.000  C
  C83      1.0000 0.45210  0.86570  0.03200  Biso   1.000  C
  H52      1.0000 0.42060  0.83900  0.05510  Biso   1.000  H
  C84      1.0000 0.54910  0.94600  0.95990  Biso   1.000  C
  H53      1.0000 0.58110  0.97210  0.93620  Biso   1.000  H
  C85      1.0000 0.59010  0.92520  0.07780  Biso   1.000  C
  C86      1.0000 0.54060  0.88600  0.11400  Biso   1.000  C
  H54      1.0000 0.56780  0.87390  0.19380  Biso   1.000  H
  N11      1.0000 0.68140  0.94180  0.16830  Biso   1.000  N
  H55      1.0000 0.69230  0.93620  0.24150  Biso   1.000  H
  C87      1.0000 0.75370  0.96530  0.15520  Biso   1.000  C
  O51      1.0000 0.91980  0.98070  0.26970  Biso   1.000  O
  O52      1.0000 0.75220  0.97910  0.05830  Biso   1.000  O
  C88      1.0000 0.84470  0.97220  0.27860  Biso   1.000  C
  O53      1.0000 0.83270  0.96870  0.37070  Biso   1.000  O
  Ca6      1.0000 0.58309  0.49576  0.42633  Biso   1.000  Ca
  S11      1.0000 0.30090  0.85630  0.81400  Biso   1.000  S
  O54      1.0000 0.24360  0.90270  0.73790  Biso   1.000  O
  O55      1.0000 0.26340  0.82180  0.88020  Biso   1.000  O
  O56      1.0000 0.47610  0.65090  0.38050  Biso   1.000  O
  O57      1.0000 0.39560  0.60930  0.58740  Biso   1.000  O
  O58      1.0000 0.47520  0.56310  0.45840  Biso   1.000  O
  C89      1.0000 0.41740  0.64130  0.52580  Biso   1.000  C
  N12      1.0000 0.41070  0.69910  0.52190  Biso   1.000  N
  H56      1.0000 0.42600  0.71580  0.47240  Biso   1.000  H
  C90      1.0000 0.36250  0.79290  0.55400  Biso   1.000  C
  H57      1.0000 0.36810  0.80580  0.48730  Biso   1.000  H
  C91      1.0000 0.38130  0.73540  0.58970  Biso   1.000  C
  C92      1.0000 0.33550  0.83040  0.61940  Biso   1.000  C
  H58      1.0000 0.32250  0.86830  0.59640  Biso   1.000  H
  C93      1.0000 0.46020  0.61620  0.44680  Biso   1.000  C
  C94      1.0000 0.32860  0.81010  0.71930  Biso   1.000  C
  C95      1.0000 0.37280  0.71550  0.68980  Biso   1.000  C
  H59      1.0000 0.38440  0.67760  0.71240  Biso   1.000  H
  C96      1.0000 0.34670  0.75360  0.75590  Biso   1.000  C
  H60      1.0000 0.34160  0.74120  0.82310  Biso   1.000  H
  S12      1.0000 0.29720  0.87010  0.77600  Biso   1.000  S
  O59      1.0000 0.25200  0.91850  0.69600  Biso   1.000  O
  O60      1.0000 0.24900  0.84170  0.83700  Biso   1.000  O
  C97      1.0000 0.04190  0.42620  0.62190  Biso   1.000  C
  H61      1.0000 0.07130  0.43980  0.70070  Biso   1.000  H
  C98      1.0000 0.08860  0.38600  0.58570  Biso   1.000  C
  C99      1.0000 0.04790  0.36570  0.46800  Biso   1.000  C
  H62      1.0000 0.07940  0.33900  0.44490  Biso   1.000  H
  C100     1.0000 0.95090  0.44600  0.54010  Biso   1.000  C
  H63      1.0000 0.91890  0.47210  0.56380  Biso   1.000  H
  C101     1.0000 0.90990  0.42520  0.42220  Biso   1.000  C
  C102     1.0000 0.95940  0.38600  0.38600  Biso   1.000  C
  H64      1.0000 0.93220  0.37390  0.30620  Biso   1.000  H
  N13      1.0000 0.81860  0.44180  0.33170  Biso   1.000  N
  H65      1.0000 0.80770  0.43620  0.25850  Biso   1.000  H
  C103     1.0000 0.74630  0.46530  0.34480  Biso   1.000  C
  O61      1.0000 0.58020  0.48070  0.23030  Biso   1.000  O
  O62      1.0000 0.74780  0.47910  0.44170  Biso   1.000  O
  C104     1.0000 0.65530  0.47220  0.22140  Biso   1.000  C
  O63      1.0000 0.66730  0.46870  0.12930  Biso   1.000  O
  Ca7      1.0000 0.91691  0.99576  0.07367  Biso   1.000  Ca
  S13      1.0000 0.19910  0.35630  0.68600  Biso   1.000  S
  O64      1.0000 0.25640  0.40270  0.76210  Biso   1.000  O
  O65      1.0000 0.23660  0.32180  0.61980  Biso   1.000  O
  O66      1.0000 0.02390  0.15090  0.11950  Biso   1.000  O
  O67      1.0000 0.10440  0.10930  0.91260  Biso   1.000  O
  O68      1.0000 0.02480  0.06310  0.04160  Biso   1.000  O
  C105     1.0000 0.08260  0.14130  0.97420  Biso   1.000  C
  N14      1.0000 0.08930  0.19910  0.97810  Biso   1.000  N
  H66      1.0000 0.07400  0.21580  0.02760  Biso   1.000  H
  C106     1.0000 0.13750  0.29290  0.94600  Biso   1.000  C
  H67      1.0000 0.13190  0.30580  0.01270  Biso   1.000  H
  C107     1.0000 0.11870  0.23540  0.91030  Biso   1.000  C
  C108     1.0000 0.16450  0.33040  0.88060  Biso   1.000  C
  H68      1.0000 0.17750  0.36830  0.90360  Biso   1.000  H
  C109     1.0000 0.03980  0.11620  0.05320  Biso   1.000  C
  C110     1.0000 0.17140  0.31010  0.78070  Biso   1.000  C
  C111     1.0000 0.12720  0.21550  0.81020  Biso   1.000  C
  H69      1.0000 0.11560  0.17760  0.78760  Biso   1.000  H
  C112     1.0000 0.15330  0.25360  0.74410  Biso   1.000  C
  H70      1.0000 0.15840  0.24120  0.67690  Biso   1.000  H
  S14      1.0000 0.20280  0.37010  0.72400  Biso   1.000  S
  O69      1.0000 0.24800  0.41850  0.80400  Biso   1.000  O
  O70      1.0000 0.25100  0.34170  0.66300  Biso   1.000  O
  C113     1.0000 0.54190  0.92620  0.62190  Biso   1.000  C
  H71      1.0000 0.57130  0.93980  0.70070  Biso   1.000  H
  C114     1.0000 0.58860  0.88600  0.58570  Biso   1.000  C
  C115     1.0000 0.54790  0.86570  0.46800  Biso   1.000  C
  H72      1.0000 0.57940  0.83900  0.44490  Biso   1.000  H
  C116     1.0000 0.45090  0.94600  0.54010  Biso   1.000  C
  H73      1.0000 0.41890  0.97210  0.56380  Biso   1.000  H
  C117     1.0000 0.40990  0.92520  0.42220  Biso   1.000  C
  C118     1.0000 0.45940  0.88600  0.38600  Biso   1.000  C
  H74      1.0000 0.43220  0.87390  0.30620  Biso   1.000  H
  N15      1.0000 0.31860  0.94180  0.33170  Biso   1.000  N
  H75      1.0000 0.30770  0.93620  0.25850  Biso   1.000  H
  C119     1.0000 0.24630  0.96530  0.34480  Biso   1.000  C
  O71      1.0000 0.08020  0.98070  0.23030  Biso   1.000  O
  O72      1.0000 0.24780  0.97910  0.44170  Biso   1.000  O
  C120     1.0000 0.15530  0.97220  0.22140  Biso   1.000  C
  O73      1.0000 0.16730  0.96870  0.12930  Biso   1.000  O
  Ca8      1.0000 0.41691  0.49576  0.07367  Biso   1.000  Ca
  S15      1.0000 0.69910  0.85630  0.68600  Biso   1.000  S
  O74      1.0000 0.75640  0.90270  0.76210  Biso   1.000  O
  O75      1.0000 0.73660  0.82180  0.61980  Biso   1.000  O
  O76      1.0000 0.52390  0.65090  0.11950  Biso   1.000  O
  O77      1.0000 0.60440  0.60930  0.91260  Biso   1.000  O
  O78      1.0000 0.52480  0.56310  0.04160  Biso   1.000  O
  C121     1.0000 0.58260  0.64130  0.97420  Biso   1.000  C
  N16      1.0000 0.58930  0.69910  0.97810  Biso   1.000  N
  H76      1.0000 0.57400  0.71580  0.02760  Biso   1.000  H
  C122     1.0000 0.63750  0.79290  0.94600  Biso   1.000  C
  H77      1.0000 0.63190  0.80580  0.01270  Biso   1.000  H
  C123     1.0000 0.61870  0.73540  0.91030  Biso   1.000  C
  C124     1.0000 0.66450  0.83040  0.88060  Biso   1.000  C
  H78      1.0000 0.67750  0.86830  0.90360  Biso   1.000  H
  C125     1.0000 0.53980  0.61620  0.05320  Biso   1.000  C
  C126     1.0000 0.67140  0.81010  0.78070  Biso   1.000  C
  C127     1.0000 0.62720  0.71550  0.81020  Biso   1.000  C
  H79      1.0000 0.61560  0.67760  0.78760  Biso   1.000  H
  C128     1.0000 0.65330  0.75360  0.74410  Biso   1.000  C
  H80      1.0000 0.65840  0.74120  0.67690  Biso   1.000  H
  S16      1.0000 0.70280  0.87010  0.72400  Biso   1.000  S
  O79      1.0000 0.74800  0.91850  0.80400  Biso   1.000  O
  O80      1.0000 0.75100  0.84170  0.66300  Biso   1.000  O
