data_image0
_cell_length_a       16.765
_cell_length_b       28.419
_cell_length_c       11.636
_cell_angle_alpha    90
_cell_angle_beta     99.94
_cell_angle_gamma    90

_symmetry_space_group_name_H-M    "P 1"
_symmetry_int_tables_number       1

loop_
  _symmetry_equiv_pos_as_xyz
  'x, y, z'

loop_
  _atom_site_label
  _atom_site_occupancy
  _atom_site_fract_x
  _atom_site_fract_y
  _atom_site_fract_z
  _atom_site_thermal_displace_type
  _atom_site_B_iso_or_equiv
  _atom_site_type_symbol
  Zn1      1.0000 0.98804  0.64012  0.60118  Biso   1.000  Zn
  O1       1.0000 0.46870  0.20472  0.65670  Biso   1.000  O
  O2       1.0000 0.90140  0.60216  0.64820  Biso   1.000  O
  O3       1.0000 0.90010  0.62677  0.82880  Biso   1.000  O
  C1       1.0000 0.87080  0.60478  0.73760  Biso   1.000  C
  C2       1.0000 0.79200  0.57974  0.73840  Biso   1.000  C
  C3       1.0000 0.75500  0.58060  0.83430  Biso   1.000  C
  H1       1.0000 0.77840  0.59810  0.90130  Biso   1.000  H
  C4       1.0000 0.68240  0.55575  0.83410  Biso   1.000  C
  H2       1.0000 0.65640  0.55720  0.90040  Biso   1.000  H
  C5       1.0000 0.64870  0.52944  0.73920  Biso   1.000  C
  C6       1.0000 0.68530  0.52880  0.64330  Biso   1.000  C
  H3       1.0000 0.66200  0.51110  0.57680  Biso   1.000  H
  C7       1.0000 0.75590  0.55370  0.64200  Biso   1.000  C
  H4       1.0000 0.78030  0.55310  0.57410  Biso   1.000  H
  C8       1.0000 0.57130  0.50320  0.74150  Biso   1.000  C
  C9       1.0000 0.48500  0.60508  0.84770  Biso   1.000  C
  H5       1.0000 0.47430  0.58850  0.91440  Biso   1.000  H
  C10      1.0000 0.48550  0.65370  0.84830  Biso   1.000  C
  H6       1.0000 0.47600  0.67030  0.91550  Biso   1.000  H
  C11      1.0000 0.57120  0.45346  0.74200  Biso   1.000  C
  C12      1.0000 0.64640  0.42719  0.72980  Biso   1.000  C
  C13      1.0000 0.71390  0.43030  0.81530  Biso   1.000  C
  H7       1.0000 0.71310  0.45020  0.88060  Biso   1.000  H
  C14      1.0000 0.78340  0.40450  0.80730  Biso   1.000  C
  H8       1.0000 0.82960  0.40680  0.86700  Biso   1.000  H
  C15      1.0000 0.78490  0.37560  0.71300  Biso   1.000  C
  H9       1.0000 0.83190  0.35750  0.70830  Biso   1.000  H
  C16      1.0000 0.71890  0.37290  0.62570  Biso   1.000  C
  H10      1.0000 0.72110  0.35360  0.55970  Biso   1.000  H
  C17      1.0000 0.64790  0.39832  0.63230  Biso   1.000  C
  H11      1.0000 0.60190  0.39600  0.57220  Biso   1.000  H
  C18      1.0000 0.45300  0.35133  0.66110  Biso   1.000  C
  H12      1.0000 0.41990  0.36780  0.59960  Biso   1.000  H
  C19      1.0000 0.45330  0.30293  0.66020  Biso   1.000  C
  H13      1.0000 0.42130  0.28650  0.59760  Biso   1.000  H
  Cl1      1.0000 0.98750  0.63717  0.41030  Biso   1.000  Cl
  O4       1.0000 0.00810  0.57250  0.52440  Biso   1.000  O
  N1       1.0000 0.98590  0.51980  0.37080  Biso   1.000  N
  C20      1.0000 0.01710  0.56230  0.42840  Biso   1.000  C
  C21      1.0000 0.07740  0.58010  0.35700  Biso   1.000  C
  H14      1.0000 0.11640  0.55520  0.34930  Biso   1.000  H
  H15      1.0000 0.10600  0.60730  0.39650  Biso   1.000  H
  H16      1.0000 0.04910  0.58950  0.28000  Biso   1.000  H
  C22      1.0000 0.92890  0.49630  0.43700  Biso   1.000  C
  H17      1.0000 0.87700  0.51300  0.42390  Biso   1.000  H
  H18      1.0000 0.95170  0.49650  0.52030  Biso   1.000  H
  H19      1.0000 0.92030  0.46370  0.41010  Biso   1.000  H
  H20      1.0000 0.03820  0.53020  0.22980  Biso   1.000  H
  H21      1.0000 0.02250  0.47670  0.25030  Biso   1.000  H
  H22      1.0000 0.95090  0.50930  0.19380  Biso   1.000  H
  O5       1.0000 0.94510  0.66710  0.44550  Biso   1.000  O
  H23      1.0000 0.97090  0.66590  0.38980  Biso   1.000  H
  H24      1.0000 0.89570  0.67130  0.41980  Biso   1.000  H
  Zn2      1.0000 0.48804  0.14012  0.60118  Biso   1.000  Zn
  O6       1.0000 0.96870  0.70472  0.65670  Biso   1.000  O
  O7       1.0000 0.40140  0.10216  0.64820  Biso   1.000  O
  O8       1.0000 0.40010  0.12677  0.82880  Biso   1.000  O
  C23      1.0000 0.37080  0.10478  0.73760  Biso   1.000  C
  C24      1.0000 0.29200  0.07974  0.73840  Biso   1.000  C
  C25      1.0000 0.25500  0.08060  0.83430  Biso   1.000  C
  H25      1.0000 0.27840  0.09810  0.90130  Biso   1.000  H
  C26      1.0000 0.18240  0.05575  0.83410  Biso   1.000  C
  H26      1.0000 0.15640  0.05720  0.90040  Biso   1.000  H
  C27      1.0000 0.14870  0.02944  0.73920  Biso   1.000  C
  C28      1.0000 0.18530  0.02880  0.64330  Biso   1.000  C
  H27      1.0000 0.16200  0.01110  0.57680  Biso   1.000  H
  C29      1.0000 0.25590  0.05370  0.64200  Biso   1.000  C
  H28      1.0000 0.28030  0.05310  0.57410  Biso   1.000  H
  C30      1.0000 0.07130  0.00320  0.74150  Biso   1.000  C
  C31      1.0000 0.98500  0.10508  0.84770  Biso   1.000  C
  H29      1.0000 0.97430  0.08850  0.91440  Biso   1.000  H
  C32      1.0000 0.98550  0.15370  0.84830  Biso   1.000  C
  H30      1.0000 0.97600  0.17030  0.91550  Biso   1.000  H
  C33      1.0000 0.07120  0.95346  0.74200  Biso   1.000  C
  C34      1.0000 0.14640  0.92719  0.72980  Biso   1.000  C
  C35      1.0000 0.21390  0.93030  0.81530  Biso   1.000  C
  H31      1.0000 0.21310  0.95020  0.88060  Biso   1.000  H
  C36      1.0000 0.28340  0.90450  0.80730  Biso   1.000  C
  H32      1.0000 0.32960  0.90680  0.86700  Biso   1.000  H
  C37      1.0000 0.28490  0.87560  0.71300  Biso   1.000  C
  H33      1.0000 0.33190  0.85750  0.70830  Biso   1.000  H
  C38      1.0000 0.21890  0.87290  0.62570  Biso   1.000  C
  H34      1.0000 0.22110  0.85360  0.55970  Biso   1.000  H
  C39      1.0000 0.14790  0.89832  0.63230  Biso   1.000  C
  H35      1.0000 0.10190  0.89600  0.57220  Biso   1.000  H
  C40      1.0000 0.95300  0.85133  0.66110  Biso   1.000  C
  H36      1.0000 0.91990  0.86780  0.59960  Biso   1.000  H
  C41      1.0000 0.95330  0.80293  0.66020  Biso   1.000  C
  H37      1.0000 0.92130  0.78650  0.59760  Biso   1.000  H
  Cl2      1.0000 0.48750  0.13717  0.41030  Biso   1.000  Cl
  O9       1.0000 0.50810  0.07250  0.52440  Biso   1.000  O
  N2       1.0000 0.48590  0.01980  0.37080  Biso   1.000  N
  C42      1.0000 0.51710  0.06230  0.42840  Biso   1.000  C
  C43      1.0000 0.57740  0.08010  0.35700  Biso   1.000  C
  H38      1.0000 0.61640  0.05520  0.34930  Biso   1.000  H
  H39      1.0000 0.60600  0.10730  0.39650  Biso   1.000  H
  H40      1.0000 0.54910  0.08950  0.28000  Biso   1.000  H
  C44      1.0000 0.42890  0.99630  0.43700  Biso   1.000  C
  H41      1.0000 0.37700  0.01300  0.42390  Biso   1.000  H
  H42      1.0000 0.45170  0.99650  0.52030  Biso   1.000  H
  H43      1.0000 0.42030  0.96370  0.41010  Biso   1.000  H
  H44      1.0000 0.53820  0.03020  0.22980  Biso   1.000  H
  H45      1.0000 0.52250  0.97670  0.25030  Biso   1.000  H
  H46      1.0000 0.45090  0.00930  0.19380  Biso   1.000  H
  O10      1.0000 0.44510  0.16710  0.44550  Biso   1.000  O
  H47      1.0000 0.47090  0.16590  0.38980  Biso   1.000  H
  H48      1.0000 0.39570  0.17130  0.41980  Biso   1.000  H
  Zn3      1.0000 0.01196  0.64012  0.89882  Biso   1.000  Zn
  O11      1.0000 0.53130  0.20472  0.84330  Biso   1.000  O
  O12      1.0000 0.09860  0.60216  0.85180  Biso   1.000  O
  O13      1.0000 0.09990  0.62677  0.67120  Biso   1.000  O
  C45      1.0000 0.12920  0.60478  0.76240  Biso   1.000  C
  C46      1.0000 0.20800  0.57974  0.76160  Biso   1.000  C
  C47      1.0000 0.24500  0.58060  0.66570  Biso   1.000  C
  H49      1.0000 0.22160  0.59810  0.59870  Biso   1.000  H
  C48      1.0000 0.31760  0.55575  0.66590  Biso   1.000  C
  H50      1.0000 0.34360  0.55720  0.59960  Biso   1.000  H
  C49      1.0000 0.35130  0.52944  0.76080  Biso   1.000  C
  C50      1.0000 0.31470  0.52880  0.85670  Biso   1.000  C
  H51      1.0000 0.33800  0.51110  0.92320  Biso   1.000  H
  C51      1.0000 0.24410  0.55370  0.85800  Biso   1.000  C
  H52      1.0000 0.21970  0.55310  0.92590  Biso   1.000  H
  C52      1.0000 0.42870  0.50320  0.75850  Biso   1.000  C
  C53      1.0000 0.51500  0.60508  0.65230  Biso   1.000  C
  H53      1.0000 0.52570  0.58850  0.58560  Biso   1.000  H
  C54      1.0000 0.51450  0.65370  0.65170  Biso   1.000  C
  H54      1.0000 0.52400  0.67030  0.58450  Biso   1.000  H
  C55      1.0000 0.42880  0.45346  0.75800  Biso   1.000  C
  C56      1.0000 0.35360  0.42719  0.77020  Biso   1.000  C
  C57      1.0000 0.28610  0.43030  0.68470  Biso   1.000  C
  H55      1.0000 0.28690  0.45020  0.61940  Biso   1.000  H
  C58      1.0000 0.21660  0.40450  0.69270  Biso   1.000  C
  H56      1.0000 0.17040  0.40680  0.63300  Biso   1.000  H
  C59      1.0000 0.21510  0.37560  0.78700  Biso   1.000  C
  H57      1.0000 0.16810  0.35750  0.79170  Biso   1.000  H
  C60      1.0000 0.28110  0.37290  0.87430  Biso   1.000  C
  H58      1.0000 0.27890  0.35360  0.94030  Biso   1.000  H
  C61      1.0000 0.35210  0.39832  0.86770  Biso   1.000  C
  H59      1.0000 0.39810  0.39600  0.92780  Biso   1.000  H
  C62      1.0000 0.54700  0.35133  0.83890  Biso   1.000  C
  H60      1.0000 0.58010  0.36780  0.90040  Biso   1.000  H
  C63      1.0000 0.54670  0.30293  0.83980  Biso   1.000  C
  H61      1.0000 0.57870  0.28650  0.90240  Biso   1.000  H
  Cl3      1.0000 0.01250  0.63717  0.08970  Biso   1.000  Cl
  O14      1.0000 0.99190  0.57250  0.97560  Biso   1.000  O
  N3       1.0000 0.01410  0.51980  0.12920  Biso   1.000  N
  C64      1.0000 0.98290  0.56230  0.07160  Biso   1.000  C
  C65      1.0000 0.92260  0.58010  0.14300  Biso   1.000  C
  H62      1.0000 0.88360  0.55520  0.15070  Biso   1.000  H
  H63      1.0000 0.89400  0.60730  0.10350  Biso   1.000  H
  H64      1.0000 0.95090  0.58950  0.22000  Biso   1.000  H
  C66      1.0000 0.07110  0.49630  0.06300  Biso   1.000  C
  H65      1.0000 0.12300  0.51300  0.07610  Biso   1.000  H
  H66      1.0000 0.04830  0.49650  0.97970  Biso   1.000  H
  H67      1.0000 0.07970  0.46370  0.08990  Biso   1.000  H
  H68      1.0000 0.96180  0.53020  0.27020  Biso   1.000  H
  H69      1.0000 0.97750  0.47670  0.24970  Biso   1.000  H
  H70      1.0000 0.04910  0.50930  0.30620  Biso   1.000  H
  O15      1.0000 0.05490  0.66710  0.05450  Biso   1.000  O
  H71      1.0000 0.02910  0.66590  0.11020  Biso   1.000  H
  H72      1.0000 0.10430  0.67130  0.08020  Biso   1.000  H
  Zn4      1.0000 0.51196  0.14012  0.89882  Biso   1.000  Zn
  O16      1.0000 0.03130  0.70472  0.84330  Biso   1.000  O
  O17      1.0000 0.59860  0.10216  0.85180  Biso   1.000  O
  O18      1.0000 0.59990  0.12677  0.67120  Biso   1.000  O
  C67      1.0000 0.62920  0.10478  0.76240  Biso   1.000  C
  C68      1.0000 0.70800  0.07974  0.76160  Biso   1.000  C
  C69      1.0000 0.74500  0.08060  0.66570  Biso   1.000  C
  H73      1.0000 0.72160  0.09810  0.59870  Biso   1.000  H
  C70      1.0000 0.81760  0.05575  0.66590  Biso   1.000  C
  H74      1.0000 0.84360  0.05720  0.59960  Biso   1.000  H
  C71      1.0000 0.85130  0.02944  0.76080  Biso   1.000  C
  C72      1.0000 0.81470  0.02880  0.85670  Biso   1.000  C
  H75      1.0000 0.83800  0.01110  0.92320  Biso   1.000  H
  C73      1.0000 0.74410  0.05370  0.85800  Biso   1.000  C
  H76      1.0000 0.71970  0.05310  0.92590  Biso   1.000  H
  C74      1.0000 0.92870  0.00320  0.75850  Biso   1.000  C
  C75      1.0000 0.01500  0.10508  0.65230  Biso   1.000  C
  H77      1.0000 0.02570  0.08850  0.58560  Biso   1.000  H
  C76      1.0000 0.01450  0.15370  0.65170  Biso   1.000  C
  H78      1.0000 0.02400  0.17030  0.58450  Biso   1.000  H
  C77      1.0000 0.92880  0.95346  0.75800  Biso   1.000  C
  C78      1.0000 0.85360  0.92719  0.77020  Biso   1.000  C
  C79      1.0000 0.78610  0.93030  0.68470  Biso   1.000  C
  H79      1.0000 0.78690  0.95020  0.61940  Biso   1.000  H
  C80      1.0000 0.71660  0.90450  0.69270  Biso   1.000  C
  H80      1.0000 0.67040  0.90680  0.63300  Biso   1.000  H
  C81      1.0000 0.71510  0.87560  0.78700  Biso   1.000  C
  H81      1.0000 0.66810  0.85750  0.79170  Biso   1.000  H
  C82      1.0000 0.78110  0.87290  0.87430  Biso   1.000  C
  H82      1.0000 0.77890  0.85360  0.94030  Biso   1.000  H
  C83      1.0000 0.85210  0.89832  0.86770  Biso   1.000  C
  H83      1.0000 0.89810  0.89600  0.92780  Biso   1.000  H
  C84      1.0000 0.04700  0.85133  0.83890  Biso   1.000  C
  H84      1.0000 0.08010  0.86780  0.90040  Biso   1.000  H
  C85      1.0000 0.04670  0.80293  0.83980  Biso   1.000  C
  H85      1.0000 0.07870  0.78650  0.90240  Biso   1.000  H
  Cl4      1.0000 0.51250  0.13717  0.08970  Biso   1.000  Cl
  O19      1.0000 0.49190  0.07250  0.97560  Biso   1.000  O
  N4       1.0000 0.51410  0.01980  0.12920  Biso   1.000  N
  C86      1.0000 0.48290  0.06230  0.07160  Biso   1.000  C
  C87      1.0000 0.42260  0.08010  0.14300  Biso   1.000  C
  H86      1.0000 0.38360  0.05520  0.15070  Biso   1.000  H
  H87      1.0000 0.39400  0.10730  0.10350  Biso   1.000  H
  H88      1.0000 0.45090  0.08950  0.22000  Biso   1.000  H
  C88      1.0000 0.57110  0.99630  0.06300  Biso   1.000  C
  H89      1.0000 0.62300  0.01300  0.07610  Biso   1.000  H
  H90      1.0000 0.54830  0.99650  0.97970  Biso   1.000  H
  H91      1.0000 0.57970  0.96370  0.08990  Biso   1.000  H
  H92      1.0000 0.46180  0.03020  0.27020  Biso   1.000  H
  H93      1.0000 0.47750  0.97670  0.24970  Biso   1.000  H
  H94      1.0000 0.54910  0.00930  0.30620  Biso   1.000  H
  O20      1.0000 0.55490  0.16710  0.05450  Biso   1.000  O
  H95      1.0000 0.52910  0.16590  0.11020  Biso   1.000  H
  H96      1.0000 0.60430  0.17130  0.08020  Biso   1.000  H
  C89      1.0000 0.50000  0.52710  0.75000  Biso   1.000  C
  C90      1.0000 0.50000  0.57970  0.75000  Biso   1.000  C
  C91      1.0000 0.50000  0.67850  0.75000  Biso   1.000  C
  H97      1.0000 0.50000  0.71200  0.75000  Biso   1.000  H
  C92      1.0000 0.50000  0.42930  0.75000  Biso   1.000  C
  C93      1.0000 0.50000  0.37650  0.75000  Biso   1.000  C
  C94      1.0000 0.50000  0.27800  0.75000  Biso   1.000  C
  C95      1.0000 0.50000  0.22530  0.75000  Biso   1.000  C
  C96      1.0000 0.00000  0.02710  0.75000  Biso   1.000  C
  C97      1.0000 0.00000  0.07970  0.75000  Biso   1.000  C
  C98      1.0000 0.00000  0.17850  0.75000  Biso   1.000  C
  H98      1.0000 0.00000  0.21200  0.75000  Biso   1.000  H
  C99      1.0000 0.00000  0.92930  0.75000  Biso   1.000  C
  C100     1.0000 0.00000  0.87650  0.75000  Biso   1.000  C
  C101     1.0000 0.00000  0.77800  0.75000  Biso   1.000  C
  C102     1.0000 0.00000  0.72530  0.75000  Biso   1.000  C
  C103     1.0000 0.00000  0.50779  0.25000  Biso   1.000  C
  C104     1.0000 0.50000  0.00779  0.25000  Biso   1.000  C
  Zn5      1.0000 0.01196  0.35988  0.39882  Biso   1.000  Zn
  O21      1.0000 0.53130  0.79528  0.34330  Biso   1.000  O
  O22      1.0000 0.09860  0.39784  0.35180  Biso   1.000  O
  O23      1.0000 0.09990  0.37323  0.17120  Biso   1.000  O
  C105     1.0000 0.12920  0.39522  0.26240  Biso   1.000  C
  C106     1.0000 0.20800  0.42026  0.26160  Biso   1.000  C
  C107     1.0000 0.24500  0.41940  0.16570  Biso   1.000  C
  H99      1.0000 0.22160  0.40190  0.09870  Biso   1.000  H
  C108     1.0000 0.31760  0.44425  0.16590  Biso   1.000  C
  H100     1.0000 0.34360  0.44280  0.09960  Biso   1.000  H
  C109     1.0000 0.35130  0.47056  0.26080  Biso   1.000  C
  C110     1.0000 0.31470  0.47120  0.35670  Biso   1.000  C
  H101     1.0000 0.33800  0.48890  0.42320  Biso   1.000  H
  C111     1.0000 0.24410  0.44630  0.35800  Biso   1.000  C
  H102     1.0000 0.21970  0.44690  0.42590  Biso   1.000  H
  C112     1.0000 0.42870  0.49680  0.25850  Biso   1.000  C
  C113     1.0000 0.51500  0.39492  0.15230  Biso   1.000  C
  H103     1.0000 0.52570  0.41150  0.08560  Biso   1.000  H
  C114     1.0000 0.51450  0.34630  0.15170  Biso   1.000  C
  H104     1.0000 0.52400  0.32970  0.08450  Biso   1.000  H
  C115     1.0000 0.42880  0.54654  0.25800  Biso   1.000  C
  C116     1.0000 0.35360  0.57281  0.27020  Biso   1.000  C
  C117     1.0000 0.28610  0.56970  0.18470  Biso   1.000  C
  H105     1.0000 0.28690  0.54980  0.11940  Biso   1.000  H
  C118     1.0000 0.21660  0.59550  0.19270  Biso   1.000  C
  H106     1.0000 0.17040  0.59320  0.13300  Biso   1.000  H
  C119     1.0000 0.21510  0.62440  0.28700  Biso   1.000  C
  H107     1.0000 0.16810  0.64250  0.29170  Biso   1.000  H
  C120     1.0000 0.28110  0.62710  0.37430  Biso   1.000  C
  H108     1.0000 0.27890  0.64640  0.44030  Biso   1.000  H
  C121     1.0000 0.35210  0.60168  0.36770  Biso   1.000  C
  H109     1.0000 0.39810  0.60400  0.42780  Biso   1.000  H
  C122     1.0000 0.54700  0.64867  0.33890  Biso   1.000  C
  H110     1.0000 0.58010  0.63220  0.40040  Biso   1.000  H
  C123     1.0000 0.54670  0.69707  0.33980  Biso   1.000  C
  H111     1.0000 0.57870  0.71350  0.40240  Biso   1.000  H
  Cl5      1.0000 0.01250  0.36283  0.58970  Biso   1.000  Cl
  O24      1.0000 0.99190  0.42750  0.47560  Biso   1.000  O
  N5       1.0000 0.01410  0.48020  0.62920  Biso   1.000  N
  C124     1.0000 0.98290  0.43770  0.57160  Biso   1.000  C
  C125     1.0000 0.92260  0.41990  0.64300  Biso   1.000  C
  H112     1.0000 0.88360  0.44480  0.65070  Biso   1.000  H
  H113     1.0000 0.89400  0.39270  0.60350  Biso   1.000  H
  H114     1.0000 0.95090  0.41050  0.72000  Biso   1.000  H
  C126     1.0000 0.07110  0.50370  0.56300  Biso   1.000  C
  H115     1.0000 0.12300  0.48700  0.57610  Biso   1.000  H
  H116     1.0000 0.04830  0.50350  0.47970  Biso   1.000  H
  H117     1.0000 0.07970  0.53630  0.58990  Biso   1.000  H
  H118     1.0000 0.96180  0.46980  0.77020  Biso   1.000  H
  H119     1.0000 0.97750  0.52330  0.74970  Biso   1.000  H
  H120     1.0000 0.04910  0.49070  0.80620  Biso   1.000  H
  O25      1.0000 0.05490  0.33290  0.55450  Biso   1.000  O
  H121     1.0000 0.02910  0.33410  0.61020  Biso   1.000  H
  H122     1.0000 0.10430  0.32870  0.58020  Biso   1.000  H
  Zn6      1.0000 0.51196  0.85988  0.39882  Biso   1.000  Zn
  O26      1.0000 0.03130  0.29528  0.34330  Biso   1.000  O
  O27      1.0000 0.59860  0.89784  0.35180  Biso   1.000  O
  O28      1.0000 0.59990  0.87323  0.17120  Biso   1.000  O
  C127     1.0000 0.62920  0.89522  0.26240  Biso   1.000  C
  C128     1.0000 0.70800  0.92026  0.26160  Biso   1.000  C
  C129     1.0000 0.74500  0.91940  0.16570  Biso   1.000  C
  H123     1.0000 0.72160  0.90190  0.09870  Biso   1.000  H
  C130     1.0000 0.81760  0.94425  0.16590  Biso   1.000  C
  H124     1.0000 0.84360  0.94280  0.09960  Biso   1.000  H
  C131     1.0000 0.85130  0.97056  0.26080  Biso   1.000  C
  C132     1.0000 0.81470  0.97120  0.35670  Biso   1.000  C
  H125     1.0000 0.83800  0.98890  0.42320  Biso   1.000  H
  C133     1.0000 0.74410  0.94630  0.35800  Biso   1.000  C
  H126     1.0000 0.71970  0.94690  0.42590  Biso   1.000  H
  C134     1.0000 0.92870  0.99680  0.25850  Biso   1.000  C
  C135     1.0000 0.01500  0.89492  0.15230  Biso   1.000  C
  H127     1.0000 0.02570  0.91150  0.08560  Biso   1.000  H
  C136     1.0000 0.01450  0.84630  0.15170  Biso   1.000  C
  H128     1.0000 0.02400  0.82970  0.08450  Biso   1.000  H
  C137     1.0000 0.92880  0.04654  0.25800  Biso   1.000  C
  C138     1.0000 0.85360  0.07281  0.27020  Biso   1.000  C
  C139     1.0000 0.78610  0.06970  0.18470  Biso   1.000  C
  H129     1.0000 0.78690  0.04980  0.11940  Biso   1.000  H
  C140     1.0000 0.71660  0.09550  0.19270  Biso   1.000  C
  H130     1.0000 0.67040  0.09320  0.13300  Biso   1.000  H
  C141     1.0000 0.71510  0.12440  0.28700  Biso   1.000  C
  H131     1.0000 0.66810  0.14250  0.29170  Biso   1.000  H
  C142     1.0000 0.78110  0.12710  0.37430  Biso   1.000  C
  H132     1.0000 0.77890  0.14640  0.44030  Biso   1.000  H
  C143     1.0000 0.85210  0.10168  0.36770  Biso   1.000  C
  H133     1.0000 0.89810  0.10400  0.42780  Biso   1.000  H
  C144     1.0000 0.04700  0.14867  0.33890  Biso   1.000  C
  H134     1.0000 0.08010  0.13220  0.40040  Biso   1.000  H
  C145     1.0000 0.04670  0.19707  0.33980  Biso   1.000  C
  H135     1.0000 0.07870  0.21350  0.40240  Biso   1.000  H
  Cl6      1.0000 0.51250  0.86283  0.58970  Biso   1.000  Cl
  O29      1.0000 0.49190  0.92750  0.47560  Biso   1.000  O
  N6       1.0000 0.51410  0.98020  0.62920  Biso   1.000  N
  C146     1.0000 0.48290  0.93770  0.57160  Biso   1.000  C
  C147     1.0000 0.42260  0.91990  0.64300  Biso   1.000  C
  H136     1.0000 0.38360  0.94480  0.65070  Biso   1.000  H
  H137     1.0000 0.39400  0.89270  0.60350  Biso   1.000  H
  H138     1.0000 0.45090  0.91050  0.72000  Biso   1.000  H
  C148     1.0000 0.57110  0.00370  0.56300  Biso   1.000  C
  H139     1.0000 0.62300  0.98700  0.57610  Biso   1.000  H
  H140     1.0000 0.54830  0.00350  0.47970  Biso   1.000  H
  H141     1.0000 0.57970  0.03630  0.58990  Biso   1.000  H
  H142     1.0000 0.46180  0.96980  0.77020  Biso   1.000  H
  H143     1.0000 0.47750  0.02330  0.74970  Biso   1.000  H
  H144     1.0000 0.54910  0.99070  0.80620  Biso   1.000  H
  O30      1.0000 0.55490  0.83290  0.55450  Biso   1.000  O
  H145     1.0000 0.52910  0.83410  0.61020  Biso   1.000  H
  H146     1.0000 0.60430  0.82870  0.58020  Biso   1.000  H
  Zn7      1.0000 0.98804  0.35988  0.10118  Biso   1.000  Zn
  O31      1.0000 0.46870  0.79528  0.15670  Biso   1.000  O
  O32      1.0000 0.90140  0.39784  0.14820  Biso   1.000  O
  O33      1.0000 0.90010  0.37323  0.32880  Biso   1.000  O
  C149     1.0000 0.87080  0.39522  0.23760  Biso   1.000  C
  C150     1.0000 0.79200  0.42026  0.23840  Biso   1.000  C
  C151     1.0000 0.75500  0.41940  0.33430  Biso   1.000  C
  H147     1.0000 0.77840  0.40190  0.40130  Biso   1.000  H
  C152     1.0000 0.68240  0.44425  0.33410  Biso   1.000  C
  H148     1.0000 0.65640  0.44280  0.40040  Biso   1.000  H
  C153     1.0000 0.64870  0.47056  0.23920  Biso   1.000  C
  C154     1.0000 0.68530  0.47120  0.14330  Biso   1.000  C
  H149     1.0000 0.66200  0.48890  0.07680  Biso   1.000  H
  C155     1.0000 0.75590  0.44630  0.14200  Biso   1.000  C
  H150     1.0000 0.78030  0.44690  0.07410  Biso   1.000  H
  C156     1.0000 0.57130  0.49680  0.24150  Biso   1.000  C
  C157     1.0000 0.48500  0.39492  0.34770  Biso   1.000  C
  H151     1.0000 0.47430  0.41150  0.41440  Biso   1.000  H
  C158     1.0000 0.48550  0.34630  0.34830  Biso   1.000  C
  H152     1.0000 0.47600  0.32970  0.41550  Biso   1.000  H
  C159     1.0000 0.57120  0.54654  0.24200  Biso   1.000  C
  C160     1.0000 0.64640  0.57281  0.22980  Biso   1.000  C
  C161     1.0000 0.71390  0.56970  0.31530  Biso   1.000  C
  H153     1.0000 0.71310  0.54980  0.38060  Biso   1.000  H
  C162     1.0000 0.78340  0.59550  0.30730  Biso   1.000  C
  H154     1.0000 0.82960  0.59320  0.36700  Biso   1.000  H
  C163     1.0000 0.78490  0.62440  0.21300  Biso   1.000  C
  H155     1.0000 0.83190  0.64250  0.20830  Biso   1.000  H
  C164     1.0000 0.71890  0.62710  0.12570  Biso   1.000  C
  H156     1.0000 0.72110  0.64640  0.05970  Biso   1.000  H
  C165     1.0000 0.64790  0.60168  0.13230  Biso   1.000  C
  H157     1.0000 0.60190  0.60400  0.07220  Biso   1.000  H
  C166     1.0000 0.45300  0.64867  0.16110  Biso   1.000  C
  H158     1.0000 0.41990  0.63220  0.09960  Biso   1.000  H
  C167     1.0000 0.45330  0.69707  0.16020  Biso   1.000  C
  H159     1.0000 0.42130  0.71350  0.09760  Biso   1.000  H
  Cl7      1.0000 0.98750  0.36283  0.91030  Biso   1.000  Cl
  O34      1.0000 0.00810  0.42750  0.02440  Biso   1.000  O
  N7       1.0000 0.98590  0.48020  0.87080  Biso   1.000  N
  C168     1.0000 0.01710  0.43770  0.92840  Biso   1.000  C
  C169     1.0000 0.07740  0.41990  0.85700  Biso   1.000  C
  H160     1.0000 0.11640  0.44480  0.84930  Biso   1.000  H
  H161     1.0000 0.10600  0.39270  0.89650  Biso   1.000  H
  H162     1.0000 0.04910  0.41050  0.78000  Biso   1.000  H
  C170     1.0000 0.92890  0.50370  0.93700  Biso   1.000  C
  H163     1.0000 0.87700  0.48700  0.92390  Biso   1.000  H
  H164     1.0000 0.95170  0.50350  0.02030  Biso   1.000  H
  H165     1.0000 0.92030  0.53630  0.91010  Biso   1.000  H
  H166     1.0000 0.03820  0.46980  0.72980  Biso   1.000  H
  H167     1.0000 0.02250  0.52330  0.75030  Biso   1.000  H
  H168     1.0000 0.95090  0.49070  0.69380  Biso   1.000  H
  O35      1.0000 0.94510  0.33290  0.94550  Biso   1.000  O
  H169     1.0000 0.97090  0.33410  0.88980  Biso   1.000  H
  H170     1.0000 0.89570  0.32870  0.91980  Biso   1.000  H
  Zn8      1.0000 0.48804  0.85988  0.10118  Biso   1.000  Zn
  O36      1.0000 0.96870  0.29528  0.15670  Biso   1.000  O
  O37      1.0000 0.40140  0.89784  0.14820  Biso   1.000  O
  O38      1.0000 0.40010  0.87323  0.32880  Biso   1.000  O
  C171     1.0000 0.37080  0.89522  0.23760  Biso   1.000  C
  C172     1.0000 0.29200  0.92026  0.23840  Biso   1.000  C
  C173     1.0000 0.25500  0.91940  0.33430  Biso   1.000  C
  H171     1.0000 0.27840  0.90190  0.40130  Biso   1.000  H
  C174     1.0000 0.18240  0.94425  0.33410  Biso   1.000  C
  H172     1.0000 0.15640  0.94280  0.40040  Biso   1.000  H
  C175     1.0000 0.14870  0.97056  0.23920  Biso   1.000  C
  C176     1.0000 0.18530  0.97120  0.14330  Biso   1.000  C
  H173     1.0000 0.16200  0.98890  0.07680  Biso   1.000  H
  C177     1.0000 0.25590  0.94630  0.14200  Biso   1.000  C
  H174     1.0000 0.28030  0.94690  0.07410  Biso   1.000  H
  C178     1.0000 0.07130  0.99680  0.24150  Biso   1.000  C
  C179     1.0000 0.98500  0.89492  0.34770  Biso   1.000  C
  H175     1.0000 0.97430  0.91150  0.41440  Biso   1.000  H
  C180     1.0000 0.98550  0.84630  0.34830  Biso   1.000  C
  H176     1.0000 0.97600  0.82970  0.41550  Biso   1.000  H
  C181     1.0000 0.07120  0.04654  0.24200  Biso   1.000  C
  C182     1.0000 0.14640  0.07281  0.22980  Biso   1.000  C
  C183     1.0000 0.21390  0.06970  0.31530  Biso   1.000  C
  H177     1.0000 0.21310  0.04980  0.38060  Biso   1.000  H
  C184     1.0000 0.28340  0.09550  0.30730  Biso   1.000  C
  H178     1.0000 0.32960  0.09320  0.36700  Biso   1.000  H
  C185     1.0000 0.28490  0.12440  0.21300  Biso   1.000  C
  H179     1.0000 0.33190  0.14250  0.20830  Biso   1.000  H
  C186     1.0000 0.21890  0.12710  0.12570  Biso   1.000  C
  H180     1.0000 0.22110  0.14640  0.05970  Biso   1.000  H
  C187     1.0000 0.14790  0.10168  0.13230  Biso   1.000  C
  H181     1.0000 0.10190  0.10400  0.07220  Biso   1.000  H
  C188     1.0000 0.95300  0.14867  0.16110  Biso   1.000  C
  H182     1.0000 0.91990  0.13220  0.09960  Biso   1.000  H
  C189     1.0000 0.95330  0.19707  0.16020  Biso   1.000  C
  H183     1.0000 0.92130  0.21350  0.09760  Biso   1.000  H
  Cl8      1.0000 0.48750  0.86283  0.91030  Biso   1.000  Cl
  O39      1.0000 0.50810  0.92750  0.02440  Biso   1.000  O
  N8       1.0000 0.48590  0.98020  0.87080  Biso   1.000  N
  C190     1.0000 0.51710  0.93770  0.92840  Biso   1.000  C
  C191     1.0000 0.57740  0.91990  0.85700  Biso   1.000  C
  H184     1.0000 0.61640  0.94480  0.84930  Biso   1.000  H
  H185     1.0000 0.60600  0.89270  0.89650  Biso   1.000  H
  H186     1.0000 0.54910  0.91050  0.78000  Biso   1.000  H
  C192     1.0000 0.42890  0.00370  0.93700  Biso   1.000  C
  H187     1.0000 0.37700  0.98700  0.92390  Biso   1.000  H
  H188     1.0000 0.45170  0.00350  0.02030  Biso   1.000  H
  H189     1.0000 0.42030  0.03630  0.91010  Biso   1.000  H
  H190     1.0000 0.53820  0.96980  0.72980  Biso   1.000  H
  H191     1.0000 0.52250  0.02330  0.75030  Biso   1.000  H
  H192     1.0000 0.45090  0.99070  0.69380  Biso   1.000  H
  O40      1.0000 0.44510  0.83290  0.94550  Biso   1.000  O
  H193     1.0000 0.47090  0.83410  0.88980  Biso   1.000  H
  H194     1.0000 0.39570  0.82870  0.91980  Biso   1.000  H
  C193     1.0000 0.50000  0.47290  0.25000  Biso   1.000  C
  C194     1.0000 0.50000  0.42030  0.25000  Biso   1.000  C
  C195     1.0000 0.50000  0.32150  0.25000  Biso   1.000  C
  H195     1.0000 0.50000  0.28800  0.25000  Biso   1.000  H
  C196     1.0000 0.50000  0.57070  0.25000  Biso   1.000  C
  C197     1.0000 0.50000  0.62350  0.25000  Biso   1.000  C
  C198     1.0000 0.50000  0.72200  0.25000  Biso   1.000  C
  C199     1.0000 0.50000  0.77470  0.25000  Biso   1.000  C
  C200     1.0000 0.00000  0.97290  0.25000  Biso   1.000  C
  C201     1.0000 0.00000  0.92030  0.25000  Biso   1.000  C
  C202     1.0000 0.00000  0.82150  0.25000  Biso   1.000  C
  H196     1.0000 0.00000  0.78800  0.25000  Biso   1.000  H
  C203     1.0000 0.00000  0.07070  0.25000  Biso   1.000  C
  C204     1.0000 0.00000  0.12350  0.25000  Biso   1.000  C
  C205     1.0000 0.00000  0.22200  0.25000  Biso   1.000  C
  C206     1.0000 0.00000  0.27470  0.25000  Biso   1.000  C
  C207     1.0000 0.00000  0.49221  0.75000  Biso   1.000  C
  C208     1.0000 0.50000  0.99221  0.75000  Biso   1.000  C
