data_image0
_cell_length_a       15.229
_cell_length_b       8.796
_cell_length_c       38.65
_cell_angle_alpha    90
_cell_angle_beta     89.977
_cell_angle_gamma    90

_symmetry_space_group_name_H-M    "P 1"
_symmetry_int_tables_number       1

loop_
  _symmetry_equiv_pos_as_xyz
  'x, y, z'

loop_
  _atom_site_label
  _atom_site_occupancy
  _atom_site_fract_x
  _atom_site_fract_y
  _atom_site_fract_z
  _atom_site_thermal_displace_type
  _atom_site_B_iso_or_equiv
  _atom_site_type_symbol
  Zn1      1.0000 0.76003  0.90840  0.24968  Biso   1.000  Zn
  Zn2      1.0000 0.59590  0.22460  0.25247  Biso   1.000  Zn
  Zn3      1.0000 0.75849  0.50520  0.25120  Biso   1.000  Zn
  Zn4      1.0000 0.55433  0.20940  0.25598  Biso   1.000  Zn
  Co1      1.0000 0.24218  0.48250  0.04862  Biso   1.000  Co
  C1       1.0000 0.32190  0.25110  0.09469  Biso   1.000  C
  H1       1.0000 0.29540  0.16810  0.08290  Biso   1.000  H
  C2       1.0000 0.36720  0.23840  0.12490  Biso   1.000  C
  H2       1.0000 0.37750  0.14630  0.13710  Biso   1.000  H
  C3       1.0000 0.39550  0.37970  0.13510  Biso   1.000  C
  H3       1.0000 0.42700  0.40540  0.15550  Biso   1.000  H
  C4       1.0000 0.36710  0.47930  0.10823  Biso   1.000  C
  C5       1.0000 0.38730  0.63440  0.10443  Biso   1.000  C
  C6       1.0000 0.36270  0.72110  0.07560  Biso   1.000  C
  C7       1.0000 0.39070  0.87000  0.06741  Biso   1.000  C
  H4       1.0000 0.42660  0.93370  0.08130  Biso   1.000  H
  C8       1.0000 0.35550  0.90600  0.03495  Biso   1.000  C
  H5       1.0000 0.36360  0.99770  0.02240  Biso   1.000  H
  C9       1.0000 0.30540  0.77770  0.02463  Biso   1.000  C
  H6       1.0000 0.27370  0.77110  0.00350  Biso   1.000  H
  C10      1.0000 0.43780  0.70590  0.13264  Biso   1.000  C
  C11      1.0000 0.40020  0.82300  0.15140  Biso   1.000  C
  H7       1.0000 0.34300  0.85780  0.14570  Biso   1.000  H
  C12      1.0000 0.44650  0.89070  0.17890  Biso   1.000  C
  H8       1.0000 0.41920  0.96880  0.19210  Biso   1.000  H
  C13      1.0000 0.53000  0.84610  0.18710  Biso   1.000  C
  C14      1.0000 0.56910  0.73180  0.16720  Biso   1.000  C
  H9       1.0000 0.62790  0.70230  0.17190  Biso   1.000  H
  C15      1.0000 0.52310  0.66000  0.14030  Biso   1.000  C
  H10      1.0000 0.55000  0.58050  0.12750  Biso   1.000  H
  C16      1.0000 0.58270  0.92450  0.21490  Biso   1.000  C
  C17      1.0000 0.89980  0.13900  0.51631  Biso   1.000  C
  H11      1.0000 0.92900  0.14550  0.53800  Biso   1.000  H
  C18      1.0000 0.93770  0.18330  0.48360  Biso   1.000  C
  H12      1.0000 0.99460  0.22350  0.47960  Biso   1.000  H
  C19      1.0000 0.87370  0.15470  0.45960  Biso   1.000  C
  H13      1.0000 0.87810  0.17510  0.43550  Biso   1.000  H
  C20      1.0000 0.80100  0.09110  0.47605  Biso   1.000  C
  C21      1.0000 0.72220  0.03320  0.46149  Biso   1.000  C
  C22      1.0000 0.65710  0.95790  0.47999  Biso   1.000  C
  C23      1.0000 0.58060  0.88480  0.46519  Biso   1.000  C
  H14      1.0000 0.56360  0.88320  0.44160  Biso   1.000  H
  C24      1.0000 0.53820  0.81870  0.49245  Biso   1.000  C
  H15      1.0000 0.48620  0.75920  0.49130  Biso   1.000  H
  C25      1.0000 0.58590  0.85500  0.52277  Biso   1.000  C
  H16      1.0000 0.56880  0.82430  0.54540  Biso   1.000  H
  C26      1.0000 0.71030  0.05160  0.42350  Biso   1.000  C
  C27      1.0000 0.76740  0.98290  0.40049  Biso   1.000  C
  H17      1.0000 0.81540  0.92480  0.40900  Biso   1.000  H
  C28      1.0000 0.75540  0.99810  0.36563  Biso   1.000  C
  H18      1.0000 0.79490  0.94940  0.35010  Biso   1.000  H
  C29      1.0000 0.68630  0.08380  0.35250  Biso   1.000  C
  C30      1.0000 0.62760  0.15620  0.37480  Biso   1.000  C
  H19      1.0000 0.58030  0.21510  0.36610  Biso   1.000  H
  C31      1.0000 0.64030  0.13970  0.41020  Biso   1.000  C
  H20      1.0000 0.60130  0.18860  0.42570  Biso   1.000  H
  C32      1.0000 0.67480  0.09390  0.31320  Biso   1.000  C
  C33      1.0000 0.18200  0.18120  0.02530  Biso   1.000  C
  H21      1.0000 0.21510  0.18730  0.00450  Biso   1.000  H
  C34      1.0000 0.13310  0.05280  0.03550  Biso   1.000  C
  H22      1.0000 0.12600  0.96070  0.02300  Biso   1.000  H
  C35      1.0000 0.09840  0.08710  0.06660  Biso   1.000  C
  H23      1.0000 0.06260  0.02240  0.08030  Biso   1.000  H
  C36      1.0000 0.12510  0.23850  0.07530  Biso   1.000  C
  C37      1.0000 0.10360  0.32250  0.10470  Biso   1.000  C
  C38      1.0000 0.12480  0.47460  0.11020  Biso   1.000  C
  C39      1.0000 0.09800  0.57130  0.13730  Biso   1.000  C
  H24      1.0000 0.06590  0.54200  0.15730  Biso   1.000  H
  C40      1.0000 0.12650  0.71380  0.12970  Biso   1.000  C
  H25      1.0000 0.11720  0.80330  0.14300  Biso   1.000  H
  C41      1.0000 0.17200  0.70260  0.09843  Biso   1.000  C
  H26      1.0000 0.19870  0.78610  0.08690  Biso   1.000  H
  C42      1.0000 0.05290  0.24360  0.13250  Biso   1.000  C
  C43      1.0000 0.09050  0.13030  0.15190  Biso   1.000  C
  H27      1.0000 0.14860  0.09890  0.14660  Biso   1.000  H
  C44      1.0000 0.04710  0.06030  0.17880  Biso   1.000  C
  H28      1.0000 0.07500  0.98340  0.19210  Biso   1.000  H
  C45      1.0000 0.96250  0.10420  0.18600  Biso   1.000  C
  C46      1.0000 0.92210  0.21900  0.16700  Biso   1.000  C
  H29      1.0000 0.86420  0.25140  0.17250  Biso   1.000  H
  C47      1.0000 0.96710  0.28490  0.14000  Biso   1.000  C
  H30      1.0000 0.93900  0.36010  0.12630  Biso   1.000  H
  C48      1.0000 0.91370  0.02410  0.21470  Biso   1.000  C
  N1       1.0000 0.31930  0.39590  0.08365  Biso   1.000  N
  N2       1.0000 0.30850  0.66690  0.04854  Biso   1.000  N
  N3       1.0000 0.81860  0.08800  0.51203  Biso   1.000  N
  N4       1.0000 0.65750  0.93730  0.51595  Biso   1.000  N
  N5       1.0000 0.17610  0.29260  0.04834  Biso   1.000  N
  N6       1.0000 0.17330  0.56160  0.08695  Biso   1.000  N
  O1       1.0000 0.54450  0.02740  0.23210  Biso   1.000  O
  O2       1.0000 0.66030  0.88550  0.21810  Biso   1.000  O
  O3       1.0000 0.60440  0.16620  0.30346  Biso   1.000  O
  O4       1.0000 0.73230  0.03240  0.29540  Biso   1.000  O
  O5       1.0000 0.95620  0.93070  0.23319  Biso   1.000  O
  O6       1.0000 0.83380  0.05200  0.21740  Biso   1.000  O
  O7       1.0000 0.72160  0.11200  0.24390  Biso   1.000  O
  O8       1.0000 0.81390  0.72500  0.26340  Biso   1.000  O
  O9       1.0000 0.70870  0.29500  0.23280  Biso   1.000  O
  O10      1.0000 0.42240  0.19200  0.27170  Biso   1.000  O
  H31      1.0000 0.40900  0.09930  0.27350  Biso   1.000  H
  Zn5      1.0000 0.73997  0.40840  0.25032  Biso   1.000  Zn
  Zn6      1.0000 0.90410  0.72460  0.24753  Biso   1.000  Zn
  Zn7      1.0000 0.74151  0.00520  0.24880  Biso   1.000  Zn
  Zn8      1.0000 0.94567  0.70940  0.24402  Biso   1.000  Zn
  Co2      1.0000 0.25782  0.98250  0.45138  Biso   1.000  Co
  C49      1.0000 0.17810  0.75110  0.40531  Biso   1.000  C
  H32      1.0000 0.20460  0.66810  0.41710  Biso   1.000  H
  C50      1.0000 0.13280  0.73840  0.37510  Biso   1.000  C
  H33      1.0000 0.12250  0.64630  0.36290  Biso   1.000  H
  C51      1.0000 0.10450  0.87970  0.36490  Biso   1.000  C
  H34      1.0000 0.07300  0.90540  0.34450  Biso   1.000  H
  C52      1.0000 0.13290  0.97930  0.39177  Biso   1.000  C
  C53      1.0000 0.11270  0.13440  0.39557  Biso   1.000  C
  C54      1.0000 0.13730  0.22110  0.42440  Biso   1.000  C
  C55      1.0000 0.10930  0.37000  0.43259  Biso   1.000  C
  H35      1.0000 0.07340  0.43370  0.41870  Biso   1.000  H
  C56      1.0000 0.14450  0.40600  0.46505  Biso   1.000  C
  H36      1.0000 0.13640  0.49770  0.47760  Biso   1.000  H
  C57      1.0000 0.19460  0.27770  0.47537  Biso   1.000  C
  H37      1.0000 0.22630  0.27110  0.49650  Biso   1.000  H
  C58      1.0000 0.06220  0.20590  0.36736  Biso   1.000  C
  C59      1.0000 0.09980  0.32300  0.34860  Biso   1.000  C
  H38      1.0000 0.15700  0.35780  0.35430  Biso   1.000  H
  C60      1.0000 0.05350  0.39070  0.32110  Biso   1.000  C
  H39      1.0000 0.08080  0.46880  0.30790  Biso   1.000  H
  C61      1.0000 0.97000  0.34610  0.31290  Biso   1.000  C
  C62      1.0000 0.93090  0.23180  0.33280  Biso   1.000  C
  H40      1.0000 0.87210  0.20230  0.32810  Biso   1.000  H
  C63      1.0000 0.97690  0.16000  0.35970  Biso   1.000  C
  H41      1.0000 0.95000  0.08050  0.37250  Biso   1.000  H
  C64      1.0000 0.91730  0.42450  0.28510  Biso   1.000  C
  C65      1.0000 0.60020  0.63900  0.98369  Biso   1.000  C
  H42      1.0000 0.57100  0.64550  0.96200  Biso   1.000  H
  C66      1.0000 0.56230  0.68330  0.01640  Biso   1.000  C
  H43      1.0000 0.50540  0.72350  0.02040  Biso   1.000  H
  C67      1.0000 0.62630  0.65470  0.04040  Biso   1.000  C
  H44      1.0000 0.62190  0.67510  0.06450  Biso   1.000  H
  C68      1.0000 0.69900  0.59110  0.02395  Biso   1.000  C
  C69      1.0000 0.77780  0.53320  0.03851  Biso   1.000  C
  C70      1.0000 0.84290  0.45790  0.02001  Biso   1.000  C
  C71      1.0000 0.91940  0.38480  0.03481  Biso   1.000  C
  H45      1.0000 0.93640  0.38320  0.05840  Biso   1.000  H
  C72      1.0000 0.96180  0.31870  0.00755  Biso   1.000  C
  H46      1.0000 0.01380  0.25920  0.00870  Biso   1.000  H
  C73      1.0000 0.91410  0.35500  0.97723  Biso   1.000  C
  H47      1.0000 0.93120  0.32430  0.95460  Biso   1.000  H
  C74      1.0000 0.78970  0.55160  0.07650  Biso   1.000  C
  C75      1.0000 0.73260  0.48290  0.09951  Biso   1.000  C
  H48      1.0000 0.68460  0.42480  0.09100  Biso   1.000  H
  C76      1.0000 0.74460  0.49810  0.13437  Biso   1.000  C
  H49      1.0000 0.70510  0.44940  0.14990  Biso   1.000  H
  C77      1.0000 0.81370  0.58380  0.14750  Biso   1.000  C
  C78      1.0000 0.87240  0.65620  0.12520  Biso   1.000  C
  H50      1.0000 0.91970  0.71510  0.13390  Biso   1.000  H
  C79      1.0000 0.85970  0.63970  0.08980  Biso   1.000  C
  H51      1.0000 0.89870  0.68860  0.07430  Biso   1.000  H
  C80      1.0000 0.82520  0.59390  0.18680  Biso   1.000  C
  C81      1.0000 0.31800  0.68120  0.47470  Biso   1.000  C
  H52      1.0000 0.28490  0.68730  0.49550  Biso   1.000  H
  C82      1.0000 0.36690  0.55280  0.46450  Biso   1.000  C
  H53      1.0000 0.37400  0.46070  0.47700  Biso   1.000  H
  C83      1.0000 0.40160  0.58710  0.43340  Biso   1.000  C
  H54      1.0000 0.43740  0.52240  0.41970  Biso   1.000  H
  C84      1.0000 0.37490  0.73850  0.42470  Biso   1.000  C
  C85      1.0000 0.39640  0.82250  0.39530  Biso   1.000  C
  C86      1.0000 0.37520  0.97460  0.38980  Biso   1.000  C
  C87      1.0000 0.40200  0.07130  0.36270  Biso   1.000  C
  H55      1.0000 0.43410  0.04200  0.34270  Biso   1.000  H
  C88      1.0000 0.37350  0.21380  0.37030  Biso   1.000  C
  H56      1.0000 0.38280  0.30330  0.35700  Biso   1.000  H
  C89      1.0000 0.32800  0.20260  0.40157  Biso   1.000  C
  H57      1.0000 0.30130  0.28610  0.41310  Biso   1.000  H
  C90      1.0000 0.44710  0.74360  0.36750  Biso   1.000  C
  C91      1.0000 0.40950  0.63030  0.34810  Biso   1.000  C
  H58      1.0000 0.35140  0.59890  0.35340  Biso   1.000  H
  C92      1.0000 0.45290  0.56030  0.32120  Biso   1.000  C
  H59      1.0000 0.42500  0.48340  0.30790  Biso   1.000  H
  C93      1.0000 0.53750  0.60420  0.31400  Biso   1.000  C
  C94      1.0000 0.57790  0.71900  0.33300  Biso   1.000  C
  H60      1.0000 0.63580  0.75140  0.32750  Biso   1.000  H
  C95      1.0000 0.53290  0.78490  0.36000  Biso   1.000  C
  H61      1.0000 0.56100  0.86010  0.37370  Biso   1.000  H
  C96      1.0000 0.58630  0.52410  0.28530  Biso   1.000  C
  N7       1.0000 0.18070  0.89590  0.41635  Biso   1.000  N
  N8       1.0000 0.19150  0.16690  0.45146  Biso   1.000  N
  N9       1.0000 0.68140  0.58800  0.98797  Biso   1.000  N
  N10      1.0000 0.84250  0.43730  0.98405  Biso   1.000  N
  N11      1.0000 0.32390  0.79260  0.45166  Biso   1.000  N
  N12      1.0000 0.32670  0.06160  0.41305  Biso   1.000  N
  O11      1.0000 0.95550  0.52740  0.26790  Biso   1.000  O
  O12      1.0000 0.83970  0.38550  0.28190  Biso   1.000  O
  O13      1.0000 0.89560  0.66620  0.19654  Biso   1.000  O
  O14      1.0000 0.76770  0.53240  0.20460  Biso   1.000  O
  O15      1.0000 0.54380  0.43070  0.26681  Biso   1.000  O
  O16      1.0000 0.66620  0.55200  0.28260  Biso   1.000  O
  O17      1.0000 0.77840  0.61200  0.25610  Biso   1.000  O
  O18      1.0000 0.68610  0.22500  0.23660  Biso   1.000  O
  O19      1.0000 0.79130  0.79500  0.26720  Biso   1.000  O
  O20      1.0000 0.07760  0.69200  0.22830  Biso   1.000  O
  H62      1.0000 0.09100  0.59930  0.22650  Biso   1.000  H
  Zn9      1.0000 0.23997  0.09160  0.75032  Biso   1.000  Zn
  Zn10     1.0000 0.40410  0.77540  0.74753  Biso   1.000  Zn
  Zn11     1.0000 0.24151  0.49480  0.74880  Biso   1.000  Zn
  Zn12     1.0000 0.44567  0.79060  0.74402  Biso   1.000  Zn
  Co3      1.0000 0.75782  0.51750  0.95138  Biso   1.000  Co
  C97      1.0000 0.67810  0.74890  0.90531  Biso   1.000  C
  H63      1.0000 0.70460  0.83190  0.91710  Biso   1.000  H
  C98      1.0000 0.63280  0.76160  0.87510  Biso   1.000  C
  H64      1.0000 0.62250  0.85370  0.86290  Biso   1.000  H
  C99      1.0000 0.60450  0.62030  0.86490  Biso   1.000  C
  H65      1.0000 0.57300  0.59460  0.84450  Biso   1.000  H
  C100     1.0000 0.63290  0.52070  0.89177  Biso   1.000  C
  C101     1.0000 0.61270  0.36560  0.89557  Biso   1.000  C
  C102     1.0000 0.63730  0.27890  0.92440  Biso   1.000  C
  C103     1.0000 0.60930  0.13000  0.93259  Biso   1.000  C
  H66      1.0000 0.57340  0.06630  0.91870  Biso   1.000  H
  C104     1.0000 0.64450  0.09400  0.96505  Biso   1.000  C
  H67      1.0000 0.63640  0.00230  0.97760  Biso   1.000  H
  C105     1.0000 0.69460  0.22230  0.97537  Biso   1.000  C
  H68      1.0000 0.72630  0.22890  0.99650  Biso   1.000  H
  C106     1.0000 0.56220  0.29410  0.86736  Biso   1.000  C
  C107     1.0000 0.59980  0.17700  0.84860  Biso   1.000  C
  H69      1.0000 0.65700  0.14220  0.85430  Biso   1.000  H
  C108     1.0000 0.55350  0.10930  0.82110  Biso   1.000  C
  H70      1.0000 0.58080  0.03120  0.80790  Biso   1.000  H
  C109     1.0000 0.47000  0.15390  0.81290  Biso   1.000  C
  C110     1.0000 0.43090  0.26820  0.83280  Biso   1.000  C
  H71      1.0000 0.37210  0.29770  0.82810  Biso   1.000  H
  C111     1.0000 0.47690  0.34000  0.85970  Biso   1.000  C
  H72      1.0000 0.45000  0.41950  0.87250  Biso   1.000  H
  C112     1.0000 0.41730  0.07550  0.78510  Biso   1.000  C
  C113     1.0000 0.10020  0.86100  0.48369  Biso   1.000  C
  H73      1.0000 0.07100  0.85450  0.46200  Biso   1.000  H
  C114     1.0000 0.06230  0.81670  0.51640  Biso   1.000  C
  H74      1.0000 0.00540  0.77650  0.52040  Biso   1.000  H
  C115     1.0000 0.12630  0.84530  0.54040  Biso   1.000  C
  H75      1.0000 0.12190  0.82490  0.56450  Biso   1.000  H
  C116     1.0000 0.19900  0.90890  0.52395  Biso   1.000  C
  C117     1.0000 0.27780  0.96680  0.53851  Biso   1.000  C
  C118     1.0000 0.34290  0.04210  0.52001  Biso   1.000  C
  C119     1.0000 0.41940  0.11520  0.53481  Biso   1.000  C
  H76      1.0000 0.43640  0.11680  0.55840  Biso   1.000  H
  C120     1.0000 0.46180  0.18130  0.50755  Biso   1.000  C
  H77      1.0000 0.51380  0.24080  0.50870  Biso   1.000  H
  C121     1.0000 0.41410  0.14500  0.47723  Biso   1.000  C
  H78      1.0000 0.43120  0.17570  0.45460  Biso   1.000  H
  C122     1.0000 0.28970  0.94840  0.57650  Biso   1.000  C
  C123     1.0000 0.23260  0.01710  0.59951  Biso   1.000  C
  H79      1.0000 0.18460  0.07520  0.59100  Biso   1.000  H
  C124     1.0000 0.24460  0.00190  0.63437  Biso   1.000  C
  H80      1.0000 0.20510  0.05060  0.64990  Biso   1.000  H
  C125     1.0000 0.31370  0.91620  0.64750  Biso   1.000  C
  C126     1.0000 0.37240  0.84380  0.62520  Biso   1.000  C
  H81      1.0000 0.41970  0.78490  0.63390  Biso   1.000  H
  C127     1.0000 0.35970  0.86030  0.58980  Biso   1.000  C
  H82      1.0000 0.39870  0.81140  0.57430  Biso   1.000  H
  C128     1.0000 0.32520  0.90610  0.68680  Biso   1.000  C
  C129     1.0000 0.81800  0.81880  0.97470  Biso   1.000  C
  H83      1.0000 0.78490  0.81270  0.99550  Biso   1.000  H
  C130     1.0000 0.86690  0.94720  0.96450  Biso   1.000  C
  H84      1.0000 0.87400  0.03930  0.97700  Biso   1.000  H
  C131     1.0000 0.90160  0.91290  0.93340  Biso   1.000  C
  H85      1.0000 0.93740  0.97760  0.91970  Biso   1.000  H
  C132     1.0000 0.87490  0.76150  0.92470  Biso   1.000  C
  C133     1.0000 0.89640  0.67750  0.89530  Biso   1.000  C
  C134     1.0000 0.87520  0.52540  0.88980  Biso   1.000  C
  C135     1.0000 0.90200  0.42870  0.86270  Biso   1.000  C
  H86      1.0000 0.93410  0.45800  0.84270  Biso   1.000  H
  C136     1.0000 0.87350  0.28620  0.87030  Biso   1.000  C
  H87      1.0000 0.88280  0.19670  0.85700  Biso   1.000  H
  C137     1.0000 0.82800  0.29740  0.90157  Biso   1.000  C
  H88      1.0000 0.80130  0.21390  0.91310  Biso   1.000  H
  C138     1.0000 0.94710  0.75640  0.86750  Biso   1.000  C
  C139     1.0000 0.90950  0.86970  0.84810  Biso   1.000  C
  H89      1.0000 0.85140  0.90110  0.85340  Biso   1.000  H
  C140     1.0000 0.95290  0.93970  0.82120  Biso   1.000  C
  H90      1.0000 0.92500  0.01660  0.80790  Biso   1.000  H
  C141     1.0000 0.03750  0.89580  0.81400  Biso   1.000  C
  C142     1.0000 0.07790  0.78100  0.83300  Biso   1.000  C
  H91      1.0000 0.13580  0.74860  0.82750  Biso   1.000  H
  C143     1.0000 0.03290  0.71510  0.86000  Biso   1.000  C
  H92      1.0000 0.06100  0.63990  0.87370  Biso   1.000  H
  C144     1.0000 0.08630  0.97590  0.78530  Biso   1.000  C
  N13      1.0000 0.68070  0.60410  0.91635  Biso   1.000  N
  N14      1.0000 0.69150  0.33310  0.95146  Biso   1.000  N
  N15      1.0000 0.18140  0.91200  0.48797  Biso   1.000  N
  N16      1.0000 0.34250  0.06270  0.48405  Biso   1.000  N
  N17      1.0000 0.82390  0.70740  0.95166  Biso   1.000  N
  N18      1.0000 0.82670  0.43840  0.91305  Biso   1.000  N
  O21      1.0000 0.45550  0.97260  0.76790  Biso   1.000  O
  O22      1.0000 0.33970  0.11450  0.78190  Biso   1.000  O
  O23      1.0000 0.39560  0.83380  0.69654  Biso   1.000  O
  O24      1.0000 0.26770  0.96760  0.70460  Biso   1.000  O
  O25      1.0000 0.04380  0.06930  0.76681  Biso   1.000  O
  O26      1.0000 0.16620  0.94800  0.78260  Biso   1.000  O
  O27      1.0000 0.27840  0.88800  0.75610  Biso   1.000  O
  O28      1.0000 0.18610  0.27500  0.73660  Biso   1.000  O
  O29      1.0000 0.29130  0.70500  0.76720  Biso   1.000  O
  O30      1.0000 0.57760  0.80800  0.72830  Biso   1.000  O
  H93      1.0000 0.59100  0.90070  0.72650  Biso   1.000  H
  Zn13     1.0000 0.26003  0.59160  0.74968  Biso   1.000  Zn
  Zn14     1.0000 0.09590  0.27540  0.75247  Biso   1.000  Zn
  Zn15     1.0000 0.25849  0.99480  0.75120  Biso   1.000  Zn
  Zn16     1.0000 0.05433  0.29060  0.75598  Biso   1.000  Zn
  Co4      1.0000 0.74218  0.01750  0.54862  Biso   1.000  Co
  C145     1.0000 0.82190  0.24890  0.59469  Biso   1.000  C
  H94      1.0000 0.79540  0.33190  0.58290  Biso   1.000  H
  C146     1.0000 0.86720  0.26160  0.62490  Biso   1.000  C
  H95      1.0000 0.87750  0.35370  0.63710  Biso   1.000  H
  C147     1.0000 0.89550  0.12030  0.63510  Biso   1.000  C
  H96      1.0000 0.92700  0.09460  0.65550  Biso   1.000  H
  C148     1.0000 0.86710  0.02070  0.60823  Biso   1.000  C
  C149     1.0000 0.88730  0.86560  0.60443  Biso   1.000  C
  C150     1.0000 0.86270  0.77890  0.57560  Biso   1.000  C
  C151     1.0000 0.89070  0.63000  0.56741  Biso   1.000  C
  H97      1.0000 0.92660  0.56630  0.58130  Biso   1.000  H
  C152     1.0000 0.85550  0.59400  0.53495  Biso   1.000  C
  H98      1.0000 0.86360  0.50230  0.52240  Biso   1.000  H
  C153     1.0000 0.80540  0.72230  0.52463  Biso   1.000  C
  H99      1.0000 0.77370  0.72890  0.50350  Biso   1.000  H
  C154     1.0000 0.93780  0.79410  0.63264  Biso   1.000  C
  C155     1.0000 0.90020  0.67700  0.65140  Biso   1.000  C
  H100     1.0000 0.84300  0.64220  0.64570  Biso   1.000  H
  C156     1.0000 0.94650  0.60930  0.67890  Biso   1.000  C
  H101     1.0000 0.91920  0.53120  0.69210  Biso   1.000  H
  C157     1.0000 0.03000  0.65390  0.68710  Biso   1.000  C
  C158     1.0000 0.06910  0.76820  0.66720  Biso   1.000  C
  H102     1.0000 0.12790  0.79770  0.67190  Biso   1.000  H
  C159     1.0000 0.02310  0.84000  0.64030  Biso   1.000  C
  H103     1.0000 0.05000  0.91950  0.62750  Biso   1.000  H
  C160     1.0000 0.08270  0.57550  0.71490  Biso   1.000  C
  C161     1.0000 0.39980  0.36100  0.01631  Biso   1.000  C
  H104     1.0000 0.42900  0.35450  0.03800  Biso   1.000  H
  C162     1.0000 0.43770  0.31670  0.98360  Biso   1.000  C
  H105     1.0000 0.49460  0.27650  0.97960  Biso   1.000  H
  C163     1.0000 0.37370  0.34530  0.95960  Biso   1.000  C
  H106     1.0000 0.37810  0.32490  0.93550  Biso   1.000  H
  C164     1.0000 0.30100  0.40890  0.97605  Biso   1.000  C
  C165     1.0000 0.22220  0.46680  0.96149  Biso   1.000  C
  C166     1.0000 0.15710  0.54210  0.97999  Biso   1.000  C
  C167     1.0000 0.08060  0.61520  0.96519  Biso   1.000  C
  H107     1.0000 0.06360  0.61680  0.94160  Biso   1.000  H
  C168     1.0000 0.03820  0.68130  0.99245  Biso   1.000  C
  H108     1.0000 0.98620  0.74080  0.99130  Biso   1.000  H
  C169     1.0000 0.08590  0.64500  0.02277  Biso   1.000  C
  H109     1.0000 0.06880  0.67570  0.04540  Biso   1.000  H
  C170     1.0000 0.21030  0.44840  0.92350  Biso   1.000  C
  C171     1.0000 0.26740  0.51710  0.90049  Biso   1.000  C
  H110     1.0000 0.31540  0.57520  0.90900  Biso   1.000  H
  C172     1.0000 0.25540  0.50190  0.86563  Biso   1.000  C
  H111     1.0000 0.29490  0.55060  0.85010  Biso   1.000  H
  C173     1.0000 0.18630  0.41620  0.85250  Biso   1.000  C
  C174     1.0000 0.12760  0.34380  0.87480  Biso   1.000  C
  H112     1.0000 0.08030  0.28490  0.86610  Biso   1.000  H
  C175     1.0000 0.14030  0.36030  0.91020  Biso   1.000  C
  H113     1.0000 0.10130  0.31140  0.92570  Biso   1.000  H
  C176     1.0000 0.17480  0.40610  0.81320  Biso   1.000  C
  C177     1.0000 0.68200  0.31880  0.52530  Biso   1.000  C
  H114     1.0000 0.71510  0.31270  0.50450  Biso   1.000  H
  C178     1.0000 0.63310  0.44720  0.53550  Biso   1.000  C
  H115     1.0000 0.62600  0.53930  0.52300  Biso   1.000  H
  C179     1.0000 0.59840  0.41290  0.56660  Biso   1.000  C
  H116     1.0000 0.56260  0.47760  0.58030  Biso   1.000  H
  C180     1.0000 0.62510  0.26150  0.57530  Biso   1.000  C
  C181     1.0000 0.60360  0.17750  0.60470  Biso   1.000  C
  C182     1.0000 0.62480  0.02540  0.61020  Biso   1.000  C
  C183     1.0000 0.59800  0.92870  0.63730  Biso   1.000  C
  H117     1.0000 0.56590  0.95800  0.65730  Biso   1.000  H
  C184     1.0000 0.62650  0.78620  0.62970  Biso   1.000  C
  H118     1.0000 0.61720  0.69670  0.64300  Biso   1.000  H
  C185     1.0000 0.67200  0.79740  0.59843  Biso   1.000  C
  H119     1.0000 0.69870  0.71390  0.58690  Biso   1.000  H
  C186     1.0000 0.55290  0.25640  0.63250  Biso   1.000  C
  C187     1.0000 0.59050  0.36970  0.65190  Biso   1.000  C
  H120     1.0000 0.64860  0.40110  0.64660  Biso   1.000  H
  C188     1.0000 0.54710  0.43970  0.67880  Biso   1.000  C
  H121     1.0000 0.57500  0.51660  0.69210  Biso   1.000  H
  C189     1.0000 0.46250  0.39580  0.68600  Biso   1.000  C
  C190     1.0000 0.42210  0.28100  0.66700  Biso   1.000  C
  H122     1.0000 0.36420  0.24860  0.67250  Biso   1.000  H
  C191     1.0000 0.46710  0.21510  0.64000  Biso   1.000  C
  H123     1.0000 0.43900  0.13990  0.62630  Biso   1.000  H
  C192     1.0000 0.41370  0.47590  0.71470  Biso   1.000  C
  N19      1.0000 0.81930  0.10410  0.58365  Biso   1.000  N
  N20      1.0000 0.80850  0.83310  0.54854  Biso   1.000  N
  N21      1.0000 0.31860  0.41200  0.01203  Biso   1.000  N
  N22      1.0000 0.15750  0.56270  0.01595  Biso   1.000  N
  N23      1.0000 0.67610  0.20740  0.54834  Biso   1.000  N
  N24      1.0000 0.67330  0.93840  0.58695  Biso   1.000  N
  O31      1.0000 0.04450  0.47260  0.73210  Biso   1.000  O
  O32      1.0000 0.16030  0.61450  0.71810  Biso   1.000  O
  O33      1.0000 0.10440  0.33380  0.80346  Biso   1.000  O
  O34      1.0000 0.23230  0.46760  0.79540  Biso   1.000  O
  O35      1.0000 0.45620  0.56930  0.73319  Biso   1.000  O
  O36      1.0000 0.33380  0.44800  0.71740  Biso   1.000  O
  O37      1.0000 0.22160  0.38800  0.74390  Biso   1.000  O
  O38      1.0000 0.31390  0.77500  0.76340  Biso   1.000  O
  O39      1.0000 0.20870  0.20500  0.73280  Biso   1.000  O
  O40      1.0000 0.92240  0.30800  0.77170  Biso   1.000  O
  H124     1.0000 0.90900  0.40070  0.77350  Biso   1.000  H
