data_image0
_cell_length_a       17.227
_cell_length_b       23.5944
_cell_length_c       23.7271
_cell_angle_alpha    90
_cell_angle_beta     90
_cell_angle_gamma    90

_symmetry_space_group_name_H-M    "P 1"
_symmetry_int_tables_number       1

loop_
  _symmetry_equiv_pos_as_xyz
  'x, y, z'

loop_
  _atom_site_label
  _atom_site_occupancy
  _atom_site_fract_x
  _atom_site_fract_y
  _atom_site_fract_z
  _atom_site_thermal_displace_type
  _atom_site_B_iso_or_equiv
  _atom_site_type_symbol
  Zn1      1.0000 0.50037  0.32867  0.61003  Biso   1.000  Zn
  C1       1.0000 0.65880  0.33330  0.59110  Biso   1.000  C
  C2       1.0000 0.72940  0.35530  0.56140  Biso   1.000  C
  C3       1.0000 0.80040  0.35860  0.58960  Biso   1.000  C
  H1       1.0000 0.80400  0.34620  0.62710  Biso   1.000  H
  C4       1.0000 0.86480  0.37990  0.56320  Biso   1.000  C
  H2       1.0000 0.91150  0.38260  0.58350  Biso   1.000  H
  C5       1.0000 0.86350  0.39740  0.50830  Biso   1.000  C
  C6       1.0000 0.79220  0.39510  0.48030  Biso   1.000  C
  H3       1.0000 0.78900  0.40710  0.44260  Biso   1.000  H
  C7       1.0000 0.72540  0.37510  0.50750  Biso   1.000  C
  H4       1.0000 0.67760  0.37530  0.48850  Biso   1.000  H
  C8       1.0000 0.93420  0.41890  0.47890  Biso   1.000  C
  C9       1.0000 0.00740  0.40080  0.49680  Biso   1.000  C
  H5       1.0000 0.01130  0.37410  0.52600  Biso   1.000  H
  C10      1.0000 0.07500  0.42190  0.47160  Biso   1.000  C
  C11      1.0000 0.06810  0.45870  0.42610  Biso   1.000  C
  H6       1.0000 0.11310  0.47120  0.40750  Biso   1.000  H
  C12      1.0000 0.99520  0.47760  0.40750  Biso   1.000  C
  C13      1.0000 0.92960  0.45710  0.43480  Biso   1.000  C
  H7       1.0000 0.88050  0.46950  0.42290  Biso   1.000  H
  C14      1.0000 0.98880  0.51870  0.36100  Biso   1.000  C
  C15      1.0000 0.93390  0.56100  0.36230  Biso   1.000  C
  H8       1.0000 0.89970  0.56280  0.39310  Biso   1.000  H
  C16      1.0000 0.92720  0.60130  0.32000  Biso   1.000  C
  H9       1.0000 0.88990  0.63030  0.32250  Biso   1.000  H
  C17      1.0000 0.97690  0.59790  0.27340  Biso   1.000  C
  C18      1.0000 0.03090  0.55470  0.27140  Biso   1.000  C
  H10      1.0000 0.06330  0.55120  0.23970  Biso   1.000  H
  C19      1.0000 0.03800  0.51680  0.31460  Biso   1.000  C
  H11      1.0000 0.07690  0.48900  0.31300  Biso   1.000  H
  C20      1.0000 0.96860  0.64160  0.22690  Biso   1.000  C
  C21      1.0000 0.15640  0.41410  0.49360  Biso   1.000  C
  C22      1.0000 0.21650  0.45300  0.49150  Biso   1.000  C
  H12      1.0000 0.20750  0.48850  0.47470  Biso   1.000  H
  C23      1.0000 0.28950  0.44140  0.51320  Biso   1.000  C
  H13      1.0000 0.32860  0.46910  0.51220  Biso   1.000  H
  C24      1.0000 0.30450  0.38890  0.53630  Biso   1.000  C
  C25      1.0000 0.24710  0.34860  0.53330  Biso   1.000  C
  H14      1.0000 0.25810  0.31180  0.54600  Biso   1.000  H
  C26      1.0000 0.17300  0.36010  0.51230  Biso   1.000  C
  H15      1.0000 0.13520  0.33140  0.51080  Biso   1.000  H
  C27      1.0000 0.38530  0.37590  0.55940  Biso   1.000  C
  O1       1.0000 0.66720  0.31090  0.63782  Biso   1.000  O
  O2       1.0000 0.59460  0.33940  0.56577  Biso   1.000  O
  O3       1.0000 0.93330  0.68640  0.23765  Biso   1.000  O
  O4       1.0000 0.00010  0.62730  0.18013  Biso   1.000  O
  O5       1.0000 0.43260  0.41410  0.56610  Biso   1.000  O
  O6       1.0000 0.39800  0.32510  0.57200  Biso   1.000  O
  C28      1.0000 0.14820  0.39480  0.49360  Biso   1.000  C
  C29      1.0000 0.21220  0.43000  0.49300  Biso   1.000  C
  H16      1.0000 0.20750  0.46570  0.47590  Biso   1.000  H
  C30      1.0000 0.28290  0.41530  0.51650  Biso   1.000  C
  H17      1.0000 0.32610  0.43920  0.51200  Biso   1.000  H
  C31      1.0000 0.29000  0.36550  0.54630  Biso   1.000  C
  C32      1.0000 0.22490  0.33190  0.55010  Biso   1.000  C
  H18      1.0000 0.22830  0.29770  0.57040  Biso   1.000  H
  C33      1.0000 0.15460  0.34600  0.52520  Biso   1.000  C
  H19      1.0000 0.11130  0.32230  0.52990  Biso   1.000  H
  C34      1.0000 0.36040  0.34830  0.57750  Biso   1.000  C
  O7       1.0000 0.42450  0.36900  0.56090  Biso   1.000  O
  O8       1.0000 0.35660  0.31710  0.61940  Biso   1.000  O
  Zn2      1.0000 0.99963  0.67133  0.11003  Biso   1.000  Zn
  C35      1.0000 0.84120  0.66670  0.09110  Biso   1.000  C
  C36      1.0000 0.77060  0.64470  0.06140  Biso   1.000  C
  C37      1.0000 0.69960  0.64140  0.08960  Biso   1.000  C
  H20      1.0000 0.69600  0.65380  0.12710  Biso   1.000  H
  C38      1.0000 0.63520  0.62010  0.06320  Biso   1.000  C
  H21      1.0000 0.58850  0.61740  0.08350  Biso   1.000  H
  C39      1.0000 0.63650  0.60260  0.00830  Biso   1.000  C
  C40      1.0000 0.70780  0.60490  0.98030  Biso   1.000  C
  H22      1.0000 0.71100  0.59290  0.94260  Biso   1.000  H
  C41      1.0000 0.77460  0.62490  0.00750  Biso   1.000  C
  H23      1.0000 0.82240  0.62470  0.98850  Biso   1.000  H
  C42      1.0000 0.56580  0.58110  0.97890  Biso   1.000  C
  C43      1.0000 0.49260  0.59920  0.99680  Biso   1.000  C
  H24      1.0000 0.48870  0.62590  0.02600  Biso   1.000  H
  C44      1.0000 0.42500  0.57810  0.97160  Biso   1.000  C
  C45      1.0000 0.43190  0.54130  0.92610  Biso   1.000  C
  H25      1.0000 0.38690  0.52880  0.90750  Biso   1.000  H
  C46      1.0000 0.50480  0.52240  0.90750  Biso   1.000  C
  C47      1.0000 0.57040  0.54290  0.93480  Biso   1.000  C
  H26      1.0000 0.61950  0.53050  0.92290  Biso   1.000  H
  C48      1.0000 0.51120  0.48130  0.86100  Biso   1.000  C
  C49      1.0000 0.56610  0.43900  0.86230  Biso   1.000  C
  H27      1.0000 0.60030  0.43720  0.89310  Biso   1.000  H
  C50      1.0000 0.57280  0.39870  0.82000  Biso   1.000  C
  H28      1.0000 0.61010  0.36970  0.82250  Biso   1.000  H
  C51      1.0000 0.52310  0.40210  0.77340  Biso   1.000  C
  C52      1.0000 0.46910  0.44530  0.77140  Biso   1.000  C
  H29      1.0000 0.43670  0.44880  0.73970  Biso   1.000  H
  C53      1.0000 0.46200  0.48320  0.81460  Biso   1.000  C
  H30      1.0000 0.42310  0.51100  0.81300  Biso   1.000  H
  C54      1.0000 0.53140  0.35840  0.72690  Biso   1.000  C
  C55      1.0000 0.34360  0.58590  0.99360  Biso   1.000  C
  C56      1.0000 0.28350  0.54700  0.99150  Biso   1.000  C
  H31      1.0000 0.29250  0.51150  0.97470  Biso   1.000  H
  C57      1.0000 0.21050  0.55860  0.01320  Biso   1.000  C
  H32      1.0000 0.17140  0.53090  0.01220  Biso   1.000  H
  C58      1.0000 0.19550  0.61110  0.03630  Biso   1.000  C
  C59      1.0000 0.25290  0.65140  0.03330  Biso   1.000  C
  H33      1.0000 0.24190  0.68820  0.04600  Biso   1.000  H
  C60      1.0000 0.32700  0.63990  0.01230  Biso   1.000  C
  H34      1.0000 0.36480  0.66860  0.01080  Biso   1.000  H
  C61      1.0000 0.11470  0.62410  0.05940  Biso   1.000  C
  O9       1.0000 0.83280  0.68910  0.13782  Biso   1.000  O
  O10      1.0000 0.90540  0.66060  0.06577  Biso   1.000  O
  O11      1.0000 0.56670  0.31360  0.73765  Biso   1.000  O
  O12      1.0000 0.49990  0.37270  0.68013  Biso   1.000  O
  O13      1.0000 0.06740  0.58590  0.06610  Biso   1.000  O
  O14      1.0000 0.10200  0.67490  0.07200  Biso   1.000  O
  C62      1.0000 0.35180  0.60520  0.99360  Biso   1.000  C
  C63      1.0000 0.28780  0.57000  0.99300  Biso   1.000  C
  H35      1.0000 0.29250  0.53430  0.97590  Biso   1.000  H
  C64      1.0000 0.21710  0.58470  0.01650  Biso   1.000  C
  H36      1.0000 0.17390  0.56080  0.01200  Biso   1.000  H
  C65      1.0000 0.21000  0.63450  0.04630  Biso   1.000  C
  C66      1.0000 0.27510  0.66810  0.05010  Biso   1.000  C
  H37      1.0000 0.27170  0.70230  0.07040  Biso   1.000  H
  C67      1.0000 0.34540  0.65400  0.02520  Biso   1.000  C
  H38      1.0000 0.38870  0.67770  0.02990  Biso   1.000  H
  C68      1.0000 0.13960  0.65170  0.07750  Biso   1.000  C
  O15      1.0000 0.07550  0.63100  0.06090  Biso   1.000  O
  O16      1.0000 0.14340  0.68290  0.11940  Biso   1.000  O
  Zn3      1.0000 0.50037  0.17133  0.61003  Biso   1.000  Zn
  C69      1.0000 0.65880  0.16670  0.59110  Biso   1.000  C
  C70      1.0000 0.72940  0.14470  0.56140  Biso   1.000  C
  C71      1.0000 0.80040  0.14140  0.58960  Biso   1.000  C
  H39      1.0000 0.80400  0.15380  0.62710  Biso   1.000  H
  C72      1.0000 0.86480  0.12010  0.56320  Biso   1.000  C
  H40      1.0000 0.91150  0.11740  0.58350  Biso   1.000  H
  C73      1.0000 0.86350  0.10260  0.50830  Biso   1.000  C
  C74      1.0000 0.79220  0.10490  0.48030  Biso   1.000  C
  H41      1.0000 0.78900  0.09290  0.44260  Biso   1.000  H
  C75      1.0000 0.72540  0.12490  0.50750  Biso   1.000  C
  H42      1.0000 0.67760  0.12470  0.48850  Biso   1.000  H
  C76      1.0000 0.93420  0.08110  0.47890  Biso   1.000  C
  C77      1.0000 0.00740  0.09920  0.49680  Biso   1.000  C
  H43      1.0000 0.01130  0.12590  0.52600  Biso   1.000  H
  C78      1.0000 0.07500  0.07810  0.47160  Biso   1.000  C
  C79      1.0000 0.06810  0.04130  0.42610  Biso   1.000  C
  H44      1.0000 0.11310  0.02880  0.40750  Biso   1.000  H
  C80      1.0000 0.99520  0.02240  0.40750  Biso   1.000  C
  C81      1.0000 0.92960  0.04290  0.43480  Biso   1.000  C
  H45      1.0000 0.88050  0.03050  0.42290  Biso   1.000  H
  C82      1.0000 0.98880  0.98130  0.36100  Biso   1.000  C
  C83      1.0000 0.93390  0.93900  0.36230  Biso   1.000  C
  H46      1.0000 0.89970  0.93720  0.39310  Biso   1.000  H
  C84      1.0000 0.92720  0.89870  0.32000  Biso   1.000  C
  H47      1.0000 0.88990  0.86970  0.32250  Biso   1.000  H
  C85      1.0000 0.97690  0.90210  0.27340  Biso   1.000  C
  C86      1.0000 0.03090  0.94530  0.27140  Biso   1.000  C
  H48      1.0000 0.06330  0.94880  0.23970  Biso   1.000  H
  C87      1.0000 0.03800  0.98320  0.31460  Biso   1.000  C
  H49      1.0000 0.07690  0.01100  0.31300  Biso   1.000  H
  C88      1.0000 0.96860  0.85840  0.22690  Biso   1.000  C
  C89      1.0000 0.15640  0.08590  0.49360  Biso   1.000  C
  C90      1.0000 0.21650  0.04700  0.49150  Biso   1.000  C
  H50      1.0000 0.20750  0.01150  0.47470  Biso   1.000  H
  C91      1.0000 0.28950  0.05860  0.51320  Biso   1.000  C
  H51      1.0000 0.32860  0.03090  0.51220  Biso   1.000  H
  C92      1.0000 0.30450  0.11110  0.53630  Biso   1.000  C
  C93      1.0000 0.24710  0.15140  0.53330  Biso   1.000  C
  H52      1.0000 0.25810  0.18820  0.54600  Biso   1.000  H
  C94      1.0000 0.17300  0.13990  0.51230  Biso   1.000  C
  H53      1.0000 0.13520  0.16860  0.51080  Biso   1.000  H
  C95      1.0000 0.38530  0.12410  0.55940  Biso   1.000  C
  O17      1.0000 0.66720  0.18910  0.63782  Biso   1.000  O
  O18      1.0000 0.59460  0.16060  0.56577  Biso   1.000  O
  O19      1.0000 0.93330  0.81360  0.23765  Biso   1.000  O
  O20      1.0000 0.00010  0.87270  0.18013  Biso   1.000  O
  O21      1.0000 0.43260  0.08590  0.56610  Biso   1.000  O
  O22      1.0000 0.39800  0.17490  0.57200  Biso   1.000  O
  C96      1.0000 0.14820  0.10520  0.49360  Biso   1.000  C
  C97      1.0000 0.21220  0.07000  0.49300  Biso   1.000  C
  H54      1.0000 0.20750  0.03430  0.47590  Biso   1.000  H
  C98      1.0000 0.28290  0.08470  0.51650  Biso   1.000  C
  H55      1.0000 0.32610  0.06080  0.51200  Biso   1.000  H
  C99      1.0000 0.29000  0.13450  0.54630  Biso   1.000  C
  C100     1.0000 0.22490  0.16810  0.55010  Biso   1.000  C
  H56      1.0000 0.22830  0.20230  0.57040  Biso   1.000  H
  C101     1.0000 0.15460  0.15400  0.52520  Biso   1.000  C
  H57      1.0000 0.11130  0.17770  0.52990  Biso   1.000  H
  C102     1.0000 0.36040  0.15170  0.57750  Biso   1.000  C
  O23      1.0000 0.42450  0.13100  0.56090  Biso   1.000  O
  O24      1.0000 0.35660  0.18290  0.61940  Biso   1.000  O
  Zn4      1.0000 0.99963  0.82867  0.11003  Biso   1.000  Zn
  C103     1.0000 0.84120  0.83330  0.09110  Biso   1.000  C
  C104     1.0000 0.77060  0.85530  0.06140  Biso   1.000  C
  C105     1.0000 0.69960  0.85860  0.08960  Biso   1.000  C
  H58      1.0000 0.69600  0.84620  0.12710  Biso   1.000  H
  C106     1.0000 0.63520  0.87990  0.06320  Biso   1.000  C
  H59      1.0000 0.58850  0.88260  0.08350  Biso   1.000  H
  C107     1.0000 0.63650  0.89740  0.00830  Biso   1.000  C
  C108     1.0000 0.70780  0.89510  0.98030  Biso   1.000  C
  H60      1.0000 0.71100  0.90710  0.94260  Biso   1.000  H
  C109     1.0000 0.77460  0.87510  0.00750  Biso   1.000  C
  H61      1.0000 0.82240  0.87530  0.98850  Biso   1.000  H
  C110     1.0000 0.56580  0.91890  0.97890  Biso   1.000  C
  C111     1.0000 0.49260  0.90080  0.99680  Biso   1.000  C
  H62      1.0000 0.48870  0.87410  0.02600  Biso   1.000  H
  C112     1.0000 0.42500  0.92190  0.97160  Biso   1.000  C
  C113     1.0000 0.43190  0.95870  0.92610  Biso   1.000  C
  H63      1.0000 0.38690  0.97120  0.90750  Biso   1.000  H
  C114     1.0000 0.50480  0.97760  0.90750  Biso   1.000  C
  C115     1.0000 0.57040  0.95710  0.93480  Biso   1.000  C
  H64      1.0000 0.61950  0.96950  0.92290  Biso   1.000  H
  C116     1.0000 0.51120  0.01870  0.86100  Biso   1.000  C
  C117     1.0000 0.56610  0.06100  0.86230  Biso   1.000  C
  H65      1.0000 0.60030  0.06280  0.89310  Biso   1.000  H
  C118     1.0000 0.57280  0.10130  0.82000  Biso   1.000  C
  H66      1.0000 0.61010  0.13030  0.82250  Biso   1.000  H
  C119     1.0000 0.52310  0.09790  0.77340  Biso   1.000  C
  C120     1.0000 0.46910  0.05470  0.77140  Biso   1.000  C
  H67      1.0000 0.43670  0.05120  0.73970  Biso   1.000  H
  C121     1.0000 0.46200  0.01680  0.81460  Biso   1.000  C
  H68      1.0000 0.42310  0.98900  0.81300  Biso   1.000  H
  C122     1.0000 0.53140  0.14160  0.72690  Biso   1.000  C
  C123     1.0000 0.34360  0.91410  0.99360  Biso   1.000  C
  C124     1.0000 0.28350  0.95300  0.99150  Biso   1.000  C
  H69      1.0000 0.29250  0.98850  0.97470  Biso   1.000  H
  C125     1.0000 0.21050  0.94140  0.01320  Biso   1.000  C
  H70      1.0000 0.17140  0.96910  0.01220  Biso   1.000  H
  C126     1.0000 0.19550  0.88890  0.03630  Biso   1.000  C
  C127     1.0000 0.25290  0.84860  0.03330  Biso   1.000  C
  H71      1.0000 0.24190  0.81180  0.04600  Biso   1.000  H
  C128     1.0000 0.32700  0.86010  0.01230  Biso   1.000  C
  H72      1.0000 0.36480  0.83140  0.01080  Biso   1.000  H
  C129     1.0000 0.11470  0.87590  0.05940  Biso   1.000  C
  O25      1.0000 0.83280  0.81090  0.13782  Biso   1.000  O
  O26      1.0000 0.90540  0.83940  0.06577  Biso   1.000  O
  O27      1.0000 0.56670  0.18640  0.73765  Biso   1.000  O
  O28      1.0000 0.49990  0.12730  0.68013  Biso   1.000  O
  O29      1.0000 0.06740  0.91410  0.06610  Biso   1.000  O
  O30      1.0000 0.10200  0.82510  0.07200  Biso   1.000  O
  C130     1.0000 0.35180  0.89480  0.99360  Biso   1.000  C
  C131     1.0000 0.28780  0.93000  0.99300  Biso   1.000  C
  H73      1.0000 0.29250  0.96570  0.97590  Biso   1.000  H
  C132     1.0000 0.21710  0.91530  0.01650  Biso   1.000  C
  H74      1.0000 0.17390  0.93920  0.01200  Biso   1.000  H
  C133     1.0000 0.21000  0.86550  0.04630  Biso   1.000  C
  C134     1.0000 0.27510  0.83190  0.05010  Biso   1.000  C
  H75      1.0000 0.27170  0.79770  0.07040  Biso   1.000  H
  C135     1.0000 0.34540  0.84600  0.02520  Biso   1.000  C
  H76      1.0000 0.38870  0.82230  0.02990  Biso   1.000  H
  C136     1.0000 0.13960  0.84830  0.07750  Biso   1.000  C
  O31      1.0000 0.07550  0.86900  0.06090  Biso   1.000  O
  O32      1.0000 0.14340  0.81710  0.11940  Biso   1.000  O
  Zn5      1.0000 0.88824  0.75000  0.18756  Biso   1.000  Zn
  Zn6      1.0000 0.61176  0.25000  0.68756  Biso   1.000  Zn
  O33      1.0000 0.50700  0.25000  0.63990  Biso   1.000  O
  H77      1.0000 0.47280  0.25000  0.66520  Biso   1.000  H
  O34      1.0000 0.99300  0.75000  0.13990  Biso   1.000  O
  H78      1.0000 0.02720  0.75000  0.16520  Biso   1.000  H
  Zn7      1.0000 0.49963  0.82867  0.38997  Biso   1.000  Zn
  C137     1.0000 0.34120  0.83330  0.40890  Biso   1.000  C
  C138     1.0000 0.27060  0.85530  0.43860  Biso   1.000  C
  C139     1.0000 0.19960  0.85860  0.41040  Biso   1.000  C
  H79      1.0000 0.19600  0.84620  0.37290  Biso   1.000  H
  C140     1.0000 0.13520  0.87990  0.43680  Biso   1.000  C
  H80      1.0000 0.08850  0.88260  0.41650  Biso   1.000  H
  C141     1.0000 0.13650  0.89740  0.49170  Biso   1.000  C
  C142     1.0000 0.20780  0.89510  0.51970  Biso   1.000  C
  H81      1.0000 0.21100  0.90710  0.55740  Biso   1.000  H
  C143     1.0000 0.27460  0.87510  0.49250  Biso   1.000  C
  H82      1.0000 0.32240  0.87530  0.51150  Biso   1.000  H
  C144     1.0000 0.06580  0.91890  0.52110  Biso   1.000  C
  C145     1.0000 0.99260  0.90080  0.50320  Biso   1.000  C
  H83      1.0000 0.98870  0.87410  0.47400  Biso   1.000  H
  C146     1.0000 0.92500  0.92190  0.52840  Biso   1.000  C
  C147     1.0000 0.93190  0.95870  0.57390  Biso   1.000  C
  H84      1.0000 0.88690  0.97120  0.59250  Biso   1.000  H
  C148     1.0000 0.00480  0.97760  0.59250  Biso   1.000  C
  C149     1.0000 0.07040  0.95710  0.56520  Biso   1.000  C
  H85      1.0000 0.11950  0.96950  0.57710  Biso   1.000  H
  C150     1.0000 0.01120  0.01870  0.63900  Biso   1.000  C
  C151     1.0000 0.06610  0.06100  0.63770  Biso   1.000  C
  H86      1.0000 0.10030  0.06280  0.60690  Biso   1.000  H
  C152     1.0000 0.07280  0.10130  0.68000  Biso   1.000  C
  H87      1.0000 0.11010  0.13030  0.67750  Biso   1.000  H
  C153     1.0000 0.02310  0.09790  0.72660  Biso   1.000  C
  C154     1.0000 0.96910  0.05470  0.72860  Biso   1.000  C
  H88      1.0000 0.93670  0.05120  0.76030  Biso   1.000  H
  C155     1.0000 0.96200  0.01680  0.68540  Biso   1.000  C
  H89      1.0000 0.92310  0.98900  0.68700  Biso   1.000  H
  C156     1.0000 0.03140  0.14160  0.77310  Biso   1.000  C
  C157     1.0000 0.84360  0.91410  0.50640  Biso   1.000  C
  C158     1.0000 0.78350  0.95300  0.50850  Biso   1.000  C
  H90      1.0000 0.79250  0.98850  0.52530  Biso   1.000  H
  C159     1.0000 0.71050  0.94140  0.48680  Biso   1.000  C
  H91      1.0000 0.67140  0.96910  0.48780  Biso   1.000  H
  C160     1.0000 0.69550  0.88890  0.46370  Biso   1.000  C
  C161     1.0000 0.75290  0.84860  0.46670  Biso   1.000  C
  H92      1.0000 0.74190  0.81180  0.45400  Biso   1.000  H
  C162     1.0000 0.82700  0.86010  0.48770  Biso   1.000  C
  H93      1.0000 0.86480  0.83140  0.48920  Biso   1.000  H
  C163     1.0000 0.61470  0.87590  0.44060  Biso   1.000  C
  O35      1.0000 0.33280  0.81090  0.36218  Biso   1.000  O
  O36      1.0000 0.40540  0.83940  0.43423  Biso   1.000  O
  O37      1.0000 0.06670  0.18640  0.76235  Biso   1.000  O
  O38      1.0000 0.99990  0.12730  0.81987  Biso   1.000  O
  O39      1.0000 0.56740  0.91410  0.43390  Biso   1.000  O
  O40      1.0000 0.60200  0.82510  0.42800  Biso   1.000  O
  C164     1.0000 0.85180  0.89480  0.50640  Biso   1.000  C
  C165     1.0000 0.78780  0.93000  0.50700  Biso   1.000  C
  H94      1.0000 0.79250  0.96570  0.52410  Biso   1.000  H
  C166     1.0000 0.71710  0.91530  0.48350  Biso   1.000  C
  H95      1.0000 0.67390  0.93920  0.48800  Biso   1.000  H
  C167     1.0000 0.71000  0.86550  0.45370  Biso   1.000  C
  C168     1.0000 0.77510  0.83190  0.44990  Biso   1.000  C
  H96      1.0000 0.77170  0.79770  0.42960  Biso   1.000  H
  C169     1.0000 0.84540  0.84600  0.47480  Biso   1.000  C
  H97      1.0000 0.88870  0.82230  0.47010  Biso   1.000  H
  C170     1.0000 0.63960  0.84830  0.42250  Biso   1.000  C
  O41      1.0000 0.57550  0.86900  0.43910  Biso   1.000  O
  O42      1.0000 0.64340  0.81710  0.38060  Biso   1.000  O
  Zn8      1.0000 0.00037  0.17133  0.88997  Biso   1.000  Zn
  C171     1.0000 0.15880  0.16670  0.90890  Biso   1.000  C
  C172     1.0000 0.22940  0.14470  0.93860  Biso   1.000  C
  C173     1.0000 0.30040  0.14140  0.91040  Biso   1.000  C
  H98      1.0000 0.30400  0.15380  0.87290  Biso   1.000  H
  C174     1.0000 0.36480  0.12010  0.93680  Biso   1.000  C
  H99      1.0000 0.41150  0.11740  0.91650  Biso   1.000  H
  C175     1.0000 0.36350  0.10260  0.99170  Biso   1.000  C
  C176     1.0000 0.29220  0.10490  0.01970  Biso   1.000  C
  H100     1.0000 0.28900  0.09290  0.05740  Biso   1.000  H
  C177     1.0000 0.22540  0.12490  0.99250  Biso   1.000  C
  H101     1.0000 0.17760  0.12470  0.01150  Biso   1.000  H
  C178     1.0000 0.43420  0.08110  0.02110  Biso   1.000  C
  C179     1.0000 0.50740  0.09920  0.00320  Biso   1.000  C
  H102     1.0000 0.51130  0.12590  0.97400  Biso   1.000  H
  C180     1.0000 0.57500  0.07810  0.02840  Biso   1.000  C
  C181     1.0000 0.56810  0.04130  0.07390  Biso   1.000  C
  H103     1.0000 0.61310  0.02880  0.09250  Biso   1.000  H
  C182     1.0000 0.49520  0.02240  0.09250  Biso   1.000  C
  C183     1.0000 0.42960  0.04290  0.06520  Biso   1.000  C
  H104     1.0000 0.38050  0.03050  0.07710  Biso   1.000  H
  C184     1.0000 0.48880  0.98130  0.13900  Biso   1.000  C
  C185     1.0000 0.43390  0.93900  0.13770  Biso   1.000  C
  H105     1.0000 0.39970  0.93720  0.10690  Biso   1.000  H
  C186     1.0000 0.42720  0.89870  0.18000  Biso   1.000  C
  H106     1.0000 0.38990  0.86970  0.17750  Biso   1.000  H
  C187     1.0000 0.47690  0.90210  0.22660  Biso   1.000  C
  C188     1.0000 0.53090  0.94530  0.22860  Biso   1.000  C
  H107     1.0000 0.56330  0.94880  0.26030  Biso   1.000  H
  C189     1.0000 0.53800  0.98320  0.18540  Biso   1.000  C
  H108     1.0000 0.57690  0.01100  0.18700  Biso   1.000  H
  C190     1.0000 0.46860  0.85840  0.27310  Biso   1.000  C
  C191     1.0000 0.65640  0.08590  0.00640  Biso   1.000  C
  C192     1.0000 0.71650  0.04700  0.00850  Biso   1.000  C
  H109     1.0000 0.70750  0.01150  0.02530  Biso   1.000  H
  C193     1.0000 0.78950  0.05860  0.98680  Biso   1.000  C
  H110     1.0000 0.82860  0.03090  0.98780  Biso   1.000  H
  C194     1.0000 0.80450  0.11110  0.96370  Biso   1.000  C
  C195     1.0000 0.74710  0.15140  0.96670  Biso   1.000  C
  H111     1.0000 0.75810  0.18820  0.95400  Biso   1.000  H
  C196     1.0000 0.67300  0.13990  0.98770  Biso   1.000  C
  H112     1.0000 0.63520  0.16860  0.98920  Biso   1.000  H
  C197     1.0000 0.88530  0.12410  0.94060  Biso   1.000  C
  O43      1.0000 0.16720  0.18910  0.86218  Biso   1.000  O
  O44      1.0000 0.09460  0.16060  0.93423  Biso   1.000  O
  O45      1.0000 0.43330  0.81360  0.26235  Biso   1.000  O
  O46      1.0000 0.50010  0.87270  0.31987  Biso   1.000  O
  O47      1.0000 0.93260  0.08590  0.93390  Biso   1.000  O
  O48      1.0000 0.89800  0.17490  0.92800  Biso   1.000  O
  C198     1.0000 0.64820  0.10520  0.00640  Biso   1.000  C
  C199     1.0000 0.71220  0.07000  0.00700  Biso   1.000  C
  H113     1.0000 0.70750  0.03430  0.02410  Biso   1.000  H
  C200     1.0000 0.78290  0.08470  0.98350  Biso   1.000  C
  H114     1.0000 0.82610  0.06080  0.98800  Biso   1.000  H
  C201     1.0000 0.79000  0.13450  0.95370  Biso   1.000  C
  C202     1.0000 0.72490  0.16810  0.94990  Biso   1.000  C
  H115     1.0000 0.72830  0.20230  0.92960  Biso   1.000  H
  C203     1.0000 0.65460  0.15400  0.97480  Biso   1.000  C
  H116     1.0000 0.61130  0.17770  0.97010  Biso   1.000  H
  C204     1.0000 0.86040  0.15170  0.92250  Biso   1.000  C
  O49      1.0000 0.92450  0.13100  0.93910  Biso   1.000  O
  O50      1.0000 0.85660  0.18290  0.88060  Biso   1.000  O
  Zn9      1.0000 0.49963  0.67133  0.38997  Biso   1.000  Zn
  C205     1.0000 0.34120  0.66670  0.40890  Biso   1.000  C
  C206     1.0000 0.27060  0.64470  0.43860  Biso   1.000  C
  C207     1.0000 0.19960  0.64140  0.41040  Biso   1.000  C
  H117     1.0000 0.19600  0.65380  0.37290  Biso   1.000  H
  C208     1.0000 0.13520  0.62010  0.43680  Biso   1.000  C
  H118     1.0000 0.08850  0.61740  0.41650  Biso   1.000  H
  C209     1.0000 0.13650  0.60260  0.49170  Biso   1.000  C
  C210     1.0000 0.20780  0.60490  0.51970  Biso   1.000  C
  H119     1.0000 0.21100  0.59290  0.55740  Biso   1.000  H
  C211     1.0000 0.27460  0.62490  0.49250  Biso   1.000  C
  H120     1.0000 0.32240  0.62470  0.51150  Biso   1.000  H
  C212     1.0000 0.06580  0.58110  0.52110  Biso   1.000  C
  C213     1.0000 0.99260  0.59920  0.50320  Biso   1.000  C
  H121     1.0000 0.98870  0.62590  0.47400  Biso   1.000  H
  C214     1.0000 0.92500  0.57810  0.52840  Biso   1.000  C
  C215     1.0000 0.93190  0.54130  0.57390  Biso   1.000  C
  H122     1.0000 0.88690  0.52880  0.59250  Biso   1.000  H
  C216     1.0000 0.00480  0.52240  0.59250  Biso   1.000  C
  C217     1.0000 0.07040  0.54290  0.56520  Biso   1.000  C
  H123     1.0000 0.11950  0.53050  0.57710  Biso   1.000  H
  C218     1.0000 0.01120  0.48130  0.63900  Biso   1.000  C
  C219     1.0000 0.06610  0.43900  0.63770  Biso   1.000  C
  H124     1.0000 0.10030  0.43720  0.60690  Biso   1.000  H
  C220     1.0000 0.07280  0.39870  0.68000  Biso   1.000  C
  H125     1.0000 0.11010  0.36970  0.67750  Biso   1.000  H
  C221     1.0000 0.02310  0.40210  0.72660  Biso   1.000  C
  C222     1.0000 0.96910  0.44530  0.72860  Biso   1.000  C
  H126     1.0000 0.93670  0.44880  0.76030  Biso   1.000  H
  C223     1.0000 0.96200  0.48320  0.68540  Biso   1.000  C
  H127     1.0000 0.92310  0.51100  0.68700  Biso   1.000  H
  C224     1.0000 0.03140  0.35840  0.77310  Biso   1.000  C
  C225     1.0000 0.84360  0.58590  0.50640  Biso   1.000  C
  C226     1.0000 0.78350  0.54700  0.50850  Biso   1.000  C
  H128     1.0000 0.79250  0.51150  0.52530  Biso   1.000  H
  C227     1.0000 0.71050  0.55860  0.48680  Biso   1.000  C
  H129     1.0000 0.67140  0.53090  0.48780  Biso   1.000  H
  C228     1.0000 0.69550  0.61110  0.46370  Biso   1.000  C
  C229     1.0000 0.75290  0.65140  0.46670  Biso   1.000  C
  H130     1.0000 0.74190  0.68820  0.45400  Biso   1.000  H
  C230     1.0000 0.82700  0.63990  0.48770  Biso   1.000  C
  H131     1.0000 0.86480  0.66860  0.48920  Biso   1.000  H
  C231     1.0000 0.61470  0.62410  0.44060  Biso   1.000  C
  O51      1.0000 0.33280  0.68910  0.36218  Biso   1.000  O
  O52      1.0000 0.40540  0.66060  0.43423  Biso   1.000  O
  O53      1.0000 0.06670  0.31360  0.76235  Biso   1.000  O
  O54      1.0000 0.99990  0.37270  0.81987  Biso   1.000  O
  O55      1.0000 0.56740  0.58590  0.43390  Biso   1.000  O
  O56      1.0000 0.60200  0.67490  0.42800  Biso   1.000  O
  C232     1.0000 0.85180  0.60520  0.50640  Biso   1.000  C
  C233     1.0000 0.78780  0.57000  0.50700  Biso   1.000  C
  H132     1.0000 0.79250  0.53430  0.52410  Biso   1.000  H
  C234     1.0000 0.71710  0.58470  0.48350  Biso   1.000  C
  H133     1.0000 0.67390  0.56080  0.48800  Biso   1.000  H
  C235     1.0000 0.71000  0.63450  0.45370  Biso   1.000  C
  C236     1.0000 0.77510  0.66810  0.44990  Biso   1.000  C
  H134     1.0000 0.77170  0.70230  0.42960  Biso   1.000  H
  C237     1.0000 0.84540  0.65400  0.47480  Biso   1.000  C
  H135     1.0000 0.88870  0.67770  0.47010  Biso   1.000  H
  C238     1.0000 0.63960  0.65170  0.42250  Biso   1.000  C
  O57      1.0000 0.57550  0.63100  0.43910  Biso   1.000  O
  O58      1.0000 0.64340  0.68290  0.38060  Biso   1.000  O
  Zn10     1.0000 0.00037  0.32867  0.88997  Biso   1.000  Zn
  C239     1.0000 0.15880  0.33330  0.90890  Biso   1.000  C
  C240     1.0000 0.22940  0.35530  0.93860  Biso   1.000  C
  C241     1.0000 0.30040  0.35860  0.91040  Biso   1.000  C
  H136     1.0000 0.30400  0.34620  0.87290  Biso   1.000  H
  C242     1.0000 0.36480  0.37990  0.93680  Biso   1.000  C
  H137     1.0000 0.41150  0.38260  0.91650  Biso   1.000  H
  C243     1.0000 0.36350  0.39740  0.99170  Biso   1.000  C
  C244     1.0000 0.29220  0.39510  0.01970  Biso   1.000  C
  H138     1.0000 0.28900  0.40710  0.05740  Biso   1.000  H
  C245     1.0000 0.22540  0.37510  0.99250  Biso   1.000  C
  H139     1.0000 0.17760  0.37530  0.01150  Biso   1.000  H
  C246     1.0000 0.43420  0.41890  0.02110  Biso   1.000  C
  C247     1.0000 0.50740  0.40080  0.00320  Biso   1.000  C
  H140     1.0000 0.51130  0.37410  0.97400  Biso   1.000  H
  C248     1.0000 0.57500  0.42190  0.02840  Biso   1.000  C
  C249     1.0000 0.56810  0.45870  0.07390  Biso   1.000  C
  H141     1.0000 0.61310  0.47120  0.09250  Biso   1.000  H
  C250     1.0000 0.49520  0.47760  0.09250  Biso   1.000  C
  C251     1.0000 0.42960  0.45710  0.06520  Biso   1.000  C
  H142     1.0000 0.38050  0.46950  0.07710  Biso   1.000  H
  C252     1.0000 0.48880  0.51870  0.13900  Biso   1.000  C
  C253     1.0000 0.43390  0.56100  0.13770  Biso   1.000  C
  H143     1.0000 0.39970  0.56280  0.10690  Biso   1.000  H
  C254     1.0000 0.42720  0.60130  0.18000  Biso   1.000  C
  H144     1.0000 0.38990  0.63030  0.17750  Biso   1.000  H
  C255     1.0000 0.47690  0.59790  0.22660  Biso   1.000  C
  C256     1.0000 0.53090  0.55470  0.22860  Biso   1.000  C
  H145     1.0000 0.56330  0.55120  0.26030  Biso   1.000  H
  C257     1.0000 0.53800  0.51680  0.18540  Biso   1.000  C
  H146     1.0000 0.57690  0.48900  0.18700  Biso   1.000  H
  C258     1.0000 0.46860  0.64160  0.27310  Biso   1.000  C
  C259     1.0000 0.65640  0.41410  0.00640  Biso   1.000  C
  C260     1.0000 0.71650  0.45300  0.00850  Biso   1.000  C
  H147     1.0000 0.70750  0.48850  0.02530  Biso   1.000  H
  C261     1.0000 0.78950  0.44140  0.98680  Biso   1.000  C
  H148     1.0000 0.82860  0.46910  0.98780  Biso   1.000  H
  C262     1.0000 0.80450  0.38890  0.96370  Biso   1.000  C
  C263     1.0000 0.74710  0.34860  0.96670  Biso   1.000  C
  H149     1.0000 0.75810  0.31180  0.95400  Biso   1.000  H
  C264     1.0000 0.67300  0.36010  0.98770  Biso   1.000  C
  H150     1.0000 0.63520  0.33140  0.98920  Biso   1.000  H
  C265     1.0000 0.88530  0.37590  0.94060  Biso   1.000  C
  O59      1.0000 0.16720  0.31090  0.86218  Biso   1.000  O
  O60      1.0000 0.09460  0.33940  0.93423  Biso   1.000  O
  O61      1.0000 0.43330  0.68640  0.26235  Biso   1.000  O
  O62      1.0000 0.50010  0.62730  0.31987  Biso   1.000  O
  O63      1.0000 0.93260  0.41410  0.93390  Biso   1.000  O
  O64      1.0000 0.89800  0.32510  0.92800  Biso   1.000  O
  C266     1.0000 0.64820  0.39480  0.00640  Biso   1.000  C
  C267     1.0000 0.71220  0.43000  0.00700  Biso   1.000  C
  H151     1.0000 0.70750  0.46570  0.02410  Biso   1.000  H
  C268     1.0000 0.78290  0.41530  0.98350  Biso   1.000  C
  H152     1.0000 0.82610  0.43920  0.98800  Biso   1.000  H
  C269     1.0000 0.79000  0.36550  0.95370  Biso   1.000  C
  C270     1.0000 0.72490  0.33190  0.94990  Biso   1.000  C
  H153     1.0000 0.72830  0.29770  0.92960  Biso   1.000  H
  C271     1.0000 0.65460  0.34600  0.97480  Biso   1.000  C
  H154     1.0000 0.61130  0.32230  0.97010  Biso   1.000  H
  C272     1.0000 0.86040  0.34830  0.92250  Biso   1.000  C
  O65      1.0000 0.92450  0.36900  0.93910  Biso   1.000  O
  O66      1.0000 0.85660  0.31710  0.88060  Biso   1.000  O
  Zn11     1.0000 0.11176  0.25000  0.81244  Biso   1.000  Zn
  Zn12     1.0000 0.38824  0.75000  0.31244  Biso   1.000  Zn
  O67      1.0000 0.49300  0.75000  0.36010  Biso   1.000  O
  H155     1.0000 0.52720  0.75000  0.33480  Biso   1.000  H
  O68      1.0000 0.00700  0.25000  0.86010  Biso   1.000  O
  H156     1.0000 0.97280  0.25000  0.83480  Biso   1.000  H
