data_image0
_cell_length_a       13.7393
_cell_length_b       13.7393
_cell_length_c       37.2281
_cell_angle_alpha    90
_cell_angle_beta     90
_cell_angle_gamma    90

_symmetry_space_group_name_H-M    "P 1"
_symmetry_int_tables_number       1

loop_
  _symmetry_equiv_pos_as_xyz
  'x, y, z'

loop_
  _atom_site_label
  _atom_site_occupancy
  _atom_site_fract_x
  _atom_site_fract_y
  _atom_site_fract_z
  _atom_site_thermal_displace_type
  _atom_site_B_iso_or_equiv
  _atom_site_type_symbol
  In1      1.0000 0.56080  0.21039  0.41707  Biso   1.000  In
  O1       1.0000 0.61330  0.25040  0.36128  Biso   1.000  O
  O2       1.0000 0.71800  0.23220  0.40360  Biso   1.000  O
  O3       1.0000 0.61880  0.07850  0.44720  Biso   1.000  O
  O4       1.0000 0.55300  0.05670  0.39540  Biso   1.000  O
  O5       1.0000 0.41980  0.17940  0.44860  Biso   1.000  O
  O6       1.0000 0.41270  0.22480  0.39290  Biso   1.000  O
  O7       1.0000 0.03630  0.00780  0.36820  Biso   1.000  O
  O8       1.0000 0.07390  0.92700  0.41670  Biso   1.000  O
  O9       1.0000 0.59600  0.29450  0.46938  Biso   1.000  O
  O10      1.0000 0.54090  0.37440  0.42450  Biso   1.000  O
  C1       1.0000 0.77900  0.28520  0.34640  Biso   1.000  C
  C2       1.0000 0.77580  0.39510  0.33680  Biso   1.000  C
  C3       1.0000 0.87860  0.41480  0.32400  Biso   1.000  C
  H1       1.0000 0.88060  0.39850  0.29840  Biso   1.000  H
  C4       1.0000 0.95150  0.34680  0.34310  Biso   1.000  C
  H2       1.0000 0.99650  0.31750  0.32620  Biso   1.000  H
  H3       1.0000 0.98790  0.38100  0.36150  Biso   1.000  H
  C5       1.0000 0.88310  0.27050  0.35960  Biso   1.000  C
  H4       1.0000 0.90520  0.20580  0.35300  Biso   1.000  H
  H5       1.0000 0.88490  0.27550  0.38550  Biso   1.000  H
  C6       1.0000 0.75900  0.26600  0.30660  Biso   1.000  C
  H6       1.0000 0.75520  0.19760  0.30240  Biso   1.000  H
  H7       1.0000 0.81170  0.29300  0.29250  Biso   1.000  H
  H8       1.0000 0.69930  0.29680  0.29980  Biso   1.000  H
  C7       1.0000 0.69900  0.41870  0.30900  Biso   1.000  C
  H9       1.0000 0.69880  0.48750  0.30450  Biso   1.000  H
  H10      1.0000 0.63630  0.39920  0.31790  Biso   1.000  H
  H11      1.0000 0.71300  0.38440  0.28720  Biso   1.000  H
  C8       1.0000 0.74390  0.45470  0.36860  Biso   1.000  C
  H12      1.0000 0.78920  0.44580  0.38800  Biso   1.000  H
  H13      1.0000 0.68030  0.43410  0.37610  Biso   1.000  H
  H14      1.0000 0.74190  0.52230  0.36210  Biso   1.000  H
  C9       1.0000 0.69970  0.25470  0.37170  Biso   1.000  C
  C10      1.0000 0.59520  0.02300  0.42280  Biso   1.000  C
  C11      1.0000 0.25930  0.18970  0.42380  Biso   1.000  C
  C12      1.0000 0.22150  0.10650  0.40100  Biso   1.000  C
  C13      1.0000 0.11630  0.09460  0.41300  Biso   1.000  C
  H15      1.0000 0.08010  0.14770  0.40160  Biso   1.000  H
  C14      1.0000 0.11910  0.11790  0.45150  Biso   1.000  C
  H16      1.0000 0.12750  0.05980  0.46600  Biso   1.000  H
  H17      1.0000 0.06090  0.15200  0.45910  Biso   1.000  H
  C15      1.0000 0.21010  0.18450  0.45310  Biso   1.000  C
  H18      1.0000 0.18940  0.24960  0.45970  Biso   1.000  H
  H19      1.0000 0.25270  0.16090  0.47200  Biso   1.000  H
  C16      1.0000 0.21200  0.27900  0.40610  Biso   1.000  C
  H20      1.0000 0.14270  0.27460  0.40820  Biso   1.000  H
  H21      1.0000 0.22990  0.28130  0.38120  Biso   1.000  H
  H22      1.0000 0.23440  0.33710  0.41790  Biso   1.000  H
  C17      1.0000 0.21700  0.13000  0.36100  Biso   1.000  C
  H23      1.0000 0.28110  0.14100  0.35200  Biso   1.000  H
  H24      1.0000 0.17830  0.18810  0.35750  Biso   1.000  H
  H25      1.0000 0.18710  0.07710  0.34840  Biso   1.000  H
  C18      1.0000 0.28650  0.02160  0.40330  Biso   1.000  C
  H26      1.0000 0.28760  0.99790  0.42760  Biso   1.000  H
  H27      1.0000 0.35110  0.04020  0.39620  Biso   1.000  H
  H28      1.0000 0.26320  0.97120  0.38760  Biso   1.000  H
  C19      1.0000 0.37250  0.20060  0.42060  Biso   1.000  C
  C20      1.0000 0.07240  0.00100  0.39850  Biso   1.000  C
  C21      1.0000 0.55680  0.46340  0.47910  Biso   1.000  C
  C22      1.0000 0.63300  0.47000  0.50790  Biso   1.000  C
  C23      1.0000 0.55900  0.55830  0.45920  Biso   1.000  C
  C24      1.0000 0.48530  0.44230  0.50960  Biso   1.000  C
  C25      1.0000 0.47900  0.36670  0.53850  Biso   1.000  C
  C26      1.0000 0.56790  0.37290  0.45660  Biso   1.000  C
  In2      1.0000 0.43920  0.78961  0.91707  Biso   1.000  In
  O11      1.0000 0.38670  0.74960  0.86128  Biso   1.000  O
  O12      1.0000 0.28200  0.76780  0.90360  Biso   1.000  O
  O13      1.0000 0.38120  0.92150  0.94720  Biso   1.000  O
  O14      1.0000 0.44700  0.94330  0.89540  Biso   1.000  O
  O15      1.0000 0.58020  0.82060  0.94860  Biso   1.000  O
  O16      1.0000 0.58730  0.77520  0.89290  Biso   1.000  O
  O17      1.0000 0.96370  0.99220  0.86820  Biso   1.000  O
  O18      1.0000 0.92610  0.07300  0.91670  Biso   1.000  O
  O19      1.0000 0.40400  0.70550  0.96938  Biso   1.000  O
  O20      1.0000 0.45910  0.62560  0.92450  Biso   1.000  O
  C27      1.0000 0.22100  0.71480  0.84640  Biso   1.000  C
  C28      1.0000 0.22420  0.60490  0.83680  Biso   1.000  C
  C29      1.0000 0.12140  0.58520  0.82400  Biso   1.000  C
  H29      1.0000 0.11940  0.60150  0.79840  Biso   1.000  H
  C30      1.0000 0.04850  0.65320  0.84310  Biso   1.000  C
  H30      1.0000 0.00350  0.68250  0.82620  Biso   1.000  H
  H31      1.0000 0.01210  0.61900  0.86150  Biso   1.000  H
  C31      1.0000 0.11690  0.72950  0.85960  Biso   1.000  C
  H32      1.0000 0.09480  0.79420  0.85300  Biso   1.000  H
  H33      1.0000 0.11510  0.72450  0.88550  Biso   1.000  H
  C32      1.0000 0.24100  0.73400  0.80660  Biso   1.000  C
  H34      1.0000 0.24480  0.80240  0.80240  Biso   1.000  H
  H35      1.0000 0.18830  0.70700  0.79250  Biso   1.000  H
  H36      1.0000 0.30070  0.70320  0.79980  Biso   1.000  H
  C33      1.0000 0.30100  0.58130  0.80900  Biso   1.000  C
  H37      1.0000 0.30120  0.51250  0.80450  Biso   1.000  H
  H38      1.0000 0.36370  0.60080  0.81790  Biso   1.000  H
  H39      1.0000 0.28700  0.61560  0.78720  Biso   1.000  H
  C34      1.0000 0.25610  0.54530  0.86860  Biso   1.000  C
  H40      1.0000 0.21080  0.55420  0.88800  Biso   1.000  H
  H41      1.0000 0.31970  0.56590  0.87610  Biso   1.000  H
  H42      1.0000 0.25810  0.47770  0.86210  Biso   1.000  H
  C35      1.0000 0.30030  0.74530  0.87170  Biso   1.000  C
  C36      1.0000 0.40480  0.97700  0.92280  Biso   1.000  C
  C37      1.0000 0.74070  0.81030  0.92380  Biso   1.000  C
  C38      1.0000 0.77850  0.89350  0.90100  Biso   1.000  C
  C39      1.0000 0.88370  0.90540  0.91300  Biso   1.000  C
  H43      1.0000 0.91990  0.85230  0.90160  Biso   1.000  H
  C40      1.0000 0.88090  0.88210  0.95150  Biso   1.000  C
  H44      1.0000 0.87250  0.94020  0.96600  Biso   1.000  H
  H45      1.0000 0.93910  0.84800  0.95910  Biso   1.000  H
  C41      1.0000 0.78990  0.81550  0.95310  Biso   1.000  C
  H46      1.0000 0.81060  0.75040  0.95970  Biso   1.000  H
  H47      1.0000 0.74730  0.83910  0.97200  Biso   1.000  H
  C42      1.0000 0.78800  0.72100  0.90610  Biso   1.000  C
  H48      1.0000 0.85730  0.72540  0.90820  Biso   1.000  H
  H49      1.0000 0.77010  0.71870  0.88120  Biso   1.000  H
  H50      1.0000 0.76560  0.66290  0.91790  Biso   1.000  H
  C43      1.0000 0.78300  0.87000  0.86100  Biso   1.000  C
  H51      1.0000 0.71890  0.85900  0.85200  Biso   1.000  H
  H52      1.0000 0.82170  0.81190  0.85750  Biso   1.000  H
  H53      1.0000 0.81290  0.92290  0.84840  Biso   1.000  H
  C44      1.0000 0.71350  0.97840  0.90330  Biso   1.000  C
  H54      1.0000 0.71240  0.00210  0.92760  Biso   1.000  H
  H55      1.0000 0.64890  0.95980  0.89620  Biso   1.000  H
  H56      1.0000 0.73680  0.02880  0.88760  Biso   1.000  H
  C45      1.0000 0.62750  0.79940  0.92060  Biso   1.000  C
  C46      1.0000 0.92760  0.99900  0.89850  Biso   1.000  C
  C47      1.0000 0.44320  0.53660  0.97910  Biso   1.000  C
  C48      1.0000 0.36700  0.53000  0.00790  Biso   1.000  C
  C49      1.0000 0.44100  0.44170  0.95920  Biso   1.000  C
  C50      1.0000 0.51470  0.55770  0.00960  Biso   1.000  C
  C51      1.0000 0.52100  0.63330  0.03850  Biso   1.000  C
  C52      1.0000 0.43210  0.62710  0.95660  Biso   1.000  C
  In3      1.0000 0.28961  0.06080  0.16707  Biso   1.000  In
  O21      1.0000 0.24960  0.11330  0.11128  Biso   1.000  O
  O22      1.0000 0.26780  0.21800  0.15360  Biso   1.000  O
  O23      1.0000 0.42150  0.11880  0.19720  Biso   1.000  O
  O24      1.0000 0.44330  0.05300  0.14540  Biso   1.000  O
  O25      1.0000 0.32060  0.91980  0.19860  Biso   1.000  O
  O26      1.0000 0.27520  0.91270  0.14290  Biso   1.000  O
  O27      1.0000 0.49220  0.53630  0.11820  Biso   1.000  O
  O28      1.0000 0.57300  0.57390  0.16670  Biso   1.000  O
  O29      1.0000 0.20550  0.09600  0.21938  Biso   1.000  O
  O30      1.0000 0.12560  0.04090  0.17450  Biso   1.000  O
  C53      1.0000 0.21480  0.27900  0.09640  Biso   1.000  C
  C54      1.0000 0.10490  0.27580  0.08680  Biso   1.000  C
  C55      1.0000 0.08520  0.37860  0.07400  Biso   1.000  C
  H57      1.0000 0.10150  0.38060  0.04840  Biso   1.000  H
  C56      1.0000 0.15320  0.45150  0.09310  Biso   1.000  C
  H58      1.0000 0.18250  0.49650  0.07620  Biso   1.000  H
  H59      1.0000 0.11900  0.48790  0.11150  Biso   1.000  H
  C57      1.0000 0.22950  0.38310  0.10960  Biso   1.000  C
  H60      1.0000 0.29420  0.40520  0.10300  Biso   1.000  H
  H61      1.0000 0.22450  0.38490  0.13550  Biso   1.000  H
  C58      1.0000 0.23400  0.25900  0.05660  Biso   1.000  C
  H62      1.0000 0.30240  0.25520  0.05240  Biso   1.000  H
  H63      1.0000 0.20700  0.31170  0.04250  Biso   1.000  H
  H64      1.0000 0.20320  0.19930  0.04980  Biso   1.000  H
  C59      1.0000 0.08130  0.19900  0.05900  Biso   1.000  C
  H65      1.0000 0.01250  0.19880  0.05450  Biso   1.000  H
  H66      1.0000 0.10080  0.13630  0.06790  Biso   1.000  H
  H67      1.0000 0.11560  0.21300  0.03720  Biso   1.000  H
  C60      1.0000 0.04530  0.24390  0.11860  Biso   1.000  C
  H68      1.0000 0.05420  0.28920  0.13800  Biso   1.000  H
  H69      1.0000 0.06590  0.18030  0.12610  Biso   1.000  H
  H70      1.0000 0.97770  0.24190  0.11210  Biso   1.000  H
  C61      1.0000 0.24530  0.19970  0.12170  Biso   1.000  C
  C62      1.0000 0.47700  0.09520  0.17280  Biso   1.000  C
  C63      1.0000 0.31030  0.75930  0.17380  Biso   1.000  C
  C64      1.0000 0.39350  0.72150  0.15100  Biso   1.000  C
  C65      1.0000 0.40540  0.61630  0.16300  Biso   1.000  C
  H71      1.0000 0.35230  0.58010  0.15160  Biso   1.000  H
  C66      1.0000 0.38210  0.61910  0.20150  Biso   1.000  C
  H72      1.0000 0.44020  0.62750  0.21600  Biso   1.000  H
  H73      1.0000 0.34800  0.56090  0.20910  Biso   1.000  H
  C67      1.0000 0.31550  0.71010  0.20310  Biso   1.000  C
  H74      1.0000 0.25040  0.68940  0.20970  Biso   1.000  H
  H75      1.0000 0.33910  0.75270  0.22200  Biso   1.000  H
  C68      1.0000 0.22100  0.71200  0.15610  Biso   1.000  C
  H76      1.0000 0.22540  0.64270  0.15820  Biso   1.000  H
  H77      1.0000 0.21870  0.72990  0.13120  Biso   1.000  H
  H78      1.0000 0.16290  0.73440  0.16790  Biso   1.000  H
  C69      1.0000 0.37000  0.71700  0.11100  Biso   1.000  C
  H79      1.0000 0.35900  0.78110  0.10200  Biso   1.000  H
  H80      1.0000 0.31190  0.67830  0.10750  Biso   1.000  H
  H81      1.0000 0.42290  0.68710  0.09840  Biso   1.000  H
  C70      1.0000 0.47840  0.78650  0.15330  Biso   1.000  C
  H82      1.0000 0.50210  0.78760  0.17760  Biso   1.000  H
  H83      1.0000 0.45980  0.85110  0.14620  Biso   1.000  H
  H84      1.0000 0.52880  0.76320  0.13760  Biso   1.000  H
  C71      1.0000 0.29940  0.87250  0.17060  Biso   1.000  C
  C72      1.0000 0.49900  0.57240  0.14850  Biso   1.000  C
  C73      1.0000 0.03660  0.05680  0.22910  Biso   1.000  C
  C74      1.0000 0.03000  0.13300  0.25790  Biso   1.000  C
  C75      1.0000 0.94170  0.05900  0.20920  Biso   1.000  C
  C76      1.0000 0.05770  0.98530  0.25960  Biso   1.000  C
  C77      1.0000 0.13330  0.97900  0.28850  Biso   1.000  C
  C78      1.0000 0.12710  0.06790  0.20660  Biso   1.000  C
  In4      1.0000 0.71039  0.93920  0.66707  Biso   1.000  In
  O31      1.0000 0.75040  0.88670  0.61128  Biso   1.000  O
  O32      1.0000 0.73220  0.78200  0.65360  Biso   1.000  O
  O33      1.0000 0.57850  0.88120  0.69720  Biso   1.000  O
  O34      1.0000 0.55670  0.94700  0.64540  Biso   1.000  O
  O35      1.0000 0.67940  0.08020  0.69860  Biso   1.000  O
  O36      1.0000 0.72480  0.08730  0.64290  Biso   1.000  O
  O37      1.0000 0.50780  0.46370  0.61820  Biso   1.000  O
  O38      1.0000 0.42700  0.42610  0.66670  Biso   1.000  O
  O39      1.0000 0.79450  0.90400  0.71938  Biso   1.000  O
  O40      1.0000 0.87440  0.95910  0.67450  Biso   1.000  O
  C79      1.0000 0.78520  0.72100  0.59640  Biso   1.000  C
  C80      1.0000 0.89510  0.72420  0.58680  Biso   1.000  C
  C81      1.0000 0.91480  0.62140  0.57400  Biso   1.000  C
  H85      1.0000 0.89850  0.61940  0.54840  Biso   1.000  H
  C82      1.0000 0.84680  0.54850  0.59310  Biso   1.000  C
  H86      1.0000 0.81750  0.50350  0.57620  Biso   1.000  H
  H87      1.0000 0.88100  0.51210  0.61150  Biso   1.000  H
  C83      1.0000 0.77050  0.61690  0.60960  Biso   1.000  C
  H88      1.0000 0.70580  0.59480  0.60300  Biso   1.000  H
  H89      1.0000 0.77550  0.61510  0.63550  Biso   1.000  H
  C84      1.0000 0.76600  0.74100  0.55660  Biso   1.000  C
  H90      1.0000 0.69760  0.74480  0.55240  Biso   1.000  H
  H91      1.0000 0.79300  0.68830  0.54250  Biso   1.000  H
  H92      1.0000 0.79680  0.80070  0.54980  Biso   1.000  H
  C85      1.0000 0.91870  0.80100  0.55900  Biso   1.000  C
  H93      1.0000 0.98750  0.80120  0.55450  Biso   1.000  H
  H94      1.0000 0.89920  0.86370  0.56790  Biso   1.000  H
  H95      1.0000 0.88440  0.78700  0.53720  Biso   1.000  H
  C86      1.0000 0.95470  0.75610  0.61860  Biso   1.000  C
  H96      1.0000 0.94580  0.71080  0.63800  Biso   1.000  H
  H97      1.0000 0.93410  0.81970  0.62610  Biso   1.000  H
  H98      1.0000 0.02230  0.75810  0.61210  Biso   1.000  H
  C87      1.0000 0.75470  0.80030  0.62170  Biso   1.000  C
  C88      1.0000 0.52300  0.90480  0.67280  Biso   1.000  C
  C89      1.0000 0.68970  0.24070  0.67380  Biso   1.000  C
  C90      1.0000 0.60650  0.27850  0.65100  Biso   1.000  C
  C91      1.0000 0.59460  0.38370  0.66300  Biso   1.000  C
  H99      1.0000 0.64770  0.41990  0.65160  Biso   1.000  H
  C92      1.0000 0.61790  0.38090  0.70150  Biso   1.000  C
  H100     1.0000 0.55980  0.37250  0.71600  Biso   1.000  H
  H101     1.0000 0.65200  0.43910  0.70910  Biso   1.000  H
  C93      1.0000 0.68450  0.28990  0.70310  Biso   1.000  C
  H102     1.0000 0.74960  0.31060  0.70970  Biso   1.000  H
  H103     1.0000 0.66090  0.24730  0.72200  Biso   1.000  H
  C94      1.0000 0.77900  0.28800  0.65610  Biso   1.000  C
  H104     1.0000 0.77460  0.35730  0.65820  Biso   1.000  H
  H105     1.0000 0.78130  0.27010  0.63120  Biso   1.000  H
  H106     1.0000 0.83710  0.26560  0.66790  Biso   1.000  H
  C95      1.0000 0.63000  0.28300  0.61100  Biso   1.000  C
  H107     1.0000 0.64100  0.21890  0.60200  Biso   1.000  H
  H108     1.0000 0.68810  0.32170  0.60750  Biso   1.000  H
  H109     1.0000 0.57710  0.31290  0.59840  Biso   1.000  H
  C96      1.0000 0.52160  0.21350  0.65330  Biso   1.000  C
  H110     1.0000 0.49790  0.21240  0.67760  Biso   1.000  H
  H111     1.0000 0.54020  0.14890  0.64620  Biso   1.000  H
  H112     1.0000 0.47120  0.23680  0.63760  Biso   1.000  H
  C97      1.0000 0.70060  0.12750  0.67060  Biso   1.000  C
  C98      1.0000 0.50100  0.42760  0.64850  Biso   1.000  C
  C99      1.0000 0.96340  0.94320  0.72910  Biso   1.000  C
  C100     1.0000 0.97000  0.86700  0.75790  Biso   1.000  C
  C101     1.0000 0.05830  0.94100  0.70920  Biso   1.000  C
  C102     1.0000 0.94230  0.01470  0.75960  Biso   1.000  C
  C103     1.0000 0.86670  0.02100  0.78850  Biso   1.000  C
  C104     1.0000 0.87290  0.93210  0.70660  Biso   1.000  C
  In5      1.0000 0.93920  0.71039  0.33293  Biso   1.000  In
  O41      1.0000 0.88670  0.75040  0.38872  Biso   1.000  O
  O42      1.0000 0.78200  0.73220  0.34640  Biso   1.000  O
  O43      1.0000 0.88120  0.57850  0.30280  Biso   1.000  O
  O44      1.0000 0.94700  0.55670  0.35460  Biso   1.000  O
  O45      1.0000 0.08020  0.67940  0.30140  Biso   1.000  O
  O46      1.0000 0.08730  0.72480  0.35710  Biso   1.000  O
  O47      1.0000 0.46370  0.50780  0.38180  Biso   1.000  O
  O48      1.0000 0.42610  0.42700  0.33330  Biso   1.000  O
  O49      1.0000 0.90400  0.79450  0.28062  Biso   1.000  O
  O50      1.0000 0.95910  0.87440  0.32550  Biso   1.000  O
  C105     1.0000 0.72100  0.78520  0.40360  Biso   1.000  C
  C106     1.0000 0.72420  0.89510  0.41320  Biso   1.000  C
  C107     1.0000 0.62140  0.91480  0.42600  Biso   1.000  C
  H113     1.0000 0.61940  0.89850  0.45160  Biso   1.000  H
  C108     1.0000 0.54850  0.84680  0.40690  Biso   1.000  C
  H114     1.0000 0.50350  0.81750  0.42380  Biso   1.000  H
  H115     1.0000 0.51210  0.88100  0.38850  Biso   1.000  H
  C109     1.0000 0.61690  0.77050  0.39040  Biso   1.000  C
  H116     1.0000 0.59480  0.70580  0.39700  Biso   1.000  H
  H117     1.0000 0.61510  0.77550  0.36450  Biso   1.000  H
  C110     1.0000 0.74100  0.76600  0.44340  Biso   1.000  C
  H118     1.0000 0.74480  0.69760  0.44760  Biso   1.000  H
  H119     1.0000 0.68830  0.79300  0.45750  Biso   1.000  H
  H120     1.0000 0.80070  0.79680  0.45020  Biso   1.000  H
  C111     1.0000 0.80100  0.91870  0.44100  Biso   1.000  C
  H121     1.0000 0.80120  0.98750  0.44550  Biso   1.000  H
  H122     1.0000 0.86370  0.89920  0.43210  Biso   1.000  H
  H123     1.0000 0.78700  0.88440  0.46280  Biso   1.000  H
  C112     1.0000 0.75610  0.95470  0.38140  Biso   1.000  C
  H124     1.0000 0.71080  0.94580  0.36200  Biso   1.000  H
  H125     1.0000 0.81970  0.93410  0.37390  Biso   1.000  H
  H126     1.0000 0.75810  0.02230  0.38790  Biso   1.000  H
  C113     1.0000 0.80030  0.75470  0.37830  Biso   1.000  C
  C114     1.0000 0.90480  0.52300  0.32720  Biso   1.000  C
  C115     1.0000 0.24070  0.68970  0.32620  Biso   1.000  C
  C116     1.0000 0.27850  0.60650  0.34900  Biso   1.000  C
  C117     1.0000 0.38370  0.59460  0.33700  Biso   1.000  C
  H127     1.0000 0.41990  0.64770  0.34840  Biso   1.000  H
  C118     1.0000 0.38090  0.61790  0.29850  Biso   1.000  C
  H128     1.0000 0.37250  0.55980  0.28400  Biso   1.000  H
  H129     1.0000 0.43910  0.65200  0.29090  Biso   1.000  H
  C119     1.0000 0.28990  0.68450  0.29690  Biso   1.000  C
  H130     1.0000 0.31060  0.74960  0.29030  Biso   1.000  H
  H131     1.0000 0.24730  0.66090  0.27800  Biso   1.000  H
  C120     1.0000 0.28800  0.77900  0.34390  Biso   1.000  C
  H132     1.0000 0.35730  0.77460  0.34180  Biso   1.000  H
  H133     1.0000 0.27010  0.78130  0.36880  Biso   1.000  H
  H134     1.0000 0.26560  0.83710  0.33210  Biso   1.000  H
  C121     1.0000 0.28300  0.63000  0.38900  Biso   1.000  C
  H135     1.0000 0.21890  0.64100  0.39800  Biso   1.000  H
  H136     1.0000 0.32170  0.68810  0.39250  Biso   1.000  H
  H137     1.0000 0.31290  0.57710  0.40160  Biso   1.000  H
  C122     1.0000 0.21350  0.52160  0.34670  Biso   1.000  C
  H138     1.0000 0.21240  0.49790  0.32240  Biso   1.000  H
  H139     1.0000 0.14890  0.54020  0.35380  Biso   1.000  H
  H140     1.0000 0.23680  0.47120  0.36240  Biso   1.000  H
  C123     1.0000 0.12750  0.70060  0.32940  Biso   1.000  C
  C124     1.0000 0.42760  0.50100  0.35150  Biso   1.000  C
  C125     1.0000 0.94320  0.96340  0.27090  Biso   1.000  C
  C126     1.0000 0.86700  0.97000  0.24210  Biso   1.000  C
  C127     1.0000 0.94100  0.05830  0.29080  Biso   1.000  C
  C128     1.0000 0.01470  0.94230  0.24040  Biso   1.000  C
  C129     1.0000 0.02100  0.86670  0.21150  Biso   1.000  C
  C130     1.0000 0.93210  0.87290  0.29340  Biso   1.000  C
  In6      1.0000 0.06080  0.28961  0.83293  Biso   1.000  In
  O51      1.0000 0.11330  0.24960  0.88872  Biso   1.000  O
  O52      1.0000 0.21800  0.26780  0.84640  Biso   1.000  O
  O53      1.0000 0.11880  0.42150  0.80280  Biso   1.000  O
  O54      1.0000 0.05300  0.44330  0.85460  Biso   1.000  O
  O55      1.0000 0.91980  0.32060  0.80140  Biso   1.000  O
  O56      1.0000 0.91270  0.27520  0.85710  Biso   1.000  O
  O57      1.0000 0.53630  0.49220  0.88180  Biso   1.000  O
  O58      1.0000 0.57390  0.57300  0.83330  Biso   1.000  O
  O59      1.0000 0.09600  0.20550  0.78062  Biso   1.000  O
  O60      1.0000 0.04090  0.12560  0.82550  Biso   1.000  O
  C131     1.0000 0.27900  0.21480  0.90360  Biso   1.000  C
  C132     1.0000 0.27580  0.10490  0.91320  Biso   1.000  C
  C133     1.0000 0.37860  0.08520  0.92600  Biso   1.000  C
  H141     1.0000 0.38060  0.10150  0.95160  Biso   1.000  H
  C134     1.0000 0.45150  0.15320  0.90690  Biso   1.000  C
  H142     1.0000 0.49650  0.18250  0.92380  Biso   1.000  H
  H143     1.0000 0.48790  0.11900  0.88850  Biso   1.000  H
  C135     1.0000 0.38310  0.22950  0.89040  Biso   1.000  C
  H144     1.0000 0.40520  0.29420  0.89700  Biso   1.000  H
  H145     1.0000 0.38490  0.22450  0.86450  Biso   1.000  H
  C136     1.0000 0.25900  0.23400  0.94340  Biso   1.000  C
  H146     1.0000 0.25520  0.30240  0.94760  Biso   1.000  H
  H147     1.0000 0.31170  0.20700  0.95750  Biso   1.000  H
  H148     1.0000 0.19930  0.20320  0.95020  Biso   1.000  H
  C137     1.0000 0.19900  0.08130  0.94100  Biso   1.000  C
  H149     1.0000 0.19880  0.01250  0.94550  Biso   1.000  H
  H150     1.0000 0.13630  0.10080  0.93210  Biso   1.000  H
  H151     1.0000 0.21300  0.11560  0.96280  Biso   1.000  H
  C138     1.0000 0.24390  0.04530  0.88140  Biso   1.000  C
  H152     1.0000 0.28920  0.05420  0.86200  Biso   1.000  H
  H153     1.0000 0.18030  0.06590  0.87390  Biso   1.000  H
  H154     1.0000 0.24190  0.97770  0.88790  Biso   1.000  H
  C139     1.0000 0.19970  0.24530  0.87830  Biso   1.000  C
  C140     1.0000 0.09520  0.47700  0.82720  Biso   1.000  C
  C141     1.0000 0.75930  0.31030  0.82620  Biso   1.000  C
  C142     1.0000 0.72150  0.39350  0.84900  Biso   1.000  C
  C143     1.0000 0.61630  0.40540  0.83700  Biso   1.000  C
  H155     1.0000 0.58010  0.35230  0.84840  Biso   1.000  H
  C144     1.0000 0.61910  0.38210  0.79850  Biso   1.000  C
  H156     1.0000 0.62750  0.44020  0.78400  Biso   1.000  H
  H157     1.0000 0.56090  0.34800  0.79090  Biso   1.000  H
  C145     1.0000 0.71010  0.31550  0.79690  Biso   1.000  C
  H158     1.0000 0.68940  0.25040  0.79030  Biso   1.000  H
  H159     1.0000 0.75270  0.33910  0.77800  Biso   1.000  H
  C146     1.0000 0.71200  0.22100  0.84390  Biso   1.000  C
  H160     1.0000 0.64270  0.22540  0.84180  Biso   1.000  H
  H161     1.0000 0.72990  0.21870  0.86880  Biso   1.000  H
  H162     1.0000 0.73440  0.16290  0.83210  Biso   1.000  H
  C147     1.0000 0.71700  0.37000  0.88900  Biso   1.000  C
  H163     1.0000 0.78110  0.35900  0.89800  Biso   1.000  H
  H164     1.0000 0.67830  0.31190  0.89250  Biso   1.000  H
  H165     1.0000 0.68710  0.42290  0.90160  Biso   1.000  H
  C148     1.0000 0.78650  0.47840  0.84670  Biso   1.000  C
  H166     1.0000 0.78760  0.50210  0.82240  Biso   1.000  H
  H167     1.0000 0.85110  0.45980  0.85380  Biso   1.000  H
  H168     1.0000 0.76320  0.52880  0.86240  Biso   1.000  H
  C149     1.0000 0.87250  0.29940  0.82940  Biso   1.000  C
  C150     1.0000 0.57240  0.49900  0.85150  Biso   1.000  C
  C151     1.0000 0.05680  0.03660  0.77090  Biso   1.000  C
  C152     1.0000 0.13300  0.03000  0.74210  Biso   1.000  C
  C153     1.0000 0.05900  0.94170  0.79080  Biso   1.000  C
  C154     1.0000 0.98530  0.05770  0.74040  Biso   1.000  C
  C155     1.0000 0.97900  0.13330  0.71150  Biso   1.000  C
  C156     1.0000 0.06790  0.12710  0.79340  Biso   1.000  C
  In7      1.0000 0.21039  0.56080  0.58293  Biso   1.000  In
  O61      1.0000 0.25040  0.61330  0.63872  Biso   1.000  O
  O62      1.0000 0.23220  0.71800  0.59640  Biso   1.000  O
  O63      1.0000 0.07850  0.61880  0.55280  Biso   1.000  O
  O64      1.0000 0.05670  0.55300  0.60460  Biso   1.000  O
  O65      1.0000 0.17940  0.41980  0.55140  Biso   1.000  O
  O66      1.0000 0.22480  0.41270  0.60710  Biso   1.000  O
  O67      1.0000 0.00780  0.03630  0.63180  Biso   1.000  O
  O68      1.0000 0.92700  0.07390  0.58330  Biso   1.000  O
  O69      1.0000 0.29450  0.59600  0.53062  Biso   1.000  O
  O70      1.0000 0.37440  0.54090  0.57550  Biso   1.000  O
  C157     1.0000 0.28520  0.77900  0.65360  Biso   1.000  C
  C158     1.0000 0.39510  0.77580  0.66320  Biso   1.000  C
  C159     1.0000 0.41480  0.87860  0.67600  Biso   1.000  C
  H169     1.0000 0.39850  0.88060  0.70160  Biso   1.000  H
  C160     1.0000 0.34680  0.95150  0.65690  Biso   1.000  C
  H170     1.0000 0.31750  0.99650  0.67380  Biso   1.000  H
  H171     1.0000 0.38100  0.98790  0.63850  Biso   1.000  H
  C161     1.0000 0.27050  0.88310  0.64040  Biso   1.000  C
  H172     1.0000 0.20580  0.90520  0.64700  Biso   1.000  H
  H173     1.0000 0.27550  0.88490  0.61450  Biso   1.000  H
  C162     1.0000 0.26600  0.75900  0.69340  Biso   1.000  C
  H174     1.0000 0.19760  0.75520  0.69760  Biso   1.000  H
  H175     1.0000 0.29300  0.81170  0.70750  Biso   1.000  H
  H176     1.0000 0.29680  0.69930  0.70020  Biso   1.000  H
  C163     1.0000 0.41870  0.69900  0.69100  Biso   1.000  C
  H177     1.0000 0.48750  0.69880  0.69550  Biso   1.000  H
  H178     1.0000 0.39920  0.63630  0.68210  Biso   1.000  H
  H179     1.0000 0.38440  0.71300  0.71280  Biso   1.000  H
  C164     1.0000 0.45470  0.74390  0.63140  Biso   1.000  C
  H180     1.0000 0.44580  0.78920  0.61200  Biso   1.000  H
  H181     1.0000 0.43410  0.68030  0.62390  Biso   1.000  H
  H182     1.0000 0.52230  0.74190  0.63790  Biso   1.000  H
  C165     1.0000 0.25470  0.69970  0.62830  Biso   1.000  C
  C166     1.0000 0.02300  0.59520  0.57720  Biso   1.000  C
  C167     1.0000 0.18970  0.25930  0.57620  Biso   1.000  C
  C168     1.0000 0.10650  0.22150  0.59900  Biso   1.000  C
  C169     1.0000 0.09460  0.11630  0.58700  Biso   1.000  C
  H183     1.0000 0.14770  0.08010  0.59840  Biso   1.000  H
  C170     1.0000 0.11790  0.11910  0.54850  Biso   1.000  C
  H184     1.0000 0.05980  0.12750  0.53400  Biso   1.000  H
  H185     1.0000 0.15200  0.06090  0.54090  Biso   1.000  H
  C171     1.0000 0.18450  0.21010  0.54690  Biso   1.000  C
  H186     1.0000 0.24960  0.18940  0.54030  Biso   1.000  H
  H187     1.0000 0.16090  0.25270  0.52800  Biso   1.000  H
  C172     1.0000 0.27900  0.21200  0.59390  Biso   1.000  C
  H188     1.0000 0.27460  0.14270  0.59180  Biso   1.000  H
  H189     1.0000 0.28130  0.22990  0.61880  Biso   1.000  H
  H190     1.0000 0.33710  0.23440  0.58210  Biso   1.000  H
  C173     1.0000 0.13000  0.21700  0.63900  Biso   1.000  C
  H191     1.0000 0.14100  0.28110  0.64800  Biso   1.000  H
  H192     1.0000 0.18810  0.17830  0.64250  Biso   1.000  H
  H193     1.0000 0.07710  0.18710  0.65160  Biso   1.000  H
  C174     1.0000 0.02160  0.28650  0.59670  Biso   1.000  C
  H194     1.0000 0.99790  0.28760  0.57240  Biso   1.000  H
  H195     1.0000 0.04020  0.35110  0.60380  Biso   1.000  H
  H196     1.0000 0.97120  0.26320  0.61240  Biso   1.000  H
  C175     1.0000 0.20060  0.37250  0.57940  Biso   1.000  C
  C176     1.0000 0.00100  0.07240  0.60150  Biso   1.000  C
  C177     1.0000 0.46340  0.55680  0.52090  Biso   1.000  C
  C178     1.0000 0.47000  0.63300  0.49210  Biso   1.000  C
  C179     1.0000 0.55830  0.55900  0.54080  Biso   1.000  C
  C180     1.0000 0.44230  0.48530  0.49040  Biso   1.000  C
  C181     1.0000 0.36670  0.47900  0.46150  Biso   1.000  C
  C182     1.0000 0.37290  0.56790  0.54340  Biso   1.000  C
  In8      1.0000 0.78961  0.43920  0.08293  Biso   1.000  In
  O71      1.0000 0.74960  0.38670  0.13872  Biso   1.000  O
  O72      1.0000 0.76780  0.28200  0.09640  Biso   1.000  O
  O73      1.0000 0.92150  0.38120  0.05280  Biso   1.000  O
  O74      1.0000 0.94330  0.44700  0.10460  Biso   1.000  O
  O75      1.0000 0.82060  0.58020  0.05140  Biso   1.000  O
  O76      1.0000 0.77520  0.58730  0.10710  Biso   1.000  O
  O77      1.0000 0.99220  0.96370  0.13180  Biso   1.000  O
  O78      1.0000 0.07300  0.92610  0.08330  Biso   1.000  O
  O79      1.0000 0.70550  0.40400  0.03062  Biso   1.000  O
  O80      1.0000 0.62560  0.45910  0.07550  Biso   1.000  O
  C183     1.0000 0.71480  0.22100  0.15360  Biso   1.000  C
  C184     1.0000 0.60490  0.22420  0.16320  Biso   1.000  C
  C185     1.0000 0.58520  0.12140  0.17600  Biso   1.000  C
  H197     1.0000 0.60150  0.11940  0.20160  Biso   1.000  H
  C186     1.0000 0.65320  0.04850  0.15690  Biso   1.000  C
  H198     1.0000 0.68250  0.00350  0.17380  Biso   1.000  H
  H199     1.0000 0.61900  0.01210  0.13850  Biso   1.000  H
  C187     1.0000 0.72950  0.11690  0.14040  Biso   1.000  C
  H200     1.0000 0.79420  0.09480  0.14700  Biso   1.000  H
  H201     1.0000 0.72450  0.11510  0.11450  Biso   1.000  H
  C188     1.0000 0.73400  0.24100  0.19340  Biso   1.000  C
  H202     1.0000 0.80240  0.24480  0.19760  Biso   1.000  H
  H203     1.0000 0.70700  0.18830  0.20750  Biso   1.000  H
  H204     1.0000 0.70320  0.30070  0.20020  Biso   1.000  H
  C189     1.0000 0.58130  0.30100  0.19100  Biso   1.000  C
  H205     1.0000 0.51250  0.30120  0.19550  Biso   1.000  H
  H206     1.0000 0.60080  0.36370  0.18210  Biso   1.000  H
  H207     1.0000 0.61560  0.28700  0.21280  Biso   1.000  H
  C190     1.0000 0.54530  0.25610  0.13140  Biso   1.000  C
  H208     1.0000 0.55420  0.21080  0.11200  Biso   1.000  H
  H209     1.0000 0.56590  0.31970  0.12390  Biso   1.000  H
  H210     1.0000 0.47770  0.25810  0.13790  Biso   1.000  H
  C191     1.0000 0.74530  0.30030  0.12830  Biso   1.000  C
  C192     1.0000 0.97700  0.40480  0.07720  Biso   1.000  C
  C193     1.0000 0.81030  0.74070  0.07620  Biso   1.000  C
  C194     1.0000 0.89350  0.77850  0.09900  Biso   1.000  C
  C195     1.0000 0.90540  0.88370  0.08700  Biso   1.000  C
  H211     1.0000 0.85230  0.91990  0.09840  Biso   1.000  H
  C196     1.0000 0.88210  0.88090  0.04850  Biso   1.000  C
  H212     1.0000 0.94020  0.87250  0.03400  Biso   1.000  H
  H213     1.0000 0.84800  0.93910  0.04090  Biso   1.000  H
  C197     1.0000 0.81550  0.78990  0.04690  Biso   1.000  C
  H214     1.0000 0.75040  0.81060  0.04030  Biso   1.000  H
  H215     1.0000 0.83910  0.74730  0.02800  Biso   1.000  H
  C198     1.0000 0.72100  0.78800  0.09390  Biso   1.000  C
  H216     1.0000 0.72540  0.85730  0.09180  Biso   1.000  H
  H217     1.0000 0.71870  0.77010  0.11880  Biso   1.000  H
  H218     1.0000 0.66290  0.76560  0.08210  Biso   1.000  H
  C199     1.0000 0.87000  0.78300  0.13900  Biso   1.000  C
  H219     1.0000 0.85900  0.71890  0.14800  Biso   1.000  H
  H220     1.0000 0.81190  0.82170  0.14250  Biso   1.000  H
  H221     1.0000 0.92290  0.81290  0.15160  Biso   1.000  H
  C200     1.0000 0.97840  0.71350  0.09670  Biso   1.000  C
  H222     1.0000 0.00210  0.71240  0.07240  Biso   1.000  H
  H223     1.0000 0.95980  0.64890  0.10380  Biso   1.000  H
  H224     1.0000 0.02880  0.73680  0.11240  Biso   1.000  H
  C201     1.0000 0.79940  0.62750  0.07940  Biso   1.000  C
  C202     1.0000 0.99900  0.92760  0.10150  Biso   1.000  C
  C203     1.0000 0.53660  0.44320  0.02090  Biso   1.000  C
  C204     1.0000 0.53000  0.36700  0.99210  Biso   1.000  C
  C205     1.0000 0.44170  0.44100  0.04080  Biso   1.000  C
  C206     1.0000 0.55770  0.51470  0.99040  Biso   1.000  C
  C207     1.0000 0.63330  0.52100  0.96150  Biso   1.000  C
  C208     1.0000 0.62710  0.43210  0.04340  Biso   1.000  C
  C209     1.0000 0.39450  0.39450  0.50000  Biso   1.000  C
  C210     1.0000 0.60550  0.60550  0.00000  Biso   1.000  C
  C211     1.0000 0.10550  0.89450  0.25000  Biso   1.000  C
  C212     1.0000 0.89450  0.10550  0.75000  Biso   1.000  C
