data_image0
_cell_length_a       10.749
_cell_length_b       18.058
_cell_length_c       18.058
_cell_angle_alpha    90
_cell_angle_beta     90
_cell_angle_gamma    90

_symmetry_space_group_name_H-M    "P 1"
_symmetry_int_tables_number       1

loop_
  _symmetry_equiv_pos_as_xyz
  'x, y, z'

loop_
  _atom_site_label
  _atom_site_occupancy
  _atom_site_fract_x
  _atom_site_fract_y
  _atom_site_fract_z
  _atom_site_thermal_displace_type
  _atom_site_B_iso_or_equiv
  _atom_site_type_symbol
  O1       1.0000 0.16970  0.09930  0.32010  Biso   1.000  O
  O2       1.0000 0.97150  0.07390  0.30760  Biso   1.000  O
  O3       1.0000 0.28460  0.94670  0.32550  Biso   1.000  O
  O4       1.0000 0.08700  0.92890  0.34700  Biso   1.000  O
  C1       1.0000 0.02560  0.18530  0.37430  Biso   1.000  C
  C2       1.0000 0.13090  0.20750  0.42670  Biso   1.000  C
  C3       1.0000 0.89760  0.19430  0.40740  Biso   1.000  C
  C4       1.0000 0.96160  0.24670  0.32410  Biso   1.000  C
  C5       1.0000 0.95920  0.24100  0.25320  Biso   1.000  C
  C6       1.0000 0.83180  0.22850  0.29980  Biso   1.000  C
  C7       1.0000 0.05480  0.11510  0.33280  Biso   1.000  C
  C8       1.0000 0.23020  0.87420  0.43440  Biso   1.000  C
  C9       1.0000 0.12000  0.83450  0.46880  Biso   1.000  C
  C10      1.0000 0.29010  0.92620  0.49730  Biso   1.000  C
  C11      1.0000 0.42400  0.94750  0.48600  Biso   1.000  C
  C12      1.0000 0.21510  0.99890  0.50720  Biso   1.000  C
  C13      1.0000 0.33990  0.81970  0.41760  Biso   1.000  C
  C14      1.0000 0.20030  0.91830  0.36470  Biso   1.000  C
  O5       1.0000 0.66970  0.59930  0.82010  Biso   1.000  O
  O6       1.0000 0.47150  0.57390  0.80760  Biso   1.000  O
  O7       1.0000 0.78460  0.44670  0.82550  Biso   1.000  O
  O8       1.0000 0.58700  0.42890  0.84700  Biso   1.000  O
  C15      1.0000 0.52560  0.68530  0.87430  Biso   1.000  C
  C16      1.0000 0.63090  0.70750  0.92670  Biso   1.000  C
  C17      1.0000 0.39760  0.69430  0.90740  Biso   1.000  C
  C18      1.0000 0.46160  0.74670  0.82410  Biso   1.000  C
  C19      1.0000 0.45920  0.74100  0.75320  Biso   1.000  C
  C20      1.0000 0.33180  0.72850  0.79980  Biso   1.000  C
  C21      1.0000 0.55480  0.61510  0.83280  Biso   1.000  C
  C22      1.0000 0.73020  0.37420  0.93440  Biso   1.000  C
  C23      1.0000 0.62000  0.33450  0.96880  Biso   1.000  C
  C24      1.0000 0.79010  0.42620  0.99730  Biso   1.000  C
  C25      1.0000 0.92400  0.44750  0.98600  Biso   1.000  C
  C26      1.0000 0.71510  0.49890  0.00720  Biso   1.000  C
  C27      1.0000 0.83990  0.31970  0.91760  Biso   1.000  C
  C28      1.0000 0.70030  0.41830  0.86470  Biso   1.000  C
  O9       1.0000 0.33030  0.90070  0.82010  Biso   1.000  O
  O10      1.0000 0.52850  0.92610  0.80760  Biso   1.000  O
  O11      1.0000 0.21540  0.05330  0.82550  Biso   1.000  O
  O12      1.0000 0.41300  0.07110  0.84700  Biso   1.000  O
  C29      1.0000 0.47440  0.81470  0.87430  Biso   1.000  C
  C30      1.0000 0.36910  0.79250  0.92670  Biso   1.000  C
  C31      1.0000 0.60240  0.80570  0.90740  Biso   1.000  C
  C32      1.0000 0.53840  0.75330  0.82410  Biso   1.000  C
  C33      1.0000 0.54080  0.75900  0.75320  Biso   1.000  C
  C34      1.0000 0.66820  0.77150  0.79980  Biso   1.000  C
  C35      1.0000 0.44520  0.88490  0.83280  Biso   1.000  C
  C36      1.0000 0.26980  0.12580  0.93440  Biso   1.000  C
  C37      1.0000 0.38000  0.16550  0.96880  Biso   1.000  C
  C38      1.0000 0.20990  0.07380  0.99730  Biso   1.000  C
  C39      1.0000 0.07600  0.05250  0.98600  Biso   1.000  C
  C40      1.0000 0.28490  0.00110  0.00720  Biso   1.000  C
  C41      1.0000 0.16010  0.18030  0.91760  Biso   1.000  C
  C42      1.0000 0.29970  0.08170  0.86470  Biso   1.000  C
  O13      1.0000 0.83030  0.40070  0.32010  Biso   1.000  O
  O14      1.0000 0.02850  0.42610  0.30760  Biso   1.000  O
  O15      1.0000 0.71540  0.55330  0.32550  Biso   1.000  O
  O16      1.0000 0.91300  0.57110  0.34700  Biso   1.000  O
  C43      1.0000 0.97440  0.31470  0.37430  Biso   1.000  C
  C44      1.0000 0.86910  0.29250  0.42670  Biso   1.000  C
  C45      1.0000 0.10240  0.30570  0.40740  Biso   1.000  C
  C46      1.0000 0.03840  0.25330  0.32410  Biso   1.000  C
  C47      1.0000 0.04080  0.25900  0.25320  Biso   1.000  C
  C48      1.0000 0.16820  0.27150  0.29980  Biso   1.000  C
  C49      1.0000 0.94520  0.38490  0.33280  Biso   1.000  C
  C50      1.0000 0.76980  0.62580  0.43440  Biso   1.000  C
  C51      1.0000 0.88000  0.66550  0.46880  Biso   1.000  C
  C52      1.0000 0.70990  0.57380  0.49730  Biso   1.000  C
  C53      1.0000 0.57600  0.55250  0.48600  Biso   1.000  C
  C54      1.0000 0.78490  0.50110  0.50720  Biso   1.000  C
  C55      1.0000 0.66010  0.68030  0.41760  Biso   1.000  C
  C56      1.0000 0.79970  0.58170  0.36470  Biso   1.000  C
  O17      1.0000 0.83030  0.59930  0.17990  Biso   1.000  O
  O18      1.0000 0.02850  0.57390  0.19240  Biso   1.000  O
  O19      1.0000 0.71540  0.44670  0.17450  Biso   1.000  O
  O20      1.0000 0.91300  0.42890  0.15300  Biso   1.000  O
  C57      1.0000 0.97440  0.68530  0.12570  Biso   1.000  C
  C58      1.0000 0.86910  0.70750  0.07330  Biso   1.000  C
  C59      1.0000 0.10240  0.69430  0.09260  Biso   1.000  C
  C60      1.0000 0.03840  0.74670  0.17590  Biso   1.000  C
  C61      1.0000 0.04080  0.74100  0.24680  Biso   1.000  C
  C62      1.0000 0.16820  0.72850  0.20020  Biso   1.000  C
  C63      1.0000 0.94520  0.61510  0.16720  Biso   1.000  C
  C64      1.0000 0.76980  0.37420  0.06560  Biso   1.000  C
  C65      1.0000 0.88000  0.33450  0.03120  Biso   1.000  C
  C66      1.0000 0.70990  0.42620  0.00270  Biso   1.000  C
  C67      1.0000 0.57600  0.44750  0.01400  Biso   1.000  C
  C68      1.0000 0.78490  0.49890  0.99280  Biso   1.000  C
  C69      1.0000 0.66010  0.31970  0.08240  Biso   1.000  C
  C70      1.0000 0.79970  0.41830  0.13530  Biso   1.000  C
  O21      1.0000 0.33030  0.09930  0.67990  Biso   1.000  O
  O22      1.0000 0.52850  0.07390  0.69240  Biso   1.000  O
  O23      1.0000 0.21540  0.94670  0.67450  Biso   1.000  O
  O24      1.0000 0.41300  0.92890  0.65300  Biso   1.000  O
  C71      1.0000 0.47440  0.18530  0.62570  Biso   1.000  C
  C72      1.0000 0.36910  0.20750  0.57330  Biso   1.000  C
  C73      1.0000 0.60240  0.19430  0.59260  Biso   1.000  C
  C74      1.0000 0.53840  0.24670  0.67590  Biso   1.000  C
  C75      1.0000 0.54080  0.24100  0.74680  Biso   1.000  C
  C76      1.0000 0.66820  0.22850  0.70020  Biso   1.000  C
  C77      1.0000 0.44520  0.11510  0.66720  Biso   1.000  C
  C78      1.0000 0.26980  0.87420  0.56560  Biso   1.000  C
  C79      1.0000 0.38000  0.83450  0.53120  Biso   1.000  C
  C80      1.0000 0.20990  0.92620  0.50270  Biso   1.000  C
  C81      1.0000 0.07600  0.94750  0.51400  Biso   1.000  C
  C82      1.0000 0.28490  0.99890  0.49280  Biso   1.000  C
  C83      1.0000 0.16010  0.81970  0.58240  Biso   1.000  C
  C84      1.0000 0.29970  0.91830  0.63530  Biso   1.000  C
  O25      1.0000 0.66970  0.40070  0.67990  Biso   1.000  O
  O26      1.0000 0.47150  0.42610  0.69240  Biso   1.000  O
  O27      1.0000 0.78460  0.55330  0.67450  Biso   1.000  O
  O28      1.0000 0.58700  0.57110  0.65300  Biso   1.000  O
  C85      1.0000 0.52560  0.31470  0.62570  Biso   1.000  C
  C86      1.0000 0.63090  0.29250  0.57330  Biso   1.000  C
  C87      1.0000 0.39760  0.30570  0.59260  Biso   1.000  C
  C88      1.0000 0.46160  0.25330  0.67590  Biso   1.000  C
  C89      1.0000 0.45920  0.25900  0.74680  Biso   1.000  C
  C90      1.0000 0.33180  0.27150  0.70020  Biso   1.000  C
  C91      1.0000 0.55480  0.38490  0.66720  Biso   1.000  C
  C92      1.0000 0.73020  0.62580  0.56560  Biso   1.000  C
  C93      1.0000 0.62000  0.66550  0.53120  Biso   1.000  C
  C94      1.0000 0.79010  0.57380  0.50270  Biso   1.000  C
  C95      1.0000 0.92400  0.55250  0.51400  Biso   1.000  C
  C96      1.0000 0.71510  0.50110  0.49280  Biso   1.000  C
  C97      1.0000 0.83990  0.68030  0.58240  Biso   1.000  C
  C98      1.0000 0.70030  0.58170  0.63530  Biso   1.000  C
  O29      1.0000 0.16970  0.90070  0.17990  Biso   1.000  O
  O30      1.0000 0.97150  0.92610  0.19240  Biso   1.000  O
  O31      1.0000 0.28460  0.05330  0.17450  Biso   1.000  O
  O32      1.0000 0.08700  0.07110  0.15300  Biso   1.000  O
  C99      1.0000 0.02560  0.81470  0.12570  Biso   1.000  C
  C100     1.0000 0.13090  0.79250  0.07330  Biso   1.000  C
  C101     1.0000 0.89760  0.80570  0.09260  Biso   1.000  C
  C102     1.0000 0.96160  0.75330  0.17590  Biso   1.000  C
  C103     1.0000 0.95920  0.75900  0.24680  Biso   1.000  C
  C104     1.0000 0.83180  0.77150  0.20020  Biso   1.000  C
  C105     1.0000 0.05480  0.88490  0.16720  Biso   1.000  C
  C106     1.0000 0.23020  0.12580  0.06560  Biso   1.000  C
  C107     1.0000 0.12000  0.16550  0.03120  Biso   1.000  C
  C108     1.0000 0.29010  0.07380  0.00270  Biso   1.000  C
  C109     1.0000 0.42400  0.05250  0.01400  Biso   1.000  C
  C110     1.0000 0.21510  0.00110  0.99280  Biso   1.000  C
  C111     1.0000 0.33990  0.18030  0.08240  Biso   1.000  C
  C112     1.0000 0.20030  0.08170  0.13530  Biso   1.000  C
  In1      1.0000 0.12858  0.00000  0.25000  Biso   1.000  In
  In2      1.0000 0.37142  0.00000  0.75000  Biso   1.000  In
  In3      1.0000 0.87142  0.50000  0.25000  Biso   1.000  In
  In4      1.0000 0.62858  0.50000  0.75000  Biso   1.000  In
