data_image0
_cell_length_a       36.706
_cell_length_b       6.9945
_cell_length_c       6.1881
_cell_angle_alpha    90
_cell_angle_beta     97.42
_cell_angle_gamma    90

_symmetry_space_group_name_H-M    "P 1"
_symmetry_int_tables_number       1

loop_
  _symmetry_equiv_pos_as_xyz
  'x, y, z'

loop_
  _atom_site_label
  _atom_site_occupancy
  _atom_site_fract_x
  _atom_site_fract_y
  _atom_site_fract_z
  _atom_site_thermal_displace_type
  _atom_site_B_iso_or_equiv
  _atom_site_type_symbol
  O1       1.0000 0.34670  0.44310  0.51500  Biso   1.000  O
  O2       1.0000 0.20030  0.19010  0.21200  Biso   1.000  O
  O3       1.0000 0.22436  0.34710  0.62360  Biso   1.000  O
  C1       1.0000 0.44890  0.43090  0.30680  Biso   1.000  C
  H1       1.0000 0.47010  0.38600  0.40310  Biso   1.000  H
  C2       1.0000 0.41470  0.42700  0.37280  Biso   1.000  C
  H2       1.0000 0.41180  0.38620  0.51900  Biso   1.000  H
  C3       1.0000 0.38450  0.48100  0.23140  Biso   1.000  C
  C4       1.0000 0.38880  0.55040  0.02710  Biso   1.000  C
  H3       1.0000 0.36810  0.60370  0.93390  Biso   1.000  H
  C5       1.0000 0.42290  0.54280  0.95810  Biso   1.000  C
  H4       1.0000 0.42540  0.56820  0.80700  Biso   1.000  H
  C6       1.0000 0.17490  0.48500  0.76270  Biso   1.000  C
  C7       1.0000 0.14330  0.55840  0.63850  Biso   1.000  C
  H5       1.0000 0.14490  0.62000  0.50160  Biso   1.000  H
  C8       1.0000 0.10970  0.54050  0.71630  Biso   1.000  C
  H6       1.0000 0.08770  0.58000  0.62740  Biso   1.000  H
  C9       1.0000 0.10790  0.46560  0.92250  Biso   1.000  C
  H7       1.0000 0.08470  0.45630  0.97680  Biso   1.000  H
  C10      1.0000 0.13960  0.40430  0.04970  Biso   1.000  C
  H8       1.0000 0.13830  0.35500  0.19320  Biso   1.000  H
  C11      1.0000 0.17310  0.41420  0.96980  Biso   1.000  C
  C12      1.0000 0.20670  0.35400  0.13100  Biso   1.000  C
  O4       1.0000 0.84670  0.94310  0.51500  Biso   1.000  O
  O5       1.0000 0.70030  0.69010  0.21200  Biso   1.000  O
  O6       1.0000 0.72436  0.84710  0.62360  Biso   1.000  O
  C13      1.0000 0.94890  0.93090  0.30680  Biso   1.000  C
  H9       1.0000 0.97010  0.88600  0.40310  Biso   1.000  H
  C14      1.0000 0.91470  0.92700  0.37280  Biso   1.000  C
  H10      1.0000 0.91180  0.88620  0.51900  Biso   1.000  H
  C15      1.0000 0.88450  0.98100  0.23140  Biso   1.000  C
  C16      1.0000 0.88880  0.05040  0.02710  Biso   1.000  C
  H11      1.0000 0.86810  0.10370  0.93390  Biso   1.000  H
  C17      1.0000 0.92290  0.04280  0.95810  Biso   1.000  C
  H12      1.0000 0.92540  0.06820  0.80700  Biso   1.000  H
  C18      1.0000 0.67490  0.98500  0.76270  Biso   1.000  C
  C19      1.0000 0.64330  0.05840  0.63850  Biso   1.000  C
  H13      1.0000 0.64490  0.12000  0.50160  Biso   1.000  H
  C20      1.0000 0.60970  0.04050  0.71630  Biso   1.000  C
  H14      1.0000 0.58770  0.08000  0.62740  Biso   1.000  H
  C21      1.0000 0.60790  0.96560  0.92250  Biso   1.000  C
  H15      1.0000 0.58470  0.95630  0.97680  Biso   1.000  H
  C22      1.0000 0.63960  0.90430  0.04970  Biso   1.000  C
  H16      1.0000 0.63830  0.85500  0.19320  Biso   1.000  H
  C23      1.0000 0.67310  0.91420  0.96980  Biso   1.000  C
  C24      1.0000 0.70670  0.85400  0.13100  Biso   1.000  C
  O7       1.0000 0.65330  0.44310  0.48500  Biso   1.000  O
  O8       1.0000 0.79970  0.19010  0.78800  Biso   1.000  O
  O9       1.0000 0.77564  0.34710  0.37640  Biso   1.000  O
  C25      1.0000 0.55110  0.43090  0.69320  Biso   1.000  C
  H17      1.0000 0.52990  0.38600  0.59690  Biso   1.000  H
  C26      1.0000 0.58530  0.42700  0.62720  Biso   1.000  C
  H18      1.0000 0.58820  0.38620  0.48100  Biso   1.000  H
  C27      1.0000 0.61550  0.48100  0.76860  Biso   1.000  C
  C28      1.0000 0.61120  0.55040  0.97290  Biso   1.000  C
  H19      1.0000 0.63190  0.60370  0.06610  Biso   1.000  H
  C29      1.0000 0.57710  0.54280  0.04190  Biso   1.000  C
  H20      1.0000 0.57460  0.56820  0.19300  Biso   1.000  H
  C30      1.0000 0.82510  0.48500  0.23730  Biso   1.000  C
  C31      1.0000 0.85670  0.55840  0.36150  Biso   1.000  C
  H21      1.0000 0.85510  0.62000  0.49840  Biso   1.000  H
  C32      1.0000 0.89030  0.54050  0.28370  Biso   1.000  C
  H22      1.0000 0.91230  0.58000  0.37260  Biso   1.000  H
  C33      1.0000 0.89210  0.46560  0.07750  Biso   1.000  C
  H23      1.0000 0.91530  0.45630  0.02320  Biso   1.000  H
  C34      1.0000 0.86040  0.40430  0.95030  Biso   1.000  C
  H24      1.0000 0.86170  0.35500  0.80680  Biso   1.000  H
  C35      1.0000 0.82690  0.41420  0.03020  Biso   1.000  C
  C36      1.0000 0.79330  0.35400  0.86900  Biso   1.000  C
  O10      1.0000 0.15330  0.94310  0.48500  Biso   1.000  O
  O11      1.0000 0.29970  0.69010  0.78800  Biso   1.000  O
  O12      1.0000 0.27564  0.84710  0.37640  Biso   1.000  O
  C37      1.0000 0.05110  0.93090  0.69320  Biso   1.000  C
  H25      1.0000 0.02990  0.88600  0.59690  Biso   1.000  H
  C38      1.0000 0.08530  0.92700  0.62720  Biso   1.000  C
  H26      1.0000 0.08820  0.88620  0.48100  Biso   1.000  H
  C39      1.0000 0.11550  0.98100  0.76860  Biso   1.000  C
  C40      1.0000 0.11120  0.05040  0.97290  Biso   1.000  C
  H27      1.0000 0.13190  0.10370  0.06610  Biso   1.000  H
  C41      1.0000 0.07710  0.04280  0.04190  Biso   1.000  C
  H28      1.0000 0.07460  0.06820  0.19300  Biso   1.000  H
  C42      1.0000 0.32510  0.98500  0.23730  Biso   1.000  C
  C43      1.0000 0.35670  0.05840  0.36150  Biso   1.000  C
  H29      1.0000 0.35510  0.12000  0.49840  Biso   1.000  H
  C44      1.0000 0.39030  0.04050  0.28370  Biso   1.000  C
  H30      1.0000 0.41230  0.08000  0.37260  Biso   1.000  H
  C45      1.0000 0.39210  0.96560  0.07750  Biso   1.000  C
  H31      1.0000 0.41530  0.95630  0.02320  Biso   1.000  H
  C46      1.0000 0.36040  0.90430  0.95030  Biso   1.000  C
  H32      1.0000 0.36170  0.85500  0.80680  Biso   1.000  H
  C47      1.0000 0.32690  0.91420  0.03020  Biso   1.000  C
  C48      1.0000 0.29330  0.85400  0.86900  Biso   1.000  C
  O13      1.0000 0.65330  0.55690  0.48500  Biso   1.000  O
  O14      1.0000 0.79970  0.80990  0.78800  Biso   1.000  O
  O15      1.0000 0.77564  0.65290  0.37640  Biso   1.000  O
  C49      1.0000 0.55110  0.56910  0.69320  Biso   1.000  C
  H33      1.0000 0.52990  0.61400  0.59690  Biso   1.000  H
  C50      1.0000 0.58530  0.57300  0.62720  Biso   1.000  C
  H34      1.0000 0.58820  0.61380  0.48100  Biso   1.000  H
  C51      1.0000 0.61550  0.51900  0.76860  Biso   1.000  C
  C52      1.0000 0.61120  0.44960  0.97290  Biso   1.000  C
  H35      1.0000 0.63190  0.39630  0.06610  Biso   1.000  H
  C53      1.0000 0.57710  0.45720  0.04190  Biso   1.000  C
  H36      1.0000 0.57460  0.43180  0.19300  Biso   1.000  H
  C54      1.0000 0.82510  0.51500  0.23730  Biso   1.000  C
  C55      1.0000 0.85670  0.44160  0.36150  Biso   1.000  C
  H37      1.0000 0.85510  0.38000  0.49840  Biso   1.000  H
  C56      1.0000 0.89030  0.45950  0.28370  Biso   1.000  C
  H38      1.0000 0.91230  0.42000  0.37260  Biso   1.000  H
  C57      1.0000 0.89210  0.53440  0.07750  Biso   1.000  C
  H39      1.0000 0.91530  0.54370  0.02320  Biso   1.000  H
  C58      1.0000 0.86040  0.59570  0.95030  Biso   1.000  C
  H40      1.0000 0.86170  0.64500  0.80680  Biso   1.000  H
  C59      1.0000 0.82690  0.58580  0.03020  Biso   1.000  C
  C60      1.0000 0.79330  0.64600  0.86900  Biso   1.000  C
  O16      1.0000 0.15330  0.05690  0.48500  Biso   1.000  O
  O17      1.0000 0.29970  0.30990  0.78800  Biso   1.000  O
  O18      1.0000 0.27564  0.15290  0.37640  Biso   1.000  O
  C61      1.0000 0.05110  0.06910  0.69320  Biso   1.000  C
  H41      1.0000 0.02990  0.11400  0.59690  Biso   1.000  H
  C62      1.0000 0.08530  0.07300  0.62720  Biso   1.000  C
  H42      1.0000 0.08820  0.11380  0.48100  Biso   1.000  H
  C63      1.0000 0.11550  0.01900  0.76860  Biso   1.000  C
  C64      1.0000 0.11120  0.94960  0.97290  Biso   1.000  C
  H43      1.0000 0.13190  0.89630  0.06610  Biso   1.000  H
  C65      1.0000 0.07710  0.95720  0.04190  Biso   1.000  C
  H44      1.0000 0.07460  0.93180  0.19300  Biso   1.000  H
  C66      1.0000 0.32510  0.01500  0.23730  Biso   1.000  C
  C67      1.0000 0.35670  0.94160  0.36150  Biso   1.000  C
  H45      1.0000 0.35510  0.88000  0.49840  Biso   1.000  H
  C68      1.0000 0.39030  0.95950  0.28370  Biso   1.000  C
  H46      1.0000 0.41230  0.92000  0.37260  Biso   1.000  H
  C69      1.0000 0.39210  0.03440  0.07750  Biso   1.000  C
  H47      1.0000 0.41530  0.04370  0.02320  Biso   1.000  H
  C70      1.0000 0.36040  0.09570  0.95030  Biso   1.000  C
  H48      1.0000 0.36170  0.14500  0.80680  Biso   1.000  H
  C71      1.0000 0.32690  0.08580  0.03020  Biso   1.000  C
  C72      1.0000 0.29330  0.14600  0.86900  Biso   1.000  C
  O19      1.0000 0.34670  0.55690  0.51500  Biso   1.000  O
  O20      1.0000 0.20030  0.80990  0.21200  Biso   1.000  O
  O21      1.0000 0.22436  0.65290  0.62360  Biso   1.000  O
  C73      1.0000 0.44890  0.56910  0.30680  Biso   1.000  C
  H49      1.0000 0.47010  0.61400  0.40310  Biso   1.000  H
  C74      1.0000 0.41470  0.57300  0.37280  Biso   1.000  C
  H50      1.0000 0.41180  0.61380  0.51900  Biso   1.000  H
  C75      1.0000 0.38450  0.51900  0.23140  Biso   1.000  C
  C76      1.0000 0.38880  0.44960  0.02710  Biso   1.000  C
  H51      1.0000 0.36810  0.39630  0.93390  Biso   1.000  H
  C77      1.0000 0.42290  0.45720  0.95810  Biso   1.000  C
  H52      1.0000 0.42540  0.43180  0.80700  Biso   1.000  H
  C78      1.0000 0.17490  0.51500  0.76270  Biso   1.000  C
  C79      1.0000 0.14330  0.44160  0.63850  Biso   1.000  C
  H53      1.0000 0.14490  0.38000  0.50160  Biso   1.000  H
  C80      1.0000 0.10970  0.45950  0.71630  Biso   1.000  C
  H54      1.0000 0.08770  0.42000  0.62740  Biso   1.000  H
  C81      1.0000 0.10790  0.53440  0.92250  Biso   1.000  C
  H55      1.0000 0.08470  0.54370  0.97680  Biso   1.000  H
  C82      1.0000 0.13960  0.59570  0.04970  Biso   1.000  C
  H56      1.0000 0.13830  0.64500  0.19320  Biso   1.000  H
  C83      1.0000 0.17310  0.58580  0.96980  Biso   1.000  C
  C84      1.0000 0.20670  0.64600  0.13100  Biso   1.000  C
  O22      1.0000 0.84670  0.05690  0.51500  Biso   1.000  O
  O23      1.0000 0.70030  0.30990  0.21200  Biso   1.000  O
  O24      1.0000 0.72436  0.15290  0.62360  Biso   1.000  O
  C85      1.0000 0.94890  0.06910  0.30680  Biso   1.000  C
  H57      1.0000 0.97010  0.11400  0.40310  Biso   1.000  H
  C86      1.0000 0.91470  0.07300  0.37280  Biso   1.000  C
  H58      1.0000 0.91180  0.11380  0.51900  Biso   1.000  H
  C87      1.0000 0.88450  0.01900  0.23140  Biso   1.000  C
  C88      1.0000 0.88880  0.94960  0.02710  Biso   1.000  C
  H59      1.0000 0.86810  0.89630  0.93390  Biso   1.000  H
  C89      1.0000 0.92290  0.95720  0.95810  Biso   1.000  C
  H60      1.0000 0.92540  0.93180  0.80700  Biso   1.000  H
  C90      1.0000 0.67490  0.01500  0.76270  Biso   1.000  C
  C91      1.0000 0.64330  0.94160  0.63850  Biso   1.000  C
  H61      1.0000 0.64490  0.88000  0.50160  Biso   1.000  H
  C92      1.0000 0.60970  0.95950  0.71630  Biso   1.000  C
  H62      1.0000 0.58770  0.92000  0.62740  Biso   1.000  H
  C93      1.0000 0.60790  0.03440  0.92250  Biso   1.000  C
  H63      1.0000 0.58470  0.04370  0.97680  Biso   1.000  H
  C94      1.0000 0.63960  0.09570  0.04970  Biso   1.000  C
  H64      1.0000 0.63830  0.14500  0.19320  Biso   1.000  H
  C95      1.0000 0.67310  0.08580  0.96980  Biso   1.000  C
  C96      1.0000 0.70670  0.14600  0.13100  Biso   1.000  C
  Tb1      1.0000 0.28010  0.50000  0.47873  Biso   1.000  Tb
  O25      1.0000 0.31930  0.50000  0.19370  Biso   1.000  O
  O26      1.0000 0.23290  0.50000  0.16270  Biso   1.000  O
  N1       1.0000 0.45310  0.50000  0.09960  Biso   1.000  N
  C97      1.0000 0.34860  0.50000  0.31900  Biso   1.000  C
  C98      1.0000 0.20970  0.50000  0.66700  Biso   1.000  C
  Tb2      1.0000 0.78010  0.00000  0.47873  Biso   1.000  Tb
  O27      1.0000 0.81930  0.00000  0.19370  Biso   1.000  O
  O28      1.0000 0.73290  0.00000  0.16270  Biso   1.000  O
  N2       1.0000 0.95310  0.00000  0.09960  Biso   1.000  N
  C99      1.0000 0.84860  0.00000  0.31900  Biso   1.000  C
  C100     1.0000 0.70970  0.00000  0.66700  Biso   1.000  C
  Tb3      1.0000 0.71990  0.50000  0.52127  Biso   1.000  Tb
  O29      1.0000 0.68070  0.50000  0.80630  Biso   1.000  O
  O30      1.0000 0.76710  0.50000  0.83730  Biso   1.000  O
  N3       1.0000 0.54690  0.50000  0.90040  Biso   1.000  N
  C101     1.0000 0.65140  0.50000  0.68100  Biso   1.000  C
  C102     1.0000 0.79030  0.50000  0.33300  Biso   1.000  C
  Tb4      1.0000 0.21990  0.00000  0.52127  Biso   1.000  Tb
  O31      1.0000 0.18070  0.00000  0.80630  Biso   1.000  O
  O32      1.0000 0.26710  0.00000  0.83730  Biso   1.000  O
  N4       1.0000 0.04690  0.00000  0.90040  Biso   1.000  N
  C103     1.0000 0.15140  0.00000  0.68100  Biso   1.000  C
  C104     1.0000 0.29030  0.00000  0.33300  Biso   1.000  C
  Cu1      1.0000 0.50000  0.50000  0.00000  Biso   1.000  Cu
  Cu2      1.0000 0.00000  0.00000  0.00000  Biso   1.000  Cu
