data_image0
_cell_length_a       18.7481
_cell_length_b       20.0714
_cell_length_c       32.865
_cell_angle_alpha    90
_cell_angle_beta     98.535
_cell_angle_gamma    90

_symmetry_space_group_name_H-M    "P 1"
_symmetry_int_tables_number       1

loop_
  _symmetry_equiv_pos_as_xyz
  'x, y, z'

loop_
  _atom_site_label
  _atom_site_occupancy
  _atom_site_fract_x
  _atom_site_fract_y
  _atom_site_fract_z
  _atom_site_thermal_displace_type
  _atom_site_B_iso_or_equiv
  _atom_site_type_symbol
  Co1      1.0000 0.79112  0.19191  0.99918  Biso   1.000  Co
  Co2      1.0000 0.72417  0.34000  0.03839  Biso   1.000  Co
  Co3      1.0000 0.77332  0.35522  0.94643  Biso   1.000  Co
  Co4      1.0000 0.82347  0.20818  0.90729  Biso   1.000  Co
  Co5      1.0000 0.67761  0.18940  0.07593  Biso   1.000  Co
  N1       1.0000 0.87480  0.15290  0.86348  Biso   1.000  N
  N2       1.0000 0.27270  0.55070  0.95023  Biso   1.000  N
  N3       1.0000 0.76990  0.46390  0.94636  Biso   1.000  N
  N4       1.0000 0.62260  0.36250  0.61996  Biso   1.000  N
  O1       1.0000 0.71870  0.24370  0.62249  Biso   1.000  O
  O2       1.0000 0.78380  0.16590  0.59561  Biso   1.000  O
  O3       1.0000 0.18130  0.88040  0.95867  Biso   1.000  O
  O4       1.0000 0.23110  0.86820  0.90176  Biso   1.000  O
  O5       1.0000 0.87530  0.36247  0.92858  Biso   1.000  O
  O6       1.0000 0.92060  0.25960  0.92213  Biso   1.000  O
  O7       1.0000 0.62170  0.26140  0.94642  Biso   1.000  O
  O8       1.0000 0.67158  0.35658  0.97240  Biso   1.000  O
  O9       1.0000 0.12460  0.74940  0.97237  Biso   1.000  O
  O10      1.0000 0.17523  0.64882  0.98681  Biso   1.000  O
  O11      1.0000 0.42330  0.76030  0.94150  Biso   1.000  O
  O12      1.0000 0.37750  0.65680  0.94320  Biso   1.000  O
  O13      1.0000 0.71850  0.35620  0.88720  Biso   1.000  O
  O14      1.0000 0.77220  0.26850  0.86071  Biso   1.000  O
  O15      1.0000 0.25750  0.63600  0.59935  Biso   1.000  O
  O16      1.0000 0.28250  0.62250  0.53490  Biso   1.000  O
  O17      1.0000 0.77056  0.25428  0.94941  Biso   1.000  O
  O18      1.0000 0.71301  0.23824  0.02719  Biso   1.000  O
  C1       1.0000 0.92770  0.10920  0.87493  Biso   1.000  C
  H1       1.0000 0.94330  0.10350  0.90290  Biso   1.000  H
  C2       1.0000 0.96110  0.07150  0.84730  Biso   1.000  C
  C3       1.0000 0.93950  0.08330  0.80510  Biso   1.000  C
  H2       1.0000 0.96110  0.06010  0.78570  Biso   1.000  H
  C4       1.0000 0.88570  0.12990  0.79230  Biso   1.000  C
  C5       1.0000 0.85460  0.16200  0.82315  Biso   1.000  C
  H3       1.0000 0.81710  0.19180  0.81500  Biso   1.000  H
  C6       1.0000 0.01770  0.02270  0.86380  Biso   1.000  C
  C7       1.0000 0.01050  0.98940  0.89990  Biso   1.000  C
  H4       1.0000 0.96960  0.99600  0.91230  Biso   1.000  H
  C8       1.0000 0.06390  0.94640  0.91750  Biso   1.000  C
  H5       1.0000 0.05850  0.92480  0.94190  Biso   1.000  H
  C9       1.0000 0.12530  0.93480  0.89958  Biso   1.000  C
  C10      1.0000 0.12960  0.96460  0.86180  Biso   1.000  C
  H6       1.0000 0.16850  0.95520  0.84820  Biso   1.000  H
  C11      1.0000 0.07660  0.00790  0.84440  Biso   1.000  C
  H7       1.0000 0.08040  0.02760  0.81920  Biso   1.000  H
  C12      1.0000 0.18420  0.89010  0.92118  Biso   1.000  C
  C13      1.0000 0.85980  0.14650  0.74870  Biso   1.000  C
  C14      1.0000 0.86130  0.10550  0.71710  Biso   1.000  C
  H8       1.0000 0.88330  0.06420  0.72210  Biso   1.000  H
  C15      1.0000 0.83180  0.12110  0.67740  Biso   1.000  C
  H9       1.0000 0.83410  0.09000  0.65660  Biso   1.000  H
  C16      1.0000 0.79990  0.17980  0.66773  Biso   1.000  C
  C17      1.0000 0.80960  0.22840  0.69850  Biso   1.000  C
  H10      1.0000 0.79610  0.27220  0.69210  Biso   1.000  H
  C18      1.0000 0.83860  0.21240  0.73790  Biso   1.000  C
  H11      1.0000 0.84440  0.24550  0.75790  Biso   1.000  H
  C19      1.0000 0.76450  0.19830  0.62504  Biso   1.000  C
  C20      1.0000 0.33320  0.51700  0.94827  Biso   1.000  C
  H12      1.0000 0.37630  0.54070  0.95130  Biso   1.000  H
  C21      1.0000 0.33610  0.44850  0.94200  Biso   1.000  C
  C22      1.0000 0.27060  0.41400  0.93610  Biso   1.000  C
  H13      1.0000 0.26990  0.36830  0.93140  Biso   1.000  H
  C23      1.0000 0.20620  0.44830  0.93726  Biso   1.000  C
  C24      1.0000 0.21070  0.51690  0.94463  Biso   1.000  C
  H14      1.0000 0.16810  0.54030  0.94570  Biso   1.000  H
  C25      1.0000 0.40770  0.41470  0.94290  Biso   1.000  C
  C26      1.0000 0.46860  0.44600  0.96290  Biso   1.000  C
  H15      1.0000 0.46440  0.48790  0.97440  Biso   1.000  H
  C27      1.0000 0.53630  0.41600  0.96610  Biso   1.000  C
  H16      1.0000 0.57650  0.43850  0.97930  Biso   1.000  H
  C28      1.0000 0.54470  0.35370  0.94993  Biso   1.000  C
  C29      1.0000 0.48440  0.32200  0.93050  Biso   1.000  C
  H17      1.0000 0.48860  0.27980  0.91940  Biso   1.000  H
  C30      1.0000 0.41690  0.35190  0.92710  Biso   1.000  C
  H18      1.0000 0.37690  0.32910  0.91380  Biso   1.000  H
  C31      1.0000 0.61730  0.32080  0.95602  Biso   1.000  C
  C32      1.0000 0.13520  0.41390  0.93210  Biso   1.000  C
  C33      1.0000 0.12830  0.34880  0.94500  Biso   1.000  C
  H19      1.0000 0.16930  0.32510  0.95600  Biso   1.000  H
  C34      1.0000 0.06110  0.31830  0.94170  Biso   1.000  C
  H20      1.0000 0.05760  0.27440  0.95020  Biso   1.000  H
  C35      1.0000 0.99920  0.35270  0.92575  Biso   1.000  C
  C36      1.0000 0.00630  0.41710  0.91160  Biso   1.000  C
  H21      1.0000 0.96550  0.44040  0.89990  Biso   1.000  H
  C37      1.0000 0.07310  0.44720  0.91450  Biso   1.000  C
  H22      1.0000 0.07660  0.49030  0.90460  Biso   1.000  H
  C38      1.0000 0.92580  0.32240  0.92570  Biso   1.000  C
  C39      1.0000 0.70890  0.49890  0.94464  Biso   1.000  C
  H23      1.0000 0.66590  0.47550  0.94340  Biso   1.000  H
  C40      1.0000 0.70590  0.56730  0.94450  Biso   1.000  C
  C41      1.0000 0.77200  0.60200  0.94760  Biso   1.000  C
  H24      1.0000 0.77240  0.64840  0.94830  Biso   1.000  H
  C42      1.0000 0.83650  0.56700  0.94945  Biso   1.000  C
  C43      1.0000 0.83180  0.49770  0.94784  Biso   1.000  C
  H25      1.0000 0.87410  0.47350  0.94780  Biso   1.000  H
  C44      1.0000 0.90880  0.60010  0.95380  Biso   1.000  C
  C45      1.0000 0.97040  0.56200  0.96650  Biso   1.000  C
  H26      1.0000 0.96560  0.51650  0.97050  Biso   1.000  H
  C46      1.0000 0.03790  0.59000  0.97310  Biso   1.000  C
  H27      1.0000 0.07780  0.56340  0.98200  Biso   1.000  H
  C47      1.0000 0.04730  0.65670  0.96673  Biso   1.000  C
  C48      1.0000 0.98720  0.69510  0.95330  Biso   1.000  C
  H28      1.0000 0.99270  0.74030  0.94830  Biso   1.000  H
  C49      1.0000 0.91950  0.66740  0.94720  Biso   1.000  C
  H29      1.0000 0.87980  0.69440  0.93850  Biso   1.000  H
  C50      1.0000 0.12070  0.68750  0.97534  Biso   1.000  C
  C51      1.0000 0.63580  0.60310  0.94220  Biso   1.000  C
  C52      1.0000 0.57350  0.57480  0.92150  Biso   1.000  C
  H30      1.0000 0.57600  0.53450  0.90790  Biso   1.000  H
  C53      1.0000 0.50660  0.60630  0.92090  Biso   1.000  C
  H31      1.0000 0.46530  0.58630  0.90700  Biso   1.000  H
  C54      1.0000 0.50090  0.66680  0.94044  Biso   1.000  C
  C55      1.0000 0.56410  0.69570  0.96070  Biso   1.000  C
  H32      1.0000 0.56200  0.73690  0.97350  Biso   1.000  H
  C56      1.0000 0.63000  0.66360  0.96210  Biso   1.000  C
  H33      1.0000 0.67120  0.68300  0.97660  Biso   1.000  H
  C57      1.0000 0.42800  0.69740  0.94158  Biso   1.000  C
  C58      1.0000 0.64530  0.35500  0.66010  Biso   1.000  C
  H34      1.0000 0.68630  0.32930  0.66830  Biso   1.000  H
  C59      1.0000 0.61060  0.38380  0.69030  Biso   1.000  C
  C60      1.0000 0.55250  0.42500  0.67800  Biso   1.000  C
  H35      1.0000 0.52950  0.44630  0.69760  Biso   1.000  H
  C61      1.0000 0.52790  0.43510  0.63570  Biso   1.000  C
  C62      1.0000 0.56480  0.40080  0.60863  Biso   1.000  C
  H36      1.0000 0.54810  0.40470  0.58060  Biso   1.000  H
  C63      1.0000 0.63810  0.36940  0.73420  Biso   1.000  C
  C64      1.0000 0.66100  0.30310  0.74460  Biso   1.000  C
  H37      1.0000 0.65660  0.27040  0.72440  Biso   1.000  H
  C65      1.0000 0.68980  0.28680  0.78500  Biso   1.000  C
  H38      1.0000 0.70480  0.24350  0.79170  Biso   1.000  H
  C66      1.0000 0.69600  0.33670  0.81575  Biso   1.000  C
  C67      1.0000 0.66160  0.39490  0.80600  Biso   1.000  C
  H39      1.0000 0.65720  0.42550  0.82670  Biso   1.000  H
  C68      1.0000 0.63260  0.41020  0.76570  Biso   1.000  C
  H40      1.0000 0.60840  0.45040  0.76040  Biso   1.000  H
  C69      1.0000 0.73180  0.31830  0.85816  Biso   1.000  C
  C70      1.0000 0.46670  0.47890  0.62031  Biso   1.000  C
  C71      1.0000 0.43000  0.47260  0.57990  Biso   1.000  C
  H41      1.0000 0.44340  0.43880  0.56330  Biso   1.000  H
  C72      1.0000 0.37450  0.51510  0.56430  Biso   1.000  C
  H42      1.0000 0.35170  0.51030  0.53730  Biso   1.000  H
  C73      1.0000 0.38490  0.56800  0.62960  Biso   1.000  C
  H43      1.0000 0.36850  0.59850  0.64740  Biso   1.000  H
  C74      1.0000 0.44130  0.52540  0.64440  Biso   1.000  C
  H44      1.0000 0.46240  0.52900  0.67170  Biso   1.000  H
  C75      1.0000 0.35300  0.56550  0.58930  Biso   1.000  C
  C76      1.0000 0.29250  0.61150  0.57314  Biso   1.000  C
  C77      1.0000 0.46870  0.51260  0.58330  Biso   1.000  C
  H45      1.0000 0.50780  0.50690  0.56930  Biso   1.000  H
  C78      1.0000 0.41090  0.55560  0.56690  Biso   1.000  C
  H46      1.0000 0.41140  0.57690  0.54180  Biso   1.000  H
  C79      1.0000 0.35530  0.53300  0.62810  Biso   1.000  C
  H47      1.0000 0.31840  0.54050  0.64370  Biso   1.000  H
  C80      1.0000 0.41140  0.49040  0.64310  Biso   1.000  C
  H48      1.0000 0.41190  0.46960  0.66840  Biso   1.000  H
  Co6      1.0000 0.20888  0.69191  0.50082  Biso   1.000  Co
  Co7      1.0000 0.27583  0.84000  0.46161  Biso   1.000  Co
  Co8      1.0000 0.22668  0.85522  0.55357  Biso   1.000  Co
  Co9      1.0000 0.17653  0.70818  0.59271  Biso   1.000  Co
  Co10     1.0000 0.32239  0.68940  0.42407  Biso   1.000  Co
  N5       1.0000 0.12520  0.65290  0.63652  Biso   1.000  N
  N6       1.0000 0.72730  0.05070  0.54977  Biso   1.000  N
  N7       1.0000 0.23010  0.96390  0.55364  Biso   1.000  N
  N8       1.0000 0.37740  0.86250  0.88004  Biso   1.000  N
  O19      1.0000 0.28130  0.74370  0.87751  Biso   1.000  O
  O20      1.0000 0.21620  0.66590  0.90439  Biso   1.000  O
  O21      1.0000 0.81870  0.38040  0.54133  Biso   1.000  O
  O22      1.0000 0.76890  0.36820  0.59824  Biso   1.000  O
  O23      1.0000 0.12470  0.86247  0.57142  Biso   1.000  O
  O24      1.0000 0.07940  0.75960  0.57787  Biso   1.000  O
  O25      1.0000 0.37830  0.76140  0.55358  Biso   1.000  O
  O26      1.0000 0.32842  0.85658  0.52760  Biso   1.000  O
  O27      1.0000 0.87540  0.24940  0.52763  Biso   1.000  O
  O28      1.0000 0.82477  0.14882  0.51319  Biso   1.000  O
  O29      1.0000 0.57670  0.26030  0.55850  Biso   1.000  O
  O30      1.0000 0.62250  0.15680  0.55680  Biso   1.000  O
  O31      1.0000 0.28150  0.85620  0.61280  Biso   1.000  O
  O32      1.0000 0.22780  0.76850  0.63929  Biso   1.000  O
  O33      1.0000 0.74250  0.13600  0.90065  Biso   1.000  O
  O34      1.0000 0.71750  0.12250  0.96510  Biso   1.000  O
  O35      1.0000 0.22944  0.75428  0.55059  Biso   1.000  O
  O36      1.0000 0.28699  0.73824  0.47281  Biso   1.000  O
  C81      1.0000 0.07230  0.60920  0.62507  Biso   1.000  C
  H49      1.0000 0.05670  0.60350  0.59710  Biso   1.000  H
  C82      1.0000 0.03890  0.57150  0.65270  Biso   1.000  C
  C83      1.0000 0.06050  0.58330  0.69490  Biso   1.000  C
  H50      1.0000 0.03890  0.56010  0.71430  Biso   1.000  H
  C84      1.0000 0.11430  0.62990  0.70770  Biso   1.000  C
  C85      1.0000 0.14540  0.66200  0.67685  Biso   1.000  C
  H51      1.0000 0.18290  0.69180  0.68500  Biso   1.000  H
  C86      1.0000 0.98230  0.52270  0.63620  Biso   1.000  C
  C87      1.0000 0.98950  0.48940  0.60010  Biso   1.000  C
  H52      1.0000 0.03040  0.49600  0.58770  Biso   1.000  H
  C88      1.0000 0.93610  0.44640  0.58250  Biso   1.000  C
  H53      1.0000 0.94150  0.42480  0.55810  Biso   1.000  H
  C89      1.0000 0.87470  0.43480  0.60042  Biso   1.000  C
  C90      1.0000 0.87040  0.46460  0.63820  Biso   1.000  C
  H54      1.0000 0.83150  0.45520  0.65180  Biso   1.000  H
  C91      1.0000 0.92340  0.50790  0.65560  Biso   1.000  C
  H55      1.0000 0.91960  0.52760  0.68080  Biso   1.000  H
  C92      1.0000 0.81580  0.39010  0.57882  Biso   1.000  C
  C93      1.0000 0.14020  0.64650  0.75130  Biso   1.000  C
  C94      1.0000 0.13870  0.60550  0.78290  Biso   1.000  C
  H56      1.0000 0.11670  0.56420  0.77790  Biso   1.000  H
  C95      1.0000 0.16820  0.62110  0.82260  Biso   1.000  C
  H57      1.0000 0.16590  0.59000  0.84340  Biso   1.000  H
  C96      1.0000 0.20010  0.67980  0.83227  Biso   1.000  C
  C97      1.0000 0.19040  0.72840  0.80150  Biso   1.000  C
  H58      1.0000 0.20390  0.77220  0.80790  Biso   1.000  H
  C98      1.0000 0.16140  0.71240  0.76210  Biso   1.000  C
  H59      1.0000 0.15560  0.74550  0.74210  Biso   1.000  H
  C99      1.0000 0.23550  0.69830  0.87496  Biso   1.000  C
  C100     1.0000 0.66680  0.01700  0.55173  Biso   1.000  C
  H60      1.0000 0.62370  0.04070  0.54870  Biso   1.000  H
  C101     1.0000 0.66390  0.94850  0.55800  Biso   1.000  C
  C102     1.0000 0.72940  0.91400  0.56390  Biso   1.000  C
  H61      1.0000 0.73010  0.86830  0.56860  Biso   1.000  H
  C103     1.0000 0.79380  0.94830  0.56274  Biso   1.000  C
  C104     1.0000 0.78930  0.01690  0.55537  Biso   1.000  C
  H62      1.0000 0.83190  0.04030  0.55430  Biso   1.000  H
  C105     1.0000 0.59230  0.91470  0.55710  Biso   1.000  C
  C106     1.0000 0.53140  0.94600  0.53710  Biso   1.000  C
  H63      1.0000 0.53560  0.98790  0.52560  Biso   1.000  H
  C107     1.0000 0.46370  0.91600  0.53390  Biso   1.000  C
  H64      1.0000 0.42350  0.93850  0.52070  Biso   1.000  H
  C108     1.0000 0.45530  0.85370  0.55007  Biso   1.000  C
  C109     1.0000 0.51560  0.82200  0.56950  Biso   1.000  C
  H65      1.0000 0.51140  0.77980  0.58060  Biso   1.000  H
  C110     1.0000 0.58310  0.85190  0.57290  Biso   1.000  C
  H66      1.0000 0.62310  0.82910  0.58620  Biso   1.000  H
  C111     1.0000 0.38270  0.82080  0.54398  Biso   1.000  C
  C112     1.0000 0.86480  0.91390  0.56790  Biso   1.000  C
  C113     1.0000 0.87170  0.84880  0.55500  Biso   1.000  C
  H67      1.0000 0.83070  0.82510  0.54400  Biso   1.000  H
  C114     1.0000 0.93890  0.81830  0.55830  Biso   1.000  C
  H68      1.0000 0.94240  0.77440  0.54980  Biso   1.000  H
  C115     1.0000 0.00080  0.85270  0.57425  Biso   1.000  C
  C116     1.0000 0.99370  0.91710  0.58840  Biso   1.000  C
  H69      1.0000 0.03450  0.94040  0.60010  Biso   1.000  H
  C117     1.0000 0.92690  0.94720  0.58550  Biso   1.000  C
  H70      1.0000 0.92340  0.99030  0.59540  Biso   1.000  H
  C118     1.0000 0.07420  0.82240  0.57430  Biso   1.000  C
  C119     1.0000 0.29110  0.99890  0.55536  Biso   1.000  C
  H71      1.0000 0.33410  0.97550  0.55660  Biso   1.000  H
  C120     1.0000 0.29410  0.06730  0.55550  Biso   1.000  C
  C121     1.0000 0.22800  0.10200  0.55240  Biso   1.000  C
  H72      1.0000 0.22760  0.14840  0.55170  Biso   1.000  H
  C122     1.0000 0.16350  0.06700  0.55055  Biso   1.000  C
  C123     1.0000 0.16820  0.99770  0.55216  Biso   1.000  C
  H73      1.0000 0.12590  0.97350  0.55220  Biso   1.000  H
  C124     1.0000 0.09120  0.10010  0.54620  Biso   1.000  C
  C125     1.0000 0.02960  0.06200  0.53350  Biso   1.000  C
  H74      1.0000 0.03440  0.01650  0.52950  Biso   1.000  H
  C126     1.0000 0.96210  0.09000  0.52690  Biso   1.000  C
  H75      1.0000 0.92220  0.06340  0.51800  Biso   1.000  H
  C127     1.0000 0.95270  0.15670  0.53327  Biso   1.000  C
  C128     1.0000 0.01280  0.19510  0.54670  Biso   1.000  C
  H76      1.0000 0.00730  0.24030  0.55170  Biso   1.000  H
  C129     1.0000 0.08050  0.16740  0.55280  Biso   1.000  C
  H77      1.0000 0.12020  0.19440  0.56150  Biso   1.000  H
  C130     1.0000 0.87930  0.18750  0.52466  Biso   1.000  C
  C131     1.0000 0.36420  0.10310  0.55780  Biso   1.000  C
  C132     1.0000 0.42650  0.07480  0.57850  Biso   1.000  C
  H78      1.0000 0.42400  0.03450  0.59210  Biso   1.000  H
  C133     1.0000 0.49340  0.10630  0.57910  Biso   1.000  C
  H79      1.0000 0.53470  0.08630  0.59300  Biso   1.000  H
  C134     1.0000 0.49910  0.16680  0.55956  Biso   1.000  C
  C135     1.0000 0.43590  0.19570  0.53930  Biso   1.000  C
  H80      1.0000 0.43800  0.23690  0.52650  Biso   1.000  H
  C136     1.0000 0.37000  0.16360  0.53790  Biso   1.000  C
  H81      1.0000 0.32880  0.18300  0.52340  Biso   1.000  H
  C137     1.0000 0.57200  0.19740  0.55842  Biso   1.000  C
  C138     1.0000 0.35470  0.85500  0.83990  Biso   1.000  C
  H82      1.0000 0.31370  0.82930  0.83170  Biso   1.000  H
  C139     1.0000 0.38940  0.88380  0.80970  Biso   1.000  C
  C140     1.0000 0.44750  0.92500  0.82200  Biso   1.000  C
  H83      1.0000 0.47050  0.94630  0.80240  Biso   1.000  H
  C141     1.0000 0.47210  0.93510  0.86430  Biso   1.000  C
  C142     1.0000 0.43520  0.90080  0.89137  Biso   1.000  C
  H84      1.0000 0.45190  0.90470  0.91940  Biso   1.000  H
  C143     1.0000 0.36190  0.86940  0.76580  Biso   1.000  C
  C144     1.0000 0.33900  0.80310  0.75540  Biso   1.000  C
  H85      1.0000 0.34340  0.77040  0.77560  Biso   1.000  H
  C145     1.0000 0.31020  0.78680  0.71500  Biso   1.000  C
  H86      1.0000 0.29520  0.74350  0.70830  Biso   1.000  H
  C146     1.0000 0.30400  0.83670  0.68425  Biso   1.000  C
  C147     1.0000 0.33840  0.89490  0.69400  Biso   1.000  C
  H87      1.0000 0.34280  0.92550  0.67330  Biso   1.000  H
  C148     1.0000 0.36740  0.91020  0.73430  Biso   1.000  C
  H88      1.0000 0.39160  0.95040  0.73960  Biso   1.000  H
  C149     1.0000 0.26820  0.81830  0.64184  Biso   1.000  C
  C150     1.0000 0.53330  0.97890  0.87969  Biso   1.000  C
  C151     1.0000 0.57000  0.97260  0.92010  Biso   1.000  C
  H89      1.0000 0.55660  0.93880  0.93670  Biso   1.000  H
  C152     1.0000 0.62550  0.01510  0.93570  Biso   1.000  C
  H90      1.0000 0.64830  0.01030  0.96270  Biso   1.000  H
  C153     1.0000 0.61510  0.06800  0.87040  Biso   1.000  C
  H91      1.0000 0.63150  0.09850  0.85260  Biso   1.000  H
  C154     1.0000 0.55870  0.02540  0.85560  Biso   1.000  C
  H92      1.0000 0.53760  0.02900  0.82830  Biso   1.000  H
  C155     1.0000 0.64700  0.06550  0.91070  Biso   1.000  C
  C156     1.0000 0.70750  0.11150  0.92686  Biso   1.000  C
  C157     1.0000 0.53130  0.01260  0.91670  Biso   1.000  C
  H93      1.0000 0.49220  0.00690  0.93070  Biso   1.000  H
  C158     1.0000 0.58910  0.05560  0.93310  Biso   1.000  C
  H94      1.0000 0.58860  0.07690  0.95820  Biso   1.000  H
  C159     1.0000 0.64470  0.03300  0.87190  Biso   1.000  C
  H95      1.0000 0.68160  0.04050  0.85630  Biso   1.000  H
  C160     1.0000 0.58860  0.99040  0.85690  Biso   1.000  C
  H96      1.0000 0.58810  0.96960  0.83160  Biso   1.000  H
  Co11     1.0000 0.20888  0.80809  0.00082  Biso   1.000  Co
  Co12     1.0000 0.27583  0.66000  0.96161  Biso   1.000  Co
  Co13     1.0000 0.22668  0.64478  0.05357  Biso   1.000  Co
  Co14     1.0000 0.17653  0.79182  0.09271  Biso   1.000  Co
  Co15     1.0000 0.32239  0.81060  0.92407  Biso   1.000  Co
  N9       1.0000 0.12520  0.84710  0.13652  Biso   1.000  N
  N10      1.0000 0.72730  0.44930  0.04977  Biso   1.000  N
  N11      1.0000 0.23010  0.53610  0.05364  Biso   1.000  N
  N12      1.0000 0.37740  0.63750  0.38004  Biso   1.000  N
  O37      1.0000 0.28130  0.75630  0.37751  Biso   1.000  O
  O38      1.0000 0.21620  0.83410  0.40439  Biso   1.000  O
  O39      1.0000 0.81870  0.11960  0.04133  Biso   1.000  O
  O40      1.0000 0.76890  0.13180  0.09824  Biso   1.000  O
  O41      1.0000 0.12470  0.63753  0.07142  Biso   1.000  O
  O42      1.0000 0.07940  0.74040  0.07787  Biso   1.000  O
  O43      1.0000 0.37830  0.73860  0.05358  Biso   1.000  O
  O44      1.0000 0.32842  0.64342  0.02760  Biso   1.000  O
  O45      1.0000 0.87540  0.25060  0.02763  Biso   1.000  O
  O46      1.0000 0.82477  0.35118  0.01319  Biso   1.000  O
  O47      1.0000 0.57670  0.23970  0.05850  Biso   1.000  O
  O48      1.0000 0.62250  0.34320  0.05680  Biso   1.000  O
  O49      1.0000 0.28150  0.64380  0.11280  Biso   1.000  O
  O50      1.0000 0.22780  0.73150  0.13929  Biso   1.000  O
  O51      1.0000 0.74250  0.36400  0.40065  Biso   1.000  O
  O52      1.0000 0.71750  0.37750  0.46510  Biso   1.000  O
  O53      1.0000 0.22944  0.74572  0.05059  Biso   1.000  O
  O54      1.0000 0.28699  0.76176  0.97281  Biso   1.000  O
  C161     1.0000 0.07230  0.89080  0.12507  Biso   1.000  C
  H97      1.0000 0.05670  0.89650  0.09710  Biso   1.000  H
  C162     1.0000 0.03890  0.92850  0.15270  Biso   1.000  C
  C163     1.0000 0.06050  0.91670  0.19490  Biso   1.000  C
  H98      1.0000 0.03890  0.93990  0.21430  Biso   1.000  H
  C164     1.0000 0.11430  0.87010  0.20770  Biso   1.000  C
  C165     1.0000 0.14540  0.83800  0.17685  Biso   1.000  C
  H99      1.0000 0.18290  0.80820  0.18500  Biso   1.000  H
  C166     1.0000 0.98230  0.97730  0.13620  Biso   1.000  C
  C167     1.0000 0.98950  0.01060  0.10010  Biso   1.000  C
  H100     1.0000 0.03040  0.00400  0.08770  Biso   1.000  H
  C168     1.0000 0.93610  0.05360  0.08250  Biso   1.000  C
  H101     1.0000 0.94150  0.07520  0.05810  Biso   1.000  H
  C169     1.0000 0.87470  0.06520  0.10042  Biso   1.000  C
  C170     1.0000 0.87040  0.03540  0.13820  Biso   1.000  C
  H102     1.0000 0.83150  0.04480  0.15180  Biso   1.000  H
  C171     1.0000 0.92340  0.99210  0.15560  Biso   1.000  C
  H103     1.0000 0.91960  0.97240  0.18080  Biso   1.000  H
  C172     1.0000 0.81580  0.10990  0.07882  Biso   1.000  C
  C173     1.0000 0.14020  0.85350  0.25130  Biso   1.000  C
  C174     1.0000 0.13870  0.89450  0.28290  Biso   1.000  C
  H104     1.0000 0.11670  0.93580  0.27790  Biso   1.000  H
  C175     1.0000 0.16820  0.87890  0.32260  Biso   1.000  C
  H105     1.0000 0.16590  0.91000  0.34340  Biso   1.000  H
  C176     1.0000 0.20010  0.82020  0.33227  Biso   1.000  C
  C177     1.0000 0.19040  0.77160  0.30150  Biso   1.000  C
  H106     1.0000 0.20390  0.72780  0.30790  Biso   1.000  H
  C178     1.0000 0.16140  0.78760  0.26210  Biso   1.000  C
  H107     1.0000 0.15560  0.75450  0.24210  Biso   1.000  H
  C179     1.0000 0.23550  0.80170  0.37496  Biso   1.000  C
  C180     1.0000 0.66680  0.48300  0.05173  Biso   1.000  C
  H108     1.0000 0.62370  0.45930  0.04870  Biso   1.000  H
  C181     1.0000 0.66390  0.55150  0.05800  Biso   1.000  C
  C182     1.0000 0.72940  0.58600  0.06390  Biso   1.000  C
  H109     1.0000 0.73010  0.63170  0.06860  Biso   1.000  H
  C183     1.0000 0.79380  0.55170  0.06274  Biso   1.000  C
  C184     1.0000 0.78930  0.48310  0.05537  Biso   1.000  C
  H110     1.0000 0.83190  0.45970  0.05430  Biso   1.000  H
  C185     1.0000 0.59230  0.58530  0.05710  Biso   1.000  C
  C186     1.0000 0.53140  0.55400  0.03710  Biso   1.000  C
  H111     1.0000 0.53560  0.51210  0.02560  Biso   1.000  H
  C187     1.0000 0.46370  0.58400  0.03390  Biso   1.000  C
  H112     1.0000 0.42350  0.56150  0.02070  Biso   1.000  H
  C188     1.0000 0.45530  0.64630  0.05007  Biso   1.000  C
  C189     1.0000 0.51560  0.67800  0.06950  Biso   1.000  C
  H113     1.0000 0.51140  0.72020  0.08060  Biso   1.000  H
  C190     1.0000 0.58310  0.64810  0.07290  Biso   1.000  C
  H114     1.0000 0.62310  0.67090  0.08620  Biso   1.000  H
  C191     1.0000 0.38270  0.67920  0.04398  Biso   1.000  C
  C192     1.0000 0.86480  0.58610  0.06790  Biso   1.000  C
  C193     1.0000 0.87170  0.65120  0.05500  Biso   1.000  C
  H115     1.0000 0.83070  0.67490  0.04400  Biso   1.000  H
  C194     1.0000 0.93890  0.68170  0.05830  Biso   1.000  C
  H116     1.0000 0.94240  0.72560  0.04980  Biso   1.000  H
  C195     1.0000 0.00080  0.64730  0.07425  Biso   1.000  C
  C196     1.0000 0.99370  0.58290  0.08840  Biso   1.000  C
  H117     1.0000 0.03450  0.55960  0.10010  Biso   1.000  H
  C197     1.0000 0.92690  0.55280  0.08550  Biso   1.000  C
  H118     1.0000 0.92340  0.50970  0.09540  Biso   1.000  H
  C198     1.0000 0.07420  0.67760  0.07430  Biso   1.000  C
  C199     1.0000 0.29110  0.50110  0.05536  Biso   1.000  C
  H119     1.0000 0.33410  0.52450  0.05660  Biso   1.000  H
  C200     1.0000 0.29410  0.43270  0.05550  Biso   1.000  C
  C201     1.0000 0.22800  0.39800  0.05240  Biso   1.000  C
  H120     1.0000 0.22760  0.35160  0.05170  Biso   1.000  H
  C202     1.0000 0.16350  0.43300  0.05055  Biso   1.000  C
  C203     1.0000 0.16820  0.50230  0.05216  Biso   1.000  C
  H121     1.0000 0.12590  0.52650  0.05220  Biso   1.000  H
  C204     1.0000 0.09120  0.39990  0.04620  Biso   1.000  C
  C205     1.0000 0.02960  0.43800  0.03350  Biso   1.000  C
  H122     1.0000 0.03440  0.48350  0.02950  Biso   1.000  H
  C206     1.0000 0.96210  0.41000  0.02690  Biso   1.000  C
  H123     1.0000 0.92220  0.43660  0.01800  Biso   1.000  H
  C207     1.0000 0.95270  0.34330  0.03327  Biso   1.000  C
  C208     1.0000 0.01280  0.30490  0.04670  Biso   1.000  C
  H124     1.0000 0.00730  0.25970  0.05170  Biso   1.000  H
  C209     1.0000 0.08050  0.33260  0.05280  Biso   1.000  C
  H125     1.0000 0.12020  0.30560  0.06150  Biso   1.000  H
  C210     1.0000 0.87930  0.31250  0.02466  Biso   1.000  C
  C211     1.0000 0.36420  0.39690  0.05780  Biso   1.000  C
  C212     1.0000 0.42650  0.42520  0.07850  Biso   1.000  C
  H126     1.0000 0.42400  0.46550  0.09210  Biso   1.000  H
  C213     1.0000 0.49340  0.39370  0.07910  Biso   1.000  C
  H127     1.0000 0.53470  0.41370  0.09300  Biso   1.000  H
  C214     1.0000 0.49910  0.33320  0.05956  Biso   1.000  C
  C215     1.0000 0.43590  0.30430  0.03930  Biso   1.000  C
  H128     1.0000 0.43800  0.26310  0.02650  Biso   1.000  H
  C216     1.0000 0.37000  0.33640  0.03790  Biso   1.000  C
  H129     1.0000 0.32880  0.31700  0.02340  Biso   1.000  H
  C217     1.0000 0.57200  0.30260  0.05842  Biso   1.000  C
  C218     1.0000 0.35470  0.64500  0.33990  Biso   1.000  C
  H130     1.0000 0.31370  0.67070  0.33170  Biso   1.000  H
  C219     1.0000 0.38940  0.61620  0.30970  Biso   1.000  C
  C220     1.0000 0.44750  0.57500  0.32200  Biso   1.000  C
  H131     1.0000 0.47050  0.55370  0.30240  Biso   1.000  H
  C221     1.0000 0.47210  0.56490  0.36430  Biso   1.000  C
  C222     1.0000 0.43520  0.59920  0.39137  Biso   1.000  C
  H132     1.0000 0.45190  0.59530  0.41940  Biso   1.000  H
  C223     1.0000 0.36190  0.63060  0.26580  Biso   1.000  C
  C224     1.0000 0.33900  0.69690  0.25540  Biso   1.000  C
  H133     1.0000 0.34340  0.72960  0.27560  Biso   1.000  H
  C225     1.0000 0.31020  0.71320  0.21500  Biso   1.000  C
  H134     1.0000 0.29520  0.75650  0.20830  Biso   1.000  H
  C226     1.0000 0.30400  0.66330  0.18425  Biso   1.000  C
  C227     1.0000 0.33840  0.60510  0.19400  Biso   1.000  C
  H135     1.0000 0.34280  0.57450  0.17330  Biso   1.000  H
  C228     1.0000 0.36740  0.58980  0.23430  Biso   1.000  C
  H136     1.0000 0.39160  0.54960  0.23960  Biso   1.000  H
  C229     1.0000 0.26820  0.68170  0.14184  Biso   1.000  C
  C230     1.0000 0.53330  0.52110  0.37969  Biso   1.000  C
  C231     1.0000 0.57000  0.52740  0.42010  Biso   1.000  C
  H137     1.0000 0.55660  0.56120  0.43670  Biso   1.000  H
  C232     1.0000 0.62550  0.48490  0.43570  Biso   1.000  C
  H138     1.0000 0.64830  0.48970  0.46270  Biso   1.000  H
  C233     1.0000 0.61510  0.43200  0.37040  Biso   1.000  C
  H139     1.0000 0.63150  0.40150  0.35260  Biso   1.000  H
  C234     1.0000 0.55870  0.47460  0.35560  Biso   1.000  C
  H140     1.0000 0.53760  0.47100  0.32830  Biso   1.000  H
  C235     1.0000 0.64700  0.43450  0.41070  Biso   1.000  C
  C236     1.0000 0.70750  0.38850  0.42686  Biso   1.000  C
  C237     1.0000 0.53130  0.48740  0.41670  Biso   1.000  C
  H141     1.0000 0.49220  0.49310  0.43070  Biso   1.000  H
  C238     1.0000 0.58910  0.44440  0.43310  Biso   1.000  C
  H142     1.0000 0.58860  0.42310  0.45820  Biso   1.000  H
  C239     1.0000 0.64470  0.46700  0.37190  Biso   1.000  C
  H143     1.0000 0.68160  0.45950  0.35630  Biso   1.000  H
  C240     1.0000 0.58860  0.50960  0.35690  Biso   1.000  C
  H144     1.0000 0.58810  0.53040  0.33160  Biso   1.000  H
  Co16     1.0000 0.79112  0.30809  0.49918  Biso   1.000  Co
  Co17     1.0000 0.72417  0.16000  0.53839  Biso   1.000  Co
  Co18     1.0000 0.77332  0.14478  0.44643  Biso   1.000  Co
  Co19     1.0000 0.82347  0.29182  0.40729  Biso   1.000  Co
  Co20     1.0000 0.67761  0.31060  0.57593  Biso   1.000  Co
  N13      1.0000 0.87480  0.34710  0.36348  Biso   1.000  N
  N14      1.0000 0.27270  0.94930  0.45023  Biso   1.000  N
  N15      1.0000 0.76990  0.03610  0.44636  Biso   1.000  N
  N16      1.0000 0.62260  0.13750  0.11996  Biso   1.000  N
  O55      1.0000 0.71870  0.25630  0.12249  Biso   1.000  O
  O56      1.0000 0.78380  0.33410  0.09561  Biso   1.000  O
  O57      1.0000 0.18130  0.61960  0.45867  Biso   1.000  O
  O58      1.0000 0.23110  0.63180  0.40176  Biso   1.000  O
  O59      1.0000 0.87530  0.13753  0.42858  Biso   1.000  O
  O60      1.0000 0.92060  0.24040  0.42213  Biso   1.000  O
  O61      1.0000 0.62170  0.23860  0.44642  Biso   1.000  O
  O62      1.0000 0.67158  0.14342  0.47240  Biso   1.000  O
  O63      1.0000 0.12460  0.75060  0.47237  Biso   1.000  O
  O64      1.0000 0.17523  0.85118  0.48681  Biso   1.000  O
  O65      1.0000 0.42330  0.73970  0.44150  Biso   1.000  O
  O66      1.0000 0.37750  0.84320  0.44320  Biso   1.000  O
  O67      1.0000 0.71850  0.14380  0.38720  Biso   1.000  O
  O68      1.0000 0.77220  0.23150  0.36071  Biso   1.000  O
  O69      1.0000 0.25750  0.86400  0.09935  Biso   1.000  O
  O70      1.0000 0.28250  0.87750  0.03490  Biso   1.000  O
  O71      1.0000 0.77056  0.24572  0.44941  Biso   1.000  O
  O72      1.0000 0.71301  0.26176  0.52719  Biso   1.000  O
  C241     1.0000 0.92770  0.39080  0.37493  Biso   1.000  C
  H145     1.0000 0.94330  0.39650  0.40290  Biso   1.000  H
  C242     1.0000 0.96110  0.42850  0.34730  Biso   1.000  C
  C243     1.0000 0.93950  0.41670  0.30510  Biso   1.000  C
  H146     1.0000 0.96110  0.43990  0.28570  Biso   1.000  H
  C244     1.0000 0.88570  0.37010  0.29230  Biso   1.000  C
  C245     1.0000 0.85460  0.33800  0.32315  Biso   1.000  C
  H147     1.0000 0.81710  0.30820  0.31500  Biso   1.000  H
  C246     1.0000 0.01770  0.47730  0.36380  Biso   1.000  C
  C247     1.0000 0.01050  0.51060  0.39990  Biso   1.000  C
  H148     1.0000 0.96960  0.50400  0.41230  Biso   1.000  H
  C248     1.0000 0.06390  0.55360  0.41750  Biso   1.000  C
  H149     1.0000 0.05850  0.57520  0.44190  Biso   1.000  H
  C249     1.0000 0.12530  0.56520  0.39958  Biso   1.000  C
  C250     1.0000 0.12960  0.53540  0.36180  Biso   1.000  C
  H150     1.0000 0.16850  0.54480  0.34820  Biso   1.000  H
  C251     1.0000 0.07660  0.49210  0.34440  Biso   1.000  C
  H151     1.0000 0.08040  0.47240  0.31920  Biso   1.000  H
  C252     1.0000 0.18420  0.60990  0.42118  Biso   1.000  C
  C253     1.0000 0.85980  0.35350  0.24870  Biso   1.000  C
  C254     1.0000 0.86130  0.39450  0.21710  Biso   1.000  C
  H152     1.0000 0.88330  0.43580  0.22210  Biso   1.000  H
  C255     1.0000 0.83180  0.37890  0.17740  Biso   1.000  C
  H153     1.0000 0.83410  0.41000  0.15660  Biso   1.000  H
  C256     1.0000 0.79990  0.32020  0.16773  Biso   1.000  C
  C257     1.0000 0.80960  0.27160  0.19850  Biso   1.000  C
  H154     1.0000 0.79610  0.22780  0.19210  Biso   1.000  H
  C258     1.0000 0.83860  0.28760  0.23790  Biso   1.000  C
  H155     1.0000 0.84440  0.25450  0.25790  Biso   1.000  H
  C259     1.0000 0.76450  0.30170  0.12504  Biso   1.000  C
  C260     1.0000 0.33320  0.98300  0.44827  Biso   1.000  C
  H156     1.0000 0.37630  0.95930  0.45130  Biso   1.000  H
  C261     1.0000 0.33610  0.05150  0.44200  Biso   1.000  C
  C262     1.0000 0.27060  0.08600  0.43610  Biso   1.000  C
  H157     1.0000 0.26990  0.13170  0.43140  Biso   1.000  H
  C263     1.0000 0.20620  0.05170  0.43726  Biso   1.000  C
  C264     1.0000 0.21070  0.98310  0.44463  Biso   1.000  C
  H158     1.0000 0.16810  0.95970  0.44570  Biso   1.000  H
  C265     1.0000 0.40770  0.08530  0.44290  Biso   1.000  C
  C266     1.0000 0.46860  0.05400  0.46290  Biso   1.000  C
  H159     1.0000 0.46440  0.01210  0.47440  Biso   1.000  H
  C267     1.0000 0.53630  0.08400  0.46610  Biso   1.000  C
  H160     1.0000 0.57650  0.06150  0.47930  Biso   1.000  H
  C268     1.0000 0.54470  0.14630  0.44993  Biso   1.000  C
  C269     1.0000 0.48440  0.17800  0.43050  Biso   1.000  C
  H161     1.0000 0.48860  0.22020  0.41940  Biso   1.000  H
  C270     1.0000 0.41690  0.14810  0.42710  Biso   1.000  C
  H162     1.0000 0.37690  0.17090  0.41380  Biso   1.000  H
  C271     1.0000 0.61730  0.17920  0.45602  Biso   1.000  C
  C272     1.0000 0.13520  0.08610  0.43210  Biso   1.000  C
  C273     1.0000 0.12830  0.15120  0.44500  Biso   1.000  C
  H163     1.0000 0.16930  0.17490  0.45600  Biso   1.000  H
  C274     1.0000 0.06110  0.18170  0.44170  Biso   1.000  C
  H164     1.0000 0.05760  0.22560  0.45020  Biso   1.000  H
  C275     1.0000 0.99920  0.14730  0.42575  Biso   1.000  C
  C276     1.0000 0.00630  0.08290  0.41160  Biso   1.000  C
  H165     1.0000 0.96550  0.05960  0.39990  Biso   1.000  H
  C277     1.0000 0.07310  0.05280  0.41450  Biso   1.000  C
  H166     1.0000 0.07660  0.00970  0.40460  Biso   1.000  H
  C278     1.0000 0.92580  0.17760  0.42570  Biso   1.000  C
  C279     1.0000 0.70890  0.00110  0.44464  Biso   1.000  C
  H167     1.0000 0.66590  0.02450  0.44340  Biso   1.000  H
  C280     1.0000 0.70590  0.93270  0.44450  Biso   1.000  C
  C281     1.0000 0.77200  0.89800  0.44760  Biso   1.000  C
  H168     1.0000 0.77240  0.85160  0.44830  Biso   1.000  H
  C282     1.0000 0.83650  0.93300  0.44945  Biso   1.000  C
  C283     1.0000 0.83180  0.00230  0.44784  Biso   1.000  C
  H169     1.0000 0.87410  0.02650  0.44780  Biso   1.000  H
  C284     1.0000 0.90880  0.89990  0.45380  Biso   1.000  C
  C285     1.0000 0.97040  0.93800  0.46650  Biso   1.000  C
  H170     1.0000 0.96560  0.98350  0.47050  Biso   1.000  H
  C286     1.0000 0.03790  0.91000  0.47310  Biso   1.000  C
  H171     1.0000 0.07780  0.93660  0.48200  Biso   1.000  H
  C287     1.0000 0.04730  0.84330  0.46673  Biso   1.000  C
  C288     1.0000 0.98720  0.80490  0.45330  Biso   1.000  C
  H172     1.0000 0.99270  0.75970  0.44830  Biso   1.000  H
  C289     1.0000 0.91950  0.83260  0.44720  Biso   1.000  C
  H173     1.0000 0.87980  0.80560  0.43850  Biso   1.000  H
  C290     1.0000 0.12070  0.81250  0.47534  Biso   1.000  C
  C291     1.0000 0.63580  0.89690  0.44220  Biso   1.000  C
  C292     1.0000 0.57350  0.92520  0.42150  Biso   1.000  C
  H174     1.0000 0.57600  0.96550  0.40790  Biso   1.000  H
  C293     1.0000 0.50660  0.89370  0.42090  Biso   1.000  C
  H175     1.0000 0.46530  0.91370  0.40700  Biso   1.000  H
  C294     1.0000 0.50090  0.83320  0.44044  Biso   1.000  C
  C295     1.0000 0.56410  0.80430  0.46070  Biso   1.000  C
  H176     1.0000 0.56200  0.76310  0.47350  Biso   1.000  H
  C296     1.0000 0.63000  0.83640  0.46210  Biso   1.000  C
  H177     1.0000 0.67120  0.81700  0.47660  Biso   1.000  H
  C297     1.0000 0.42800  0.80260  0.44158  Biso   1.000  C
  C298     1.0000 0.64530  0.14500  0.16010  Biso   1.000  C
  H178     1.0000 0.68630  0.17070  0.16830  Biso   1.000  H
  C299     1.0000 0.61060  0.11620  0.19030  Biso   1.000  C
  C300     1.0000 0.55250  0.07500  0.17800  Biso   1.000  C
  H179     1.0000 0.52950  0.05370  0.19760  Biso   1.000  H
  C301     1.0000 0.52790  0.06490  0.13570  Biso   1.000  C
  C302     1.0000 0.56480  0.09920  0.10863  Biso   1.000  C
  H180     1.0000 0.54810  0.09530  0.08060  Biso   1.000  H
  C303     1.0000 0.63810  0.13060  0.23420  Biso   1.000  C
  C304     1.0000 0.66100  0.19690  0.24460  Biso   1.000  C
  H181     1.0000 0.65660  0.22960  0.22440  Biso   1.000  H
  C305     1.0000 0.68980  0.21320  0.28500  Biso   1.000  C
  H182     1.0000 0.70480  0.25650  0.29170  Biso   1.000  H
  C306     1.0000 0.69600  0.16330  0.31575  Biso   1.000  C
  C307     1.0000 0.66160  0.10510  0.30600  Biso   1.000  C
  H183     1.0000 0.65720  0.07450  0.32670  Biso   1.000  H
  C308     1.0000 0.63260  0.08980  0.26570  Biso   1.000  C
  H184     1.0000 0.60840  0.04960  0.26040  Biso   1.000  H
  C309     1.0000 0.73180  0.18170  0.35816  Biso   1.000  C
  C310     1.0000 0.46670  0.02110  0.12031  Biso   1.000  C
  C311     1.0000 0.43000  0.02740  0.07990  Biso   1.000  C
  H185     1.0000 0.44340  0.06120  0.06330  Biso   1.000  H
  C312     1.0000 0.37450  0.98490  0.06430  Biso   1.000  C
  H186     1.0000 0.35170  0.98970  0.03730  Biso   1.000  H
  C313     1.0000 0.38490  0.93200  0.12960  Biso   1.000  C
  H187     1.0000 0.36850  0.90150  0.14740  Biso   1.000  H
  C314     1.0000 0.44130  0.97460  0.14440  Biso   1.000  C
  H188     1.0000 0.46240  0.97100  0.17170  Biso   1.000  H
  C315     1.0000 0.35300  0.93450  0.08930  Biso   1.000  C
  C316     1.0000 0.29250  0.88850  0.07314  Biso   1.000  C
  C317     1.0000 0.46870  0.98740  0.08330  Biso   1.000  C
  H189     1.0000 0.50780  0.99310  0.06930  Biso   1.000  H
  C318     1.0000 0.41090  0.94440  0.06690  Biso   1.000  C
  H190     1.0000 0.41140  0.92310  0.04180  Biso   1.000  H
  C319     1.0000 0.35530  0.96700  0.12810  Biso   1.000  C
  H191     1.0000 0.31840  0.95950  0.14370  Biso   1.000  H
  C320     1.0000 0.41140  0.00960  0.14310  Biso   1.000  C
  H192     1.0000 0.41190  0.03040  0.16840  Biso   1.000  H
