data_image0
_cell_length_a       15.014
_cell_length_b       20.223
_cell_length_c       19.843
_cell_angle_alpha    90
_cell_angle_beta     90
_cell_angle_gamma    90

_symmetry_space_group_name_H-M    "P 1"
_symmetry_int_tables_number       1

loop_
  _symmetry_equiv_pos_as_xyz
  'x, y, z'

loop_
  _atom_site_label
  _atom_site_occupancy
  _atom_site_fract_x
  _atom_site_fract_y
  _atom_site_fract_z
  _atom_site_thermal_displace_type
  _atom_site_B_iso_or_equiv
  _atom_site_type_symbol
  Zn1      1.0000 0.32141  0.39760  0.62661  Biso   1.000  Zn
  Zn2      1.0000 0.27549  0.60370  0.41876  Biso   1.000  Zn
  N1       1.0000 0.27290  0.30670  0.61400  Biso   1.000  N
  N2       1.0000 0.25840  0.46590  0.57450  Biso   1.000  N
  N3       1.0000 0.23920  0.54720  0.49510  Biso   1.000  N
  N4       1.0000 0.40810  0.60900  0.42890  Biso   1.000  N
  N5       1.0000 0.55650  0.60510  0.41250  Biso   1.000  N
  N6       1.0000 0.23930  0.56900  0.32960  Biso   1.000  N
  N7       1.0000 0.19430  0.57080  0.22060  Biso   1.000  N
  N8       1.0000 0.22350  0.69290  0.42080  Biso   1.000  N
  H1       1.0000 0.38170  0.28180  0.71700  Biso   1.000  H
  C1       1.0000 0.21090  0.28390  0.56830  Biso   1.000  C
  C2       1.0000 0.15370  0.32040  0.52360  Biso   1.000  C
  H2       1.0000 0.15450  0.36640  0.52190  Biso   1.000  H
  C3       1.0000 0.09740  0.28340  0.48320  Biso   1.000  C
  H3       1.0000 0.05800  0.30540  0.45480  Biso   1.000  H
  C4       1.0000 0.29270  0.50020  0.52240  Biso   1.000  C
  H4       1.0000 0.34980  0.49210  0.50610  Biso   1.000  H
  C5       1.0000 0.17470  0.49210  0.57950  Biso   1.000  C
  C6       1.0000 0.10860  0.47670  0.62810  Biso   1.000  C
  H5       1.0000 0.11960  0.44640  0.66240  Biso   1.000  H
  C7       1.0000 0.02860  0.50790  0.62270  Biso   1.000  C
  H6       1.0000 0.98270  0.49620  0.65190  Biso   1.000  H
  C8       1.0000 0.01360  0.55720  0.57450  Biso   1.000  C
  H7       1.0000 0.95870  0.57840  0.57270  Biso   1.000  H
  C9       1.0000 0.07980  0.57440  0.52950  Biso   1.000  C
  H8       1.0000 0.07010  0.60760  0.49800  Biso   1.000  H
  C10      1.0000 0.16180  0.54140  0.53190  Biso   1.000  C
  C11      1.0000 0.46170  0.57480  0.31970  Biso   1.000  C
  H9       1.0000 0.51590  0.57760  0.29420  Biso   1.000  H
  H10      1.0000 0.41710  0.60220  0.29910  Biso   1.000  H
  H11      1.0000 0.44140  0.52980  0.32050  Biso   1.000  H
  C12      1.0000 0.47770  0.59720  0.38820  Biso   1.000  C
  C13      1.0000 0.44890  0.62850  0.48810  Biso   1.000  C
  C14      1.0000 0.41440  0.64670  0.54940  Biso   1.000  C
  H12      1.0000 0.35320  0.64600  0.55650  Biso   1.000  H
  C15      1.0000 0.47050  0.66590  0.59980  Biso   1.000  C
  H13      1.0000 0.44730  0.68010  0.64080  Biso   1.000  H
  C16      1.0000 0.56390  0.66430  0.59000  Biso   1.000  C
  H14      1.0000 0.60190  0.67700  0.62470  Biso   1.000  H
  C17      1.0000 0.59910  0.64350  0.52840  Biso   1.000  C
  H15      1.0000 0.66040  0.64050  0.52220  Biso   1.000  H
  C18      1.0000 0.54060  0.62760  0.47650  Biso   1.000  C
  C19      1.0000 0.22770  0.60480  0.27330  Biso   1.000  C
  H16      1.0000 0.24170  0.64950  0.27080  Biso   1.000  H
  C20      1.0000 0.21470  0.50590  0.31190  Biso   1.000  C
  C21      1.0000 0.21370  0.44510  0.34690  Biso   1.000  C
  H17      1.0000 0.23480  0.44280  0.39090  Biso   1.000  H
  C22      1.0000 0.18200  0.39030  0.31630  Biso   1.000  C
  H18      1.0000 0.17950  0.35060  0.33990  Biso   1.000  H
  C23      1.0000 0.15370  0.39280  0.25090  Biso   1.000  C
  H19      1.0000 0.13320  0.35400  0.23100  Biso   1.000  H
  C24      1.0000 0.15380  0.44870  0.21360  Biso   1.000  C
  H20      1.0000 0.13500  0.44910  0.16900  Biso   1.000  H
  C25      1.0000 0.18390  0.50550  0.24600  Biso   1.000  C
  C26      1.0000 0.14380  0.71640  0.39260  Biso   1.000  C
  C27      1.0000 0.07270  0.67910  0.37000  Biso   1.000  C
  H21      1.0000 0.07320  0.63310  0.37050  Biso   1.000  H
  C28      1.0000 0.99930  0.71580  0.34610  Biso   1.000  C
  H22      1.0000 0.94960  0.69340  0.32990  Biso   1.000  H
  H23      1.0000 0.39800  0.20680  0.70110  Biso   1.000  H
  H24      1.0000 0.44330  0.26140  0.65660  Biso   1.000  H
  Zn3      1.0000 0.17859  0.60240  0.12661  Biso   1.000  Zn
  Zn4      1.0000 0.22451  0.39630  0.91876  Biso   1.000  Zn
  N9       1.0000 0.22710  0.69330  0.11400  Biso   1.000  N
  N10      1.0000 0.24160  0.53410  0.07450  Biso   1.000  N
  N11      1.0000 0.26080  0.45280  0.99510  Biso   1.000  N
  N12      1.0000 0.09190  0.39100  0.92890  Biso   1.000  N
  N13      1.0000 0.94350  0.39490  0.91250  Biso   1.000  N
  N14      1.0000 0.26070  0.43100  0.82960  Biso   1.000  N
  N15      1.0000 0.30570  0.42920  0.72060  Biso   1.000  N
  N16      1.0000 0.27650  0.30710  0.92080  Biso   1.000  N
  H25      1.0000 0.11830  0.71820  0.21700  Biso   1.000  H
  C29      1.0000 0.28910  0.71610  0.06830  Biso   1.000  C
  C30      1.0000 0.34630  0.67960  0.02360  Biso   1.000  C
  H26      1.0000 0.34550  0.63360  0.02190  Biso   1.000  H
  C31      1.0000 0.40260  0.71660  0.98320  Biso   1.000  C
  H27      1.0000 0.44200  0.69460  0.95480  Biso   1.000  H
  C32      1.0000 0.20730  0.49980  0.02240  Biso   1.000  C
  H28      1.0000 0.15020  0.50790  0.00610  Biso   1.000  H
  C33      1.0000 0.32530  0.50790  0.07950  Biso   1.000  C
  C34      1.0000 0.39140  0.52330  0.12810  Biso   1.000  C
  H29      1.0000 0.38040  0.55360  0.16240  Biso   1.000  H
  C35      1.0000 0.47140  0.49210  0.12270  Biso   1.000  C
  H30      1.0000 0.51730  0.50380  0.15190  Biso   1.000  H
  C36      1.0000 0.48640  0.44280  0.07450  Biso   1.000  C
  H31      1.0000 0.54130  0.42160  0.07270  Biso   1.000  H
  C37      1.0000 0.42020  0.42560  0.02950  Biso   1.000  C
  H32      1.0000 0.42990  0.39240  0.99800  Biso   1.000  H
  C38      1.0000 0.33820  0.45860  0.03190  Biso   1.000  C
  C39      1.0000 0.03830  0.42520  0.81970  Biso   1.000  C
  H33      1.0000 0.98410  0.42240  0.79420  Biso   1.000  H
  H34      1.0000 0.08290  0.39780  0.79910  Biso   1.000  H
  H35      1.0000 0.05860  0.47020  0.82050  Biso   1.000  H
  C40      1.0000 0.02230  0.40280  0.88820  Biso   1.000  C
  C41      1.0000 0.05110  0.37150  0.98810  Biso   1.000  C
  C42      1.0000 0.08560  0.35330  0.04940  Biso   1.000  C
  H36      1.0000 0.14680  0.35400  0.05650  Biso   1.000  H
  C43      1.0000 0.02950  0.33410  0.09980  Biso   1.000  C
  H37      1.0000 0.05270  0.31990  0.14080  Biso   1.000  H
  C44      1.0000 0.93610  0.33570  0.09000  Biso   1.000  C
  H38      1.0000 0.89810  0.32300  0.12470  Biso   1.000  H
  C45      1.0000 0.90090  0.35650  0.02840  Biso   1.000  C
  H39      1.0000 0.83960  0.35950  0.02220  Biso   1.000  H
  C46      1.0000 0.95940  0.37240  0.97650  Biso   1.000  C
  C47      1.0000 0.27230  0.39520  0.77330  Biso   1.000  C
  H40      1.0000 0.25830  0.35050  0.77080  Biso   1.000  H
  C48      1.0000 0.28530  0.49410  0.81190  Biso   1.000  C
  C49      1.0000 0.28630  0.55490  0.84690  Biso   1.000  C
  H41      1.0000 0.26520  0.55720  0.89090  Biso   1.000  H
  C50      1.0000 0.31800  0.60970  0.81630  Biso   1.000  C
  H42      1.0000 0.32050  0.64940  0.83990  Biso   1.000  H
  C51      1.0000 0.34630  0.60720  0.75090  Biso   1.000  C
  H43      1.0000 0.36680  0.64600  0.73100  Biso   1.000  H
  C52      1.0000 0.34620  0.55130  0.71360  Biso   1.000  C
  H44      1.0000 0.36500  0.55090  0.66900  Biso   1.000  H
  C53      1.0000 0.31610  0.49450  0.74600  Biso   1.000  C
  C54      1.0000 0.35620  0.28360  0.89260  Biso   1.000  C
  C55      1.0000 0.42730  0.32090  0.87000  Biso   1.000  C
  H45      1.0000 0.42680  0.36690  0.87050  Biso   1.000  H
  C56      1.0000 0.50070  0.28420  0.84610  Biso   1.000  C
  H46      1.0000 0.55040  0.30660  0.82990  Biso   1.000  H
  H47      1.0000 0.10200  0.79320  0.20110  Biso   1.000  H
  H48      1.0000 0.05670  0.73860  0.15660  Biso   1.000  H
  Zn5      1.0000 0.67859  0.89760  0.37339  Biso   1.000  Zn
  Zn6      1.0000 0.72451  0.10370  0.58124  Biso   1.000  Zn
  N17      1.0000 0.72710  0.80670  0.38600  Biso   1.000  N
  N18      1.0000 0.74160  0.96590  0.42550  Biso   1.000  N
  N19      1.0000 0.76080  0.04720  0.50490  Biso   1.000  N
  N20      1.0000 0.59190  0.10900  0.57110  Biso   1.000  N
  N21      1.0000 0.44350  0.10510  0.58750  Biso   1.000  N
  N22      1.0000 0.76070  0.06900  0.67040  Biso   1.000  N
  N23      1.0000 0.80570  0.07080  0.77940  Biso   1.000  N
  N24      1.0000 0.77650  0.19290  0.57920  Biso   1.000  N
  H49      1.0000 0.61830  0.78180  0.28300  Biso   1.000  H
  C57      1.0000 0.78910  0.78390  0.43170  Biso   1.000  C
  C58      1.0000 0.84630  0.82040  0.47640  Biso   1.000  C
  H50      1.0000 0.84550  0.86640  0.47810  Biso   1.000  H
  C59      1.0000 0.90260  0.78340  0.51680  Biso   1.000  C
  H51      1.0000 0.94200  0.80540  0.54520  Biso   1.000  H
  C60      1.0000 0.70730  0.00020  0.47760  Biso   1.000  C
  H52      1.0000 0.65020  0.99210  0.49390  Biso   1.000  H
  C61      1.0000 0.82530  0.99210  0.42050  Biso   1.000  C
  C62      1.0000 0.89140  0.97670  0.37190  Biso   1.000  C
  H53      1.0000 0.88040  0.94640  0.33760  Biso   1.000  H
  C63      1.0000 0.97140  0.00790  0.37730  Biso   1.000  C
  H54      1.0000 0.01730  0.99620  0.34810  Biso   1.000  H
  C64      1.0000 0.98640  0.05720  0.42550  Biso   1.000  C
  H55      1.0000 0.04130  0.07840  0.42730  Biso   1.000  H
  C65      1.0000 0.92020  0.07440  0.47050  Biso   1.000  C
  H56      1.0000 0.92990  0.10760  0.50200  Biso   1.000  H
  C66      1.0000 0.83820  0.04140  0.46810  Biso   1.000  C
  C67      1.0000 0.53830  0.07480  0.68030  Biso   1.000  C
  H57      1.0000 0.48410  0.07760  0.70580  Biso   1.000  H
  H58      1.0000 0.58290  0.10220  0.70090  Biso   1.000  H
  H59      1.0000 0.55860  0.02980  0.67950  Biso   1.000  H
  C68      1.0000 0.52230  0.09720  0.61180  Biso   1.000  C
  C69      1.0000 0.55110  0.12850  0.51190  Biso   1.000  C
  C70      1.0000 0.58560  0.14670  0.45060  Biso   1.000  C
  H60      1.0000 0.64680  0.14600  0.44350  Biso   1.000  H
  C71      1.0000 0.52950  0.16590  0.40020  Biso   1.000  C
  H61      1.0000 0.55270  0.18010  0.35920  Biso   1.000  H
  C72      1.0000 0.43610  0.16430  0.41000  Biso   1.000  C
  H62      1.0000 0.39810  0.17700  0.37530  Biso   1.000  H
  C73      1.0000 0.40090  0.14350  0.47160  Biso   1.000  C
  H63      1.0000 0.33960  0.14050  0.47780  Biso   1.000  H
  C74      1.0000 0.45940  0.12760  0.52350  Biso   1.000  C
  C75      1.0000 0.77230  0.10480  0.72670  Biso   1.000  C
  H64      1.0000 0.75830  0.14950  0.72920  Biso   1.000  H
  C76      1.0000 0.78530  0.00590  0.68810  Biso   1.000  C
  C77      1.0000 0.78630  0.94510  0.65310  Biso   1.000  C
  H65      1.0000 0.76520  0.94280  0.60910  Biso   1.000  H
  C78      1.0000 0.81800  0.89030  0.68370  Biso   1.000  C
  H66      1.0000 0.82050  0.85060  0.66010  Biso   1.000  H
  C79      1.0000 0.84630  0.89280  0.74910  Biso   1.000  C
  H67      1.0000 0.86680  0.85400  0.76900  Biso   1.000  H
  C80      1.0000 0.84620  0.94870  0.78640  Biso   1.000  C
  H68      1.0000 0.86500  0.94910  0.83100  Biso   1.000  H
  C81      1.0000 0.81610  0.00550  0.75400  Biso   1.000  C
  C82      1.0000 0.85620  0.21640  0.60740  Biso   1.000  C
  C83      1.0000 0.92730  0.17910  0.63000  Biso   1.000  C
  H69      1.0000 0.92680  0.13310  0.62950  Biso   1.000  H
  C84      1.0000 0.00070  0.21580  0.65390  Biso   1.000  C
  H70      1.0000 0.05040  0.19340  0.67010  Biso   1.000  H
  H71      1.0000 0.60200  0.70680  0.29890  Biso   1.000  H
  H72      1.0000 0.55670  0.76140  0.34340  Biso   1.000  H
  Zn7      1.0000 0.82141  0.10240  0.87339  Biso   1.000  Zn
  Zn8      1.0000 0.77549  0.89630  0.08124  Biso   1.000  Zn
  N25      1.0000 0.77290  0.19330  0.88600  Biso   1.000  N
  N26      1.0000 0.75840  0.03410  0.92550  Biso   1.000  N
  N27      1.0000 0.73920  0.95280  0.00490  Biso   1.000  N
  N28      1.0000 0.90810  0.89100  0.07110  Biso   1.000  N
  N29      1.0000 0.05650  0.89490  0.08750  Biso   1.000  N
  N30      1.0000 0.73930  0.93100  0.17040  Biso   1.000  N
  N31      1.0000 0.69430  0.92920  0.27940  Biso   1.000  N
  N32      1.0000 0.72350  0.80710  0.07920  Biso   1.000  N
  H73      1.0000 0.88170  0.21820  0.78300  Biso   1.000  H
  C85      1.0000 0.71090  0.21610  0.93170  Biso   1.000  C
  C86      1.0000 0.65370  0.17960  0.97640  Biso   1.000  C
  H74      1.0000 0.65450  0.13360  0.97810  Biso   1.000  H
  C87      1.0000 0.59740  0.21660  0.01680  Biso   1.000  C
  H75      1.0000 0.55800  0.19460  0.04520  Biso   1.000  H
  C88      1.0000 0.79270  0.99980  0.97760  Biso   1.000  C
  H76      1.0000 0.84980  0.00790  0.99390  Biso   1.000  H
  C89      1.0000 0.67470  0.00790  0.92050  Biso   1.000  C
  C90      1.0000 0.60860  0.02330  0.87190  Biso   1.000  C
  H77      1.0000 0.61960  0.05360  0.83760  Biso   1.000  H
  C91      1.0000 0.52860  0.99210  0.87730  Biso   1.000  C
  H78      1.0000 0.48270  0.00380  0.84810  Biso   1.000  H
  C92      1.0000 0.51360  0.94280  0.92550  Biso   1.000  C
  H79      1.0000 0.45870  0.92160  0.92730  Biso   1.000  H
  C93      1.0000 0.57980  0.92560  0.97050  Biso   1.000  C
  H80      1.0000 0.57010  0.89240  0.00200  Biso   1.000  H
  C94      1.0000 0.66180  0.95860  0.96810  Biso   1.000  C
  C95      1.0000 0.96170  0.92520  0.18030  Biso   1.000  C
  H81      1.0000 0.01590  0.92240  0.20580  Biso   1.000  H
  H82      1.0000 0.91710  0.89780  0.20090  Biso   1.000  H
  H83      1.0000 0.94140  0.97020  0.17950  Biso   1.000  H
  C96      1.0000 0.97770  0.90280  0.11180  Biso   1.000  C
  C97      1.0000 0.94890  0.87150  0.01190  Biso   1.000  C
  C98      1.0000 0.91440  0.85330  0.95060  Biso   1.000  C
  H84      1.0000 0.85320  0.85400  0.94350  Biso   1.000  H
  C99      1.0000 0.97050  0.83410  0.90020  Biso   1.000  C
  H85      1.0000 0.94730  0.81990  0.85920  Biso   1.000  H
  C100     1.0000 0.06390  0.83570  0.91000  Biso   1.000  C
  H86      1.0000 0.10190  0.82300  0.87530  Biso   1.000  H
  C101     1.0000 0.09910  0.85650  0.97160  Biso   1.000  C
  H87      1.0000 0.16040  0.85950  0.97780  Biso   1.000  H
  C102     1.0000 0.04060  0.87240  0.02350  Biso   1.000  C
  C103     1.0000 0.72770  0.89520  0.22670  Biso   1.000  C
  H88      1.0000 0.74170  0.85050  0.22920  Biso   1.000  H
  C104     1.0000 0.71470  0.99410  0.18810  Biso   1.000  C
  C105     1.0000 0.71370  0.05490  0.15310  Biso   1.000  C
  H89      1.0000 0.73480  0.05720  0.10910  Biso   1.000  H
  C106     1.0000 0.68200  0.10970  0.18370  Biso   1.000  C
  H90      1.0000 0.67950  0.14940  0.16010  Biso   1.000  H
  C107     1.0000 0.65370  0.10720  0.24910  Biso   1.000  C
  H91      1.0000 0.63320  0.14600  0.26900  Biso   1.000  H
  C108     1.0000 0.65380  0.05130  0.28640  Biso   1.000  C
  H92      1.0000 0.63500  0.05090  0.33100  Biso   1.000  H
  C109     1.0000 0.68390  0.99450  0.25400  Biso   1.000  C
  C110     1.0000 0.64380  0.78360  0.10740  Biso   1.000  C
  C111     1.0000 0.57270  0.82090  0.13000  Biso   1.000  C
  H93      1.0000 0.57320  0.86690  0.12950  Biso   1.000  H
  C112     1.0000 0.49930  0.78420  0.15390  Biso   1.000  C
  H94      1.0000 0.44960  0.80660  0.17010  Biso   1.000  H
  H95      1.0000 0.89800  0.29320  0.79890  Biso   1.000  H
  H96      1.0000 0.94330  0.23860  0.84340  Biso   1.000  H
  Zn9      1.0000 0.67859  0.60240  0.37339  Biso   1.000  Zn
  Zn10     1.0000 0.72451  0.39630  0.58124  Biso   1.000  Zn
  N33      1.0000 0.72710  0.69330  0.38600  Biso   1.000  N
  N34      1.0000 0.74160  0.53410  0.42550  Biso   1.000  N
  N35      1.0000 0.76080  0.45280  0.50490  Biso   1.000  N
  N36      1.0000 0.59190  0.39100  0.57110  Biso   1.000  N
  N37      1.0000 0.44350  0.39490  0.58750  Biso   1.000  N
  N38      1.0000 0.76070  0.43100  0.67040  Biso   1.000  N
  N39      1.0000 0.80570  0.42920  0.77940  Biso   1.000  N
  N40      1.0000 0.77650  0.30710  0.57920  Biso   1.000  N
  H97      1.0000 0.61830  0.71820  0.28300  Biso   1.000  H
  C113     1.0000 0.78910  0.71610  0.43170  Biso   1.000  C
  C114     1.0000 0.84630  0.67960  0.47640  Biso   1.000  C
  H98      1.0000 0.84550  0.63360  0.47810  Biso   1.000  H
  C115     1.0000 0.90260  0.71660  0.51680  Biso   1.000  C
  H99      1.0000 0.94200  0.69460  0.54520  Biso   1.000  H
  C116     1.0000 0.70730  0.49980  0.47760  Biso   1.000  C
  H100     1.0000 0.65020  0.50790  0.49390  Biso   1.000  H
  C117     1.0000 0.82530  0.50790  0.42050  Biso   1.000  C
  C118     1.0000 0.89140  0.52330  0.37190  Biso   1.000  C
  H101     1.0000 0.88040  0.55360  0.33760  Biso   1.000  H
  C119     1.0000 0.97140  0.49210  0.37730  Biso   1.000  C
  H102     1.0000 0.01730  0.50380  0.34810  Biso   1.000  H
  C120     1.0000 0.98640  0.44280  0.42550  Biso   1.000  C
  H103     1.0000 0.04130  0.42160  0.42730  Biso   1.000  H
  C121     1.0000 0.92020  0.42560  0.47050  Biso   1.000  C
  H104     1.0000 0.92990  0.39240  0.50200  Biso   1.000  H
  C122     1.0000 0.83820  0.45860  0.46810  Biso   1.000  C
  C123     1.0000 0.53830  0.42520  0.68030  Biso   1.000  C
  H105     1.0000 0.48410  0.42240  0.70580  Biso   1.000  H
  H106     1.0000 0.58290  0.39780  0.70090  Biso   1.000  H
  H107     1.0000 0.55860  0.47020  0.67950  Biso   1.000  H
  C124     1.0000 0.52230  0.40280  0.61180  Biso   1.000  C
  C125     1.0000 0.55110  0.37150  0.51190  Biso   1.000  C
  C126     1.0000 0.58560  0.35330  0.45060  Biso   1.000  C
  H108     1.0000 0.64680  0.35400  0.44350  Biso   1.000  H
  C127     1.0000 0.52950  0.33410  0.40020  Biso   1.000  C
  H109     1.0000 0.55270  0.31990  0.35920  Biso   1.000  H
  C128     1.0000 0.43610  0.33570  0.41000  Biso   1.000  C
  H110     1.0000 0.39810  0.32300  0.37530  Biso   1.000  H
  C129     1.0000 0.40090  0.35650  0.47160  Biso   1.000  C
  H111     1.0000 0.33960  0.35950  0.47780  Biso   1.000  H
  C130     1.0000 0.45940  0.37240  0.52350  Biso   1.000  C
  C131     1.0000 0.77230  0.39520  0.72670  Biso   1.000  C
  H112     1.0000 0.75830  0.35050  0.72920  Biso   1.000  H
  C132     1.0000 0.78530  0.49410  0.68810  Biso   1.000  C
  C133     1.0000 0.78630  0.55490  0.65310  Biso   1.000  C
  H113     1.0000 0.76520  0.55720  0.60910  Biso   1.000  H
  C134     1.0000 0.81800  0.60970  0.68370  Biso   1.000  C
  H114     1.0000 0.82050  0.64940  0.66010  Biso   1.000  H
  C135     1.0000 0.84630  0.60720  0.74910  Biso   1.000  C
  H115     1.0000 0.86680  0.64600  0.76900  Biso   1.000  H
  C136     1.0000 0.84620  0.55130  0.78640  Biso   1.000  C
  H116     1.0000 0.86500  0.55090  0.83100  Biso   1.000  H
  C137     1.0000 0.81610  0.49450  0.75400  Biso   1.000  C
  C138     1.0000 0.85620  0.28360  0.60740  Biso   1.000  C
  C139     1.0000 0.92730  0.32090  0.63000  Biso   1.000  C
  H117     1.0000 0.92680  0.36690  0.62950  Biso   1.000  H
  C140     1.0000 0.00070  0.28420  0.65390  Biso   1.000  C
  H118     1.0000 0.05040  0.30660  0.67010  Biso   1.000  H
  H119     1.0000 0.60200  0.79320  0.29890  Biso   1.000  H
  H120     1.0000 0.55670  0.73860  0.34340  Biso   1.000  H
  Zn11     1.0000 0.82141  0.39760  0.87339  Biso   1.000  Zn
  Zn12     1.0000 0.77549  0.60370  0.08124  Biso   1.000  Zn
  N41      1.0000 0.77290  0.30670  0.88600  Biso   1.000  N
  N42      1.0000 0.75840  0.46590  0.92550  Biso   1.000  N
  N43      1.0000 0.73920  0.54720  0.00490  Biso   1.000  N
  N44      1.0000 0.90810  0.60900  0.07110  Biso   1.000  N
  N45      1.0000 0.05650  0.60510  0.08750  Biso   1.000  N
  N46      1.0000 0.73930  0.56900  0.17040  Biso   1.000  N
  N47      1.0000 0.69430  0.57080  0.27940  Biso   1.000  N
  N48      1.0000 0.72350  0.69290  0.07920  Biso   1.000  N
  H121     1.0000 0.88170  0.28180  0.78300  Biso   1.000  H
  C141     1.0000 0.71090  0.28390  0.93170  Biso   1.000  C
  C142     1.0000 0.65370  0.32040  0.97640  Biso   1.000  C
  H122     1.0000 0.65450  0.36640  0.97810  Biso   1.000  H
  C143     1.0000 0.59740  0.28340  0.01680  Biso   1.000  C
  H123     1.0000 0.55800  0.30540  0.04520  Biso   1.000  H
  C144     1.0000 0.79270  0.50020  0.97760  Biso   1.000  C
  H124     1.0000 0.84980  0.49210  0.99390  Biso   1.000  H
  C145     1.0000 0.67470  0.49210  0.92050  Biso   1.000  C
  C146     1.0000 0.60860  0.47670  0.87190  Biso   1.000  C
  H125     1.0000 0.61960  0.44640  0.83760  Biso   1.000  H
  C147     1.0000 0.52860  0.50790  0.87730  Biso   1.000  C
  H126     1.0000 0.48270  0.49620  0.84810  Biso   1.000  H
  C148     1.0000 0.51360  0.55720  0.92550  Biso   1.000  C
  H127     1.0000 0.45870  0.57840  0.92730  Biso   1.000  H
  C149     1.0000 0.57980  0.57440  0.97050  Biso   1.000  C
  H128     1.0000 0.57010  0.60760  0.00200  Biso   1.000  H
  C150     1.0000 0.66180  0.54140  0.96810  Biso   1.000  C
  C151     1.0000 0.96170  0.57480  0.18030  Biso   1.000  C
  H129     1.0000 0.01590  0.57760  0.20580  Biso   1.000  H
  H130     1.0000 0.91710  0.60220  0.20090  Biso   1.000  H
  H131     1.0000 0.94140  0.52980  0.17950  Biso   1.000  H
  C152     1.0000 0.97770  0.59720  0.11180  Biso   1.000  C
  C153     1.0000 0.94890  0.62850  0.01190  Biso   1.000  C
  C154     1.0000 0.91440  0.64670  0.95060  Biso   1.000  C
  H132     1.0000 0.85320  0.64600  0.94350  Biso   1.000  H
  C155     1.0000 0.97050  0.66590  0.90020  Biso   1.000  C
  H133     1.0000 0.94730  0.68010  0.85920  Biso   1.000  H
  C156     1.0000 0.06390  0.66430  0.91000  Biso   1.000  C
  H134     1.0000 0.10190  0.67700  0.87530  Biso   1.000  H
  C157     1.0000 0.09910  0.64350  0.97160  Biso   1.000  C
  H135     1.0000 0.16040  0.64050  0.97780  Biso   1.000  H
  C158     1.0000 0.04060  0.62760  0.02350  Biso   1.000  C
  C159     1.0000 0.72770  0.60480  0.22670  Biso   1.000  C
  H136     1.0000 0.74170  0.64950  0.22920  Biso   1.000  H
  C160     1.0000 0.71470  0.50590  0.18810  Biso   1.000  C
  C161     1.0000 0.71370  0.44510  0.15310  Biso   1.000  C
  H137     1.0000 0.73480  0.44280  0.10910  Biso   1.000  H
  C162     1.0000 0.68200  0.39030  0.18370  Biso   1.000  C
  H138     1.0000 0.67950  0.35060  0.16010  Biso   1.000  H
  C163     1.0000 0.65370  0.39280  0.24910  Biso   1.000  C
  H139     1.0000 0.63320  0.35400  0.26900  Biso   1.000  H
  C164     1.0000 0.65380  0.44870  0.28640  Biso   1.000  C
  H140     1.0000 0.63500  0.44910  0.33100  Biso   1.000  H
  C165     1.0000 0.68390  0.50550  0.25400  Biso   1.000  C
  C166     1.0000 0.64380  0.71640  0.10740  Biso   1.000  C
  C167     1.0000 0.57270  0.67910  0.13000  Biso   1.000  C
  H141     1.0000 0.57320  0.63310  0.12950  Biso   1.000  H
  C168     1.0000 0.49930  0.71580  0.15390  Biso   1.000  C
  H142     1.0000 0.44960  0.69340  0.17010  Biso   1.000  H
  H143     1.0000 0.89800  0.20680  0.79890  Biso   1.000  H
  H144     1.0000 0.94330  0.26140  0.84340  Biso   1.000  H
  Zn13     1.0000 0.32141  0.10240  0.62661  Biso   1.000  Zn
  Zn14     1.0000 0.27549  0.89630  0.41876  Biso   1.000  Zn
  N49      1.0000 0.27290  0.19330  0.61400  Biso   1.000  N
  N50      1.0000 0.25840  0.03410  0.57450  Biso   1.000  N
  N51      1.0000 0.23920  0.95280  0.49510  Biso   1.000  N
  N52      1.0000 0.40810  0.89100  0.42890  Biso   1.000  N
  N53      1.0000 0.55650  0.89490  0.41250  Biso   1.000  N
  N54      1.0000 0.23930  0.93100  0.32960  Biso   1.000  N
  N55      1.0000 0.19430  0.92920  0.22060  Biso   1.000  N
  N56      1.0000 0.22350  0.80710  0.42080  Biso   1.000  N
  H145     1.0000 0.38170  0.21820  0.71700  Biso   1.000  H
  C169     1.0000 0.21090  0.21610  0.56830  Biso   1.000  C
  C170     1.0000 0.15370  0.17960  0.52360  Biso   1.000  C
  H146     1.0000 0.15450  0.13360  0.52190  Biso   1.000  H
  C171     1.0000 0.09740  0.21660  0.48320  Biso   1.000  C
  H147     1.0000 0.05800  0.19460  0.45480  Biso   1.000  H
  C172     1.0000 0.29270  0.99980  0.52240  Biso   1.000  C
  H148     1.0000 0.34980  0.00790  0.50610  Biso   1.000  H
  C173     1.0000 0.17470  0.00790  0.57950  Biso   1.000  C
  C174     1.0000 0.10860  0.02330  0.62810  Biso   1.000  C
  H149     1.0000 0.11960  0.05360  0.66240  Biso   1.000  H
  C175     1.0000 0.02860  0.99210  0.62270  Biso   1.000  C
  H150     1.0000 0.98270  0.00380  0.65190  Biso   1.000  H
  C176     1.0000 0.01360  0.94280  0.57450  Biso   1.000  C
  H151     1.0000 0.95870  0.92160  0.57270  Biso   1.000  H
  C177     1.0000 0.07980  0.92560  0.52950  Biso   1.000  C
  H152     1.0000 0.07010  0.89240  0.49800  Biso   1.000  H
  C178     1.0000 0.16180  0.95860  0.53190  Biso   1.000  C
  C179     1.0000 0.46170  0.92520  0.31970  Biso   1.000  C
  H153     1.0000 0.51590  0.92240  0.29420  Biso   1.000  H
  H154     1.0000 0.41710  0.89780  0.29910  Biso   1.000  H
  H155     1.0000 0.44140  0.97020  0.32050  Biso   1.000  H
  C180     1.0000 0.47770  0.90280  0.38820  Biso   1.000  C
  C181     1.0000 0.44890  0.87150  0.48810  Biso   1.000  C
  C182     1.0000 0.41440  0.85330  0.54940  Biso   1.000  C
  H156     1.0000 0.35320  0.85400  0.55650  Biso   1.000  H
  C183     1.0000 0.47050  0.83410  0.59980  Biso   1.000  C
  H157     1.0000 0.44730  0.81990  0.64080  Biso   1.000  H
  C184     1.0000 0.56390  0.83570  0.59000  Biso   1.000  C
  H158     1.0000 0.60190  0.82300  0.62470  Biso   1.000  H
  C185     1.0000 0.59910  0.85650  0.52840  Biso   1.000  C
  H159     1.0000 0.66040  0.85950  0.52220  Biso   1.000  H
  C186     1.0000 0.54060  0.87240  0.47650  Biso   1.000  C
  C187     1.0000 0.22770  0.89520  0.27330  Biso   1.000  C
  H160     1.0000 0.24170  0.85050  0.27080  Biso   1.000  H
  C188     1.0000 0.21470  0.99410  0.31190  Biso   1.000  C
  C189     1.0000 0.21370  0.05490  0.34690  Biso   1.000  C
  H161     1.0000 0.23480  0.05720  0.39090  Biso   1.000  H
  C190     1.0000 0.18200  0.10970  0.31630  Biso   1.000  C
  H162     1.0000 0.17950  0.14940  0.33990  Biso   1.000  H
  C191     1.0000 0.15370  0.10720  0.25090  Biso   1.000  C
  H163     1.0000 0.13320  0.14600  0.23100  Biso   1.000  H
  C192     1.0000 0.15380  0.05130  0.21360  Biso   1.000  C
  H164     1.0000 0.13500  0.05090  0.16900  Biso   1.000  H
  C193     1.0000 0.18390  0.99450  0.24600  Biso   1.000  C
  C194     1.0000 0.14380  0.78360  0.39260  Biso   1.000  C
  C195     1.0000 0.07270  0.82090  0.37000  Biso   1.000  C
  H165     1.0000 0.07320  0.86690  0.37050  Biso   1.000  H
  C196     1.0000 0.99930  0.78420  0.34610  Biso   1.000  C
  H166     1.0000 0.94960  0.80660  0.32990  Biso   1.000  H
  H167     1.0000 0.39800  0.29320  0.70110  Biso   1.000  H
  H168     1.0000 0.44330  0.23860  0.65660  Biso   1.000  H
  Zn15     1.0000 0.17859  0.89760  0.12661  Biso   1.000  Zn
  Zn16     1.0000 0.22451  0.10370  0.91876  Biso   1.000  Zn
  N57      1.0000 0.22710  0.80670  0.11400  Biso   1.000  N
  N58      1.0000 0.24160  0.96590  0.07450  Biso   1.000  N
  N59      1.0000 0.26080  0.04720  0.99510  Biso   1.000  N
  N60      1.0000 0.09190  0.10900  0.92890  Biso   1.000  N
  N61      1.0000 0.94350  0.10510  0.91250  Biso   1.000  N
  N62      1.0000 0.26070  0.06900  0.82960  Biso   1.000  N
  N63      1.0000 0.30570  0.07080  0.72060  Biso   1.000  N
  N64      1.0000 0.27650  0.19290  0.92080  Biso   1.000  N
  H169     1.0000 0.11830  0.78180  0.21700  Biso   1.000  H
  C197     1.0000 0.28910  0.78390  0.06830  Biso   1.000  C
  C198     1.0000 0.34630  0.82040  0.02360  Biso   1.000  C
  H170     1.0000 0.34550  0.86640  0.02190  Biso   1.000  H
  C199     1.0000 0.40260  0.78340  0.98320  Biso   1.000  C
  H171     1.0000 0.44200  0.80540  0.95480  Biso   1.000  H
  C200     1.0000 0.20730  0.00020  0.02240  Biso   1.000  C
  H172     1.0000 0.15020  0.99210  0.00610  Biso   1.000  H
  C201     1.0000 0.32530  0.99210  0.07950  Biso   1.000  C
  C202     1.0000 0.39140  0.97670  0.12810  Biso   1.000  C
  H173     1.0000 0.38040  0.94640  0.16240  Biso   1.000  H
  C203     1.0000 0.47140  0.00790  0.12270  Biso   1.000  C
  H174     1.0000 0.51730  0.99620  0.15190  Biso   1.000  H
  C204     1.0000 0.48640  0.05720  0.07450  Biso   1.000  C
  H175     1.0000 0.54130  0.07840  0.07270  Biso   1.000  H
  C205     1.0000 0.42020  0.07440  0.02950  Biso   1.000  C
  H176     1.0000 0.42990  0.10760  0.99800  Biso   1.000  H
  C206     1.0000 0.33820  0.04140  0.03190  Biso   1.000  C
  C207     1.0000 0.03830  0.07480  0.81970  Biso   1.000  C
  H177     1.0000 0.98410  0.07760  0.79420  Biso   1.000  H
  H178     1.0000 0.08290  0.10220  0.79910  Biso   1.000  H
  H179     1.0000 0.05860  0.02980  0.82050  Biso   1.000  H
  C208     1.0000 0.02230  0.09720  0.88820  Biso   1.000  C
  C209     1.0000 0.05110  0.12850  0.98810  Biso   1.000  C
  C210     1.0000 0.08560  0.14670  0.04940  Biso   1.000  C
  H180     1.0000 0.14680  0.14600  0.05650  Biso   1.000  H
  C211     1.0000 0.02950  0.16590  0.09980  Biso   1.000  C
  H181     1.0000 0.05270  0.18010  0.14080  Biso   1.000  H
  C212     1.0000 0.93610  0.16430  0.09000  Biso   1.000  C
  H182     1.0000 0.89810  0.17700  0.12470  Biso   1.000  H
  C213     1.0000 0.90090  0.14350  0.02840  Biso   1.000  C
  H183     1.0000 0.83960  0.14050  0.02220  Biso   1.000  H
  C214     1.0000 0.95940  0.12760  0.97650  Biso   1.000  C
  C215     1.0000 0.27230  0.10480  0.77330  Biso   1.000  C
  H184     1.0000 0.25830  0.14950  0.77080  Biso   1.000  H
  C216     1.0000 0.28530  0.00590  0.81190  Biso   1.000  C
  C217     1.0000 0.28630  0.94510  0.84690  Biso   1.000  C
  H185     1.0000 0.26520  0.94280  0.89090  Biso   1.000  H
  C218     1.0000 0.31800  0.89030  0.81630  Biso   1.000  C
  H186     1.0000 0.32050  0.85060  0.83990  Biso   1.000  H
  C219     1.0000 0.34630  0.89280  0.75090  Biso   1.000  C
  H187     1.0000 0.36680  0.85400  0.73100  Biso   1.000  H
  C220     1.0000 0.34620  0.94870  0.71360  Biso   1.000  C
  H188     1.0000 0.36500  0.94910  0.66900  Biso   1.000  H
  C221     1.0000 0.31610  0.00550  0.74600  Biso   1.000  C
  C222     1.0000 0.35620  0.21640  0.89260  Biso   1.000  C
  C223     1.0000 0.42730  0.17910  0.87000  Biso   1.000  C
  H189     1.0000 0.42680  0.13310  0.87050  Biso   1.000  H
  C224     1.0000 0.50070  0.21580  0.84610  Biso   1.000  C
  H190     1.0000 0.55040  0.19340  0.82990  Biso   1.000  H
  H191     1.0000 0.10200  0.70680  0.20110  Biso   1.000  H
  H192     1.0000 0.05670  0.76140  0.15660  Biso   1.000  H
  C225     1.0000 0.39080  0.25000  0.68170  Biso   1.000  C
  C226     1.0000 0.31090  0.25000  0.63500  Biso   1.000  C
  C227     1.0000 0.10920  0.75000  0.18170  Biso   1.000  C
  C228     1.0000 0.18910  0.75000  0.13500  Biso   1.000  C
  C229     1.0000 0.60920  0.75000  0.31830  Biso   1.000  C
  C230     1.0000 0.68910  0.75000  0.36500  Biso   1.000  C
  C231     1.0000 0.89080  0.25000  0.81830  Biso   1.000  C
  C232     1.0000 0.81090  0.25000  0.86500  Biso   1.000  C
  C233     1.0000 0.26700  0.75000  0.43290  Biso   1.000  C
  C234     1.0000 0.23300  0.25000  0.93290  Biso   1.000  C
  C235     1.0000 0.73300  0.25000  0.56710  Biso   1.000  C
  C236     1.0000 0.76700  0.75000  0.06710  Biso   1.000  C
