data_image0
_cell_length_a       13.4537
_cell_length_b       13.4537
_cell_length_c       27.329
_cell_angle_alpha    90
_cell_angle_beta     90
_cell_angle_gamma    90

_symmetry_space_group_name_H-M    "P 1"
_symmetry_int_tables_number       1

loop_
  _symmetry_equiv_pos_as_xyz
  'x, y, z'

loop_
  _atom_site_label
  _atom_site_occupancy
  _atom_site_fract_x
  _atom_site_fract_y
  _atom_site_fract_z
  _atom_site_thermal_displace_type
  _atom_site_B_iso_or_equiv
  _atom_site_type_symbol
  O1       1.0000 0.44540  0.13860  0.36757  Biso   1.000  O
  Zn1      1.0000 0.52227  0.08925  0.44673  Biso   1.000  Zn
  N1       1.0000 0.51420  0.23290  0.46533  Biso   1.000  N
  O2       1.0000 0.57510  0.04490  0.38345  Biso   1.000  O
  C1       1.0000 0.51620  0.08460  0.35307  Biso   1.000  C
  C2       1.0000 0.53220  0.06770  0.29987  Biso   1.000  C
  C3       1.0000 0.47920  0.12050  0.26433  Biso   1.000  C
  N2       1.0000 0.40610  0.18180  0.27610  Biso   1.000  N
  H1       1.0000 0.37180  0.21020  0.25350  Biso   1.000  H
  H2       1.0000 0.39280  0.19320  0.30640  Biso   1.000  H
  C4       1.0000 0.60350  0.99900  0.28475  Biso   1.000  C
  H3       1.0000 0.64070  0.96560  0.30820  Biso   1.000  H
  N3       1.0000 0.47450  0.39220  0.46578  Biso   1.000  N
  N4       1.0000 0.53750  0.37570  0.50438  Biso   1.000  N
  C5       1.0000 0.46330  0.30630  0.44389  Biso   1.000  C
  H4       1.0000 0.42400  0.29730  0.41630  Biso   1.000  H
  C6       1.0000 0.56020  0.28070  0.50279  Biso   1.000  C
  H5       1.0000 0.62000  0.25900  0.53000  Biso   1.000  H
  H6       1.0000 0.43110  0.16650  0.27350  Biso   1.000  H
  O3       1.0000 0.05460  0.36140  0.36757  Biso   1.000  O
  Zn2      1.0000 0.97773  0.41075  0.44673  Biso   1.000  Zn
  N5       1.0000 0.98580  0.26710  0.46533  Biso   1.000  N
  O4       1.0000 0.92490  0.45510  0.38345  Biso   1.000  O
  C7       1.0000 0.98380  0.41540  0.35307  Biso   1.000  C
  C8       1.0000 0.96780  0.43230  0.29987  Biso   1.000  C
  C9       1.0000 0.02080  0.37950  0.26433  Biso   1.000  C
  N6       1.0000 0.09390  0.31820  0.27610  Biso   1.000  N
  H7       1.0000 0.12820  0.28980  0.25350  Biso   1.000  H
  H8       1.0000 0.10720  0.30680  0.30640  Biso   1.000  H
  C10      1.0000 0.89650  0.50100  0.28475  Biso   1.000  C
  H9       1.0000 0.85930  0.53440  0.30820  Biso   1.000  H
  N7       1.0000 0.02550  0.10780  0.46578  Biso   1.000  N
  N8       1.0000 0.96250  0.12430  0.50438  Biso   1.000  N
  C11      1.0000 0.03670  0.19370  0.44389  Biso   1.000  C
  H10      1.0000 0.07600  0.20270  0.41630  Biso   1.000  H
  C12      1.0000 0.93980  0.21930  0.50279  Biso   1.000  C
  H11      1.0000 0.88000  0.24100  0.53000  Biso   1.000  H
  H12      1.0000 0.06890  0.33350  0.27350  Biso   1.000  H
  O5       1.0000 0.36140  0.44540  0.36757  Biso   1.000  O
  Zn3      1.0000 0.41075  0.52227  0.44673  Biso   1.000  Zn
  N9       1.0000 0.26710  0.51420  0.46533  Biso   1.000  N
  O6       1.0000 0.45510  0.57510  0.38345  Biso   1.000  O
  C13      1.0000 0.41540  0.51620  0.35307  Biso   1.000  C
  C14      1.0000 0.43230  0.53220  0.29987  Biso   1.000  C
  C15      1.0000 0.37950  0.47920  0.26433  Biso   1.000  C
  N10      1.0000 0.31820  0.40610  0.27610  Biso   1.000  N
  H13      1.0000 0.28980  0.37180  0.25350  Biso   1.000  H
  H14      1.0000 0.30680  0.39280  0.30640  Biso   1.000  H
  C16      1.0000 0.50100  0.60350  0.28475  Biso   1.000  C
  H15      1.0000 0.53440  0.64070  0.30820  Biso   1.000  H
  N11      1.0000 0.10780  0.47450  0.46578  Biso   1.000  N
  N12      1.0000 0.12430  0.53750  0.50438  Biso   1.000  N
  C17      1.0000 0.19370  0.46330  0.44389  Biso   1.000  C
  H16      1.0000 0.20270  0.42400  0.41630  Biso   1.000  H
  C18      1.0000 0.21930  0.56020  0.50279  Biso   1.000  C
  H17      1.0000 0.24100  0.62000  0.53000  Biso   1.000  H
  H18      1.0000 0.33350  0.43110  0.27350  Biso   1.000  H
  O7       1.0000 0.13860  0.05460  0.36757  Biso   1.000  O
  Zn4      1.0000 0.08925  0.97773  0.44673  Biso   1.000  Zn
  N13      1.0000 0.23290  0.98580  0.46533  Biso   1.000  N
  O8       1.0000 0.04490  0.92490  0.38345  Biso   1.000  O
  C19      1.0000 0.08460  0.98380  0.35307  Biso   1.000  C
  C20      1.0000 0.06770  0.96780  0.29987  Biso   1.000  C
  C21      1.0000 0.12050  0.02080  0.26433  Biso   1.000  C
  N14      1.0000 0.18180  0.09390  0.27610  Biso   1.000  N
  H19      1.0000 0.21020  0.12820  0.25350  Biso   1.000  H
  H20      1.0000 0.19320  0.10720  0.30640  Biso   1.000  H
  C22      1.0000 0.99900  0.89650  0.28475  Biso   1.000  C
  H21      1.0000 0.96560  0.85930  0.30820  Biso   1.000  H
  N15      1.0000 0.39220  0.02550  0.46578  Biso   1.000  N
  N16      1.0000 0.37570  0.96250  0.50438  Biso   1.000  N
  C23      1.0000 0.30630  0.03670  0.44389  Biso   1.000  C
  H22      1.0000 0.29730  0.07600  0.41630  Biso   1.000  H
  C24      1.0000 0.28070  0.93980  0.50279  Biso   1.000  C
  H23      1.0000 0.25900  0.88000  0.53000  Biso   1.000  H
  H24      1.0000 0.16650  0.06890  0.27350  Biso   1.000  H
  O9       1.0000 0.55460  0.63860  0.13243  Biso   1.000  O
  Zn5      1.0000 0.47773  0.58925  0.05327  Biso   1.000  Zn
  N17      1.0000 0.48580  0.73290  0.03467  Biso   1.000  N
  O10      1.0000 0.42490  0.54490  0.11655  Biso   1.000  O
  C25      1.0000 0.48380  0.58460  0.14693  Biso   1.000  C
  C26      1.0000 0.46780  0.56770  0.20013  Biso   1.000  C
  C27      1.0000 0.52080  0.62050  0.23567  Biso   1.000  C
  N18      1.0000 0.59390  0.68180  0.22390  Biso   1.000  N
  H25      1.0000 0.62820  0.71020  0.24650  Biso   1.000  H
  H26      1.0000 0.60720  0.69320  0.19360  Biso   1.000  H
  C28      1.0000 0.39650  0.49900  0.21525  Biso   1.000  C
  H27      1.0000 0.35930  0.46560  0.19180  Biso   1.000  H
  N19      1.0000 0.52550  0.89220  0.03422  Biso   1.000  N
  N20      1.0000 0.46250  0.87570  0.99562  Biso   1.000  N
  C29      1.0000 0.53670  0.80630  0.05611  Biso   1.000  C
  H28      1.0000 0.57600  0.79730  0.08370  Biso   1.000  H
  C30      1.0000 0.43980  0.78070  0.99721  Biso   1.000  C
  H29      1.0000 0.38000  0.75900  0.97000  Biso   1.000  H
  H30      1.0000 0.56890  0.66650  0.22650  Biso   1.000  H
  O11      1.0000 0.94540  0.86140  0.13243  Biso   1.000  O
  Zn6      1.0000 0.02227  0.91075  0.05327  Biso   1.000  Zn
  N21      1.0000 0.01420  0.76710  0.03467  Biso   1.000  N
  O12      1.0000 0.07510  0.95510  0.11655  Biso   1.000  O
  C31      1.0000 0.01620  0.91540  0.14693  Biso   1.000  C
  C32      1.0000 0.03220  0.93230  0.20013  Biso   1.000  C
  C33      1.0000 0.97920  0.87950  0.23567  Biso   1.000  C
  N22      1.0000 0.90610  0.81820  0.22390  Biso   1.000  N
  H31      1.0000 0.87180  0.78980  0.24650  Biso   1.000  H
  H32      1.0000 0.89280  0.80680  0.19360  Biso   1.000  H
  C34      1.0000 0.10350  0.00100  0.21525  Biso   1.000  C
  H33      1.0000 0.14070  0.03440  0.19180  Biso   1.000  H
  N23      1.0000 0.97450  0.60780  0.03422  Biso   1.000  N
  N24      1.0000 0.03750  0.62430  0.99562  Biso   1.000  N
  C35      1.0000 0.96330  0.69370  0.05611  Biso   1.000  C
  H34      1.0000 0.92400  0.70270  0.08370  Biso   1.000  H
  C36      1.0000 0.06020  0.71930  0.99721  Biso   1.000  C
  H35      1.0000 0.12000  0.74100  0.97000  Biso   1.000  H
  H36      1.0000 0.93110  0.83350  0.22650  Biso   1.000  H
  O13      1.0000 0.63860  0.94540  0.13243  Biso   1.000  O
  Zn7      1.0000 0.58925  0.02227  0.05327  Biso   1.000  Zn
  N25      1.0000 0.73290  0.01420  0.03467  Biso   1.000  N
  O14      1.0000 0.54490  0.07510  0.11655  Biso   1.000  O
  C37      1.0000 0.58460  0.01620  0.14693  Biso   1.000  C
  C38      1.0000 0.56770  0.03220  0.20013  Biso   1.000  C
  C39      1.0000 0.62050  0.97920  0.23567  Biso   1.000  C
  N26      1.0000 0.68180  0.90610  0.22390  Biso   1.000  N
  H37      1.0000 0.71020  0.87180  0.24650  Biso   1.000  H
  H38      1.0000 0.69320  0.89280  0.19360  Biso   1.000  H
  C40      1.0000 0.49900  0.10350  0.21525  Biso   1.000  C
  H39      1.0000 0.46560  0.14070  0.19180  Biso   1.000  H
  N27      1.0000 0.89220  0.97450  0.03422  Biso   1.000  N
  N28      1.0000 0.87570  0.03750  0.99562  Biso   1.000  N
  C41      1.0000 0.80630  0.96330  0.05611  Biso   1.000  C
  H40      1.0000 0.79730  0.92400  0.08370  Biso   1.000  H
  C42      1.0000 0.78070  0.06020  0.99721  Biso   1.000  C
  H41      1.0000 0.75900  0.12000  0.97000  Biso   1.000  H
  H42      1.0000 0.66650  0.93110  0.22650  Biso   1.000  H
  O15      1.0000 0.86140  0.55460  0.13243  Biso   1.000  O
  Zn8      1.0000 0.91075  0.47773  0.05327  Biso   1.000  Zn
  N29      1.0000 0.76710  0.48580  0.03467  Biso   1.000  N
  O16      1.0000 0.95510  0.42490  0.11655  Biso   1.000  O
  C43      1.0000 0.91540  0.48380  0.14693  Biso   1.000  C
  C44      1.0000 0.93230  0.46780  0.20013  Biso   1.000  C
  C45      1.0000 0.87950  0.52080  0.23567  Biso   1.000  C
  N30      1.0000 0.81820  0.59390  0.22390  Biso   1.000  N
  H43      1.0000 0.78980  0.62820  0.24650  Biso   1.000  H
  H44      1.0000 0.80680  0.60720  0.19360  Biso   1.000  H
  C46      1.0000 0.00100  0.39650  0.21525  Biso   1.000  C
  H45      1.0000 0.03440  0.35930  0.19180  Biso   1.000  H
  N31      1.0000 0.60780  0.52550  0.03422  Biso   1.000  N
  N32      1.0000 0.62430  0.46250  0.99562  Biso   1.000  N
  C47      1.0000 0.69370  0.53670  0.05611  Biso   1.000  C
  H46      1.0000 0.70270  0.57600  0.08370  Biso   1.000  H
  C48      1.0000 0.71930  0.43980  0.99721  Biso   1.000  C
  H47      1.0000 0.74100  0.38000  0.97000  Biso   1.000  H
  H48      1.0000 0.83350  0.56890  0.22650  Biso   1.000  H
  O17      1.0000 0.55460  0.86140  0.63243  Biso   1.000  O
  Zn9      1.0000 0.47773  0.91075  0.55327  Biso   1.000  Zn
  N33      1.0000 0.48580  0.76710  0.53467  Biso   1.000  N
  O18      1.0000 0.42490  0.95510  0.61655  Biso   1.000  O
  C49      1.0000 0.48380  0.91540  0.64693  Biso   1.000  C
  C50      1.0000 0.46780  0.93230  0.70013  Biso   1.000  C
  C51      1.0000 0.52080  0.87950  0.73567  Biso   1.000  C
  N34      1.0000 0.59390  0.81820  0.72390  Biso   1.000  N
  H49      1.0000 0.62820  0.78980  0.74650  Biso   1.000  H
  H50      1.0000 0.60720  0.80680  0.69360  Biso   1.000  H
  C52      1.0000 0.39650  0.00100  0.71525  Biso   1.000  C
  H51      1.0000 0.35930  0.03440  0.69180  Biso   1.000  H
  N35      1.0000 0.52550  0.60780  0.53422  Biso   1.000  N
  N36      1.0000 0.46250  0.62430  0.49562  Biso   1.000  N
  C53      1.0000 0.53670  0.69370  0.55611  Biso   1.000  C
  H52      1.0000 0.57600  0.70270  0.58370  Biso   1.000  H
  C54      1.0000 0.43980  0.71930  0.49721  Biso   1.000  C
  H53      1.0000 0.38000  0.74100  0.47000  Biso   1.000  H
  H54      1.0000 0.56890  0.83350  0.72650  Biso   1.000  H
  O19      1.0000 0.94540  0.63860  0.63243  Biso   1.000  O
  Zn10     1.0000 0.02227  0.58925  0.55327  Biso   1.000  Zn
  N37      1.0000 0.01420  0.73290  0.53467  Biso   1.000  N
  O20      1.0000 0.07510  0.54490  0.61655  Biso   1.000  O
  C55      1.0000 0.01620  0.58460  0.64693  Biso   1.000  C
  C56      1.0000 0.03220  0.56770  0.70013  Biso   1.000  C
  C57      1.0000 0.97920  0.62050  0.73567  Biso   1.000  C
  N38      1.0000 0.90610  0.68180  0.72390  Biso   1.000  N
  H55      1.0000 0.87180  0.71020  0.74650  Biso   1.000  H
  H56      1.0000 0.89280  0.69320  0.69360  Biso   1.000  H
  C58      1.0000 0.10350  0.49900  0.71525  Biso   1.000  C
  H57      1.0000 0.14070  0.46560  0.69180  Biso   1.000  H
  N39      1.0000 0.97450  0.89220  0.53422  Biso   1.000  N
  N40      1.0000 0.03750  0.87570  0.49562  Biso   1.000  N
  C59      1.0000 0.96330  0.80630  0.55611  Biso   1.000  C
  H58      1.0000 0.92400  0.79730  0.58370  Biso   1.000  H
  C60      1.0000 0.06020  0.78070  0.49721  Biso   1.000  C
  H59      1.0000 0.12000  0.75900  0.47000  Biso   1.000  H
  H60      1.0000 0.93110  0.66650  0.72650  Biso   1.000  H
  O21      1.0000 0.63860  0.55460  0.63243  Biso   1.000  O
  Zn11     1.0000 0.58925  0.47773  0.55327  Biso   1.000  Zn
  N41      1.0000 0.73290  0.48580  0.53467  Biso   1.000  N
  O22      1.0000 0.54490  0.42490  0.61655  Biso   1.000  O
  C61      1.0000 0.58460  0.48380  0.64693  Biso   1.000  C
  C62      1.0000 0.56770  0.46780  0.70013  Biso   1.000  C
  C63      1.0000 0.62050  0.52080  0.73567  Biso   1.000  C
  N42      1.0000 0.68180  0.59390  0.72390  Biso   1.000  N
  H61      1.0000 0.71020  0.62820  0.74650  Biso   1.000  H
  H62      1.0000 0.69320  0.60720  0.69360  Biso   1.000  H
  C64      1.0000 0.49900  0.39650  0.71525  Biso   1.000  C
  H63      1.0000 0.46560  0.35930  0.69180  Biso   1.000  H
  N43      1.0000 0.89220  0.52550  0.53422  Biso   1.000  N
  N44      1.0000 0.87570  0.46250  0.49562  Biso   1.000  N
  C65      1.0000 0.80630  0.53670  0.55611  Biso   1.000  C
  H64      1.0000 0.79730  0.57600  0.58370  Biso   1.000  H
  C66      1.0000 0.78070  0.43980  0.49721  Biso   1.000  C
  H65      1.0000 0.75900  0.38000  0.47000  Biso   1.000  H
  H66      1.0000 0.66650  0.56890  0.72650  Biso   1.000  H
  O23      1.0000 0.86140  0.94540  0.63243  Biso   1.000  O
  Zn12     1.0000 0.91075  0.02227  0.55327  Biso   1.000  Zn
  N45      1.0000 0.76710  0.01420  0.53467  Biso   1.000  N
  O24      1.0000 0.95510  0.07510  0.61655  Biso   1.000  O
  C67      1.0000 0.91540  0.01620  0.64693  Biso   1.000  C
  C68      1.0000 0.93230  0.03220  0.70013  Biso   1.000  C
  C69      1.0000 0.87950  0.97920  0.73567  Biso   1.000  C
  N46      1.0000 0.81820  0.90610  0.72390  Biso   1.000  N
  H67      1.0000 0.78980  0.87180  0.74650  Biso   1.000  H
  H68      1.0000 0.80680  0.89280  0.69360  Biso   1.000  H
  C70      1.0000 0.00100  0.10350  0.71525  Biso   1.000  C
  H69      1.0000 0.03440  0.14070  0.69180  Biso   1.000  H
  N47      1.0000 0.60780  0.97450  0.53422  Biso   1.000  N
  N48      1.0000 0.62430  0.03750  0.49562  Biso   1.000  N
  C71      1.0000 0.69370  0.96330  0.55611  Biso   1.000  C
  H70      1.0000 0.70270  0.92400  0.58370  Biso   1.000  H
  C72      1.0000 0.71930  0.06020  0.49721  Biso   1.000  C
  H71      1.0000 0.74100  0.12000  0.47000  Biso   1.000  H
  H72      1.0000 0.83350  0.93110  0.72650  Biso   1.000  H
  O25      1.0000 0.44540  0.36140  0.86757  Biso   1.000  O
  Zn13     1.0000 0.52227  0.41075  0.94673  Biso   1.000  Zn
  N49      1.0000 0.51420  0.26710  0.96533  Biso   1.000  N
  O26      1.0000 0.57510  0.45510  0.88345  Biso   1.000  O
  C73      1.0000 0.51620  0.41540  0.85307  Biso   1.000  C
  C74      1.0000 0.53220  0.43230  0.79987  Biso   1.000  C
  C75      1.0000 0.47920  0.37950  0.76433  Biso   1.000  C
  N50      1.0000 0.40610  0.31820  0.77610  Biso   1.000  N
  H73      1.0000 0.37180  0.28980  0.75350  Biso   1.000  H
  H74      1.0000 0.39280  0.30680  0.80640  Biso   1.000  H
  C76      1.0000 0.60350  0.50100  0.78475  Biso   1.000  C
  H75      1.0000 0.64070  0.53440  0.80820  Biso   1.000  H
  N51      1.0000 0.47450  0.10780  0.96578  Biso   1.000  N
  N52      1.0000 0.53750  0.12430  0.00438  Biso   1.000  N
  C77      1.0000 0.46330  0.19370  0.94389  Biso   1.000  C
  H76      1.0000 0.42400  0.20270  0.91630  Biso   1.000  H
  C78      1.0000 0.56020  0.21930  0.00279  Biso   1.000  C
  H77      1.0000 0.62000  0.24100  0.03000  Biso   1.000  H
  H78      1.0000 0.43110  0.33350  0.77350  Biso   1.000  H
  O27      1.0000 0.05460  0.13860  0.86757  Biso   1.000  O
  Zn14     1.0000 0.97773  0.08925  0.94673  Biso   1.000  Zn
  N53      1.0000 0.98580  0.23290  0.96533  Biso   1.000  N
  O28      1.0000 0.92490  0.04490  0.88345  Biso   1.000  O
  C79      1.0000 0.98380  0.08460  0.85307  Biso   1.000  C
  C80      1.0000 0.96780  0.06770  0.79987  Biso   1.000  C
  C81      1.0000 0.02080  0.12050  0.76433  Biso   1.000  C
  N54      1.0000 0.09390  0.18180  0.77610  Biso   1.000  N
  H79      1.0000 0.12820  0.21020  0.75350  Biso   1.000  H
  H80      1.0000 0.10720  0.19320  0.80640  Biso   1.000  H
  C82      1.0000 0.89650  0.99900  0.78475  Biso   1.000  C
  H81      1.0000 0.85930  0.96560  0.80820  Biso   1.000  H
  N55      1.0000 0.02550  0.39220  0.96578  Biso   1.000  N
  N56      1.0000 0.96250  0.37570  0.00438  Biso   1.000  N
  C83      1.0000 0.03670  0.30630  0.94389  Biso   1.000  C
  H82      1.0000 0.07600  0.29730  0.91630  Biso   1.000  H
  C84      1.0000 0.93980  0.28070  0.00279  Biso   1.000  C
  H83      1.0000 0.88000  0.25900  0.03000  Biso   1.000  H
  H84      1.0000 0.06890  0.16650  0.77350  Biso   1.000  H
  O29      1.0000 0.36140  0.05460  0.86757  Biso   1.000  O
  Zn15     1.0000 0.41075  0.97773  0.94673  Biso   1.000  Zn
  N57      1.0000 0.26710  0.98580  0.96533  Biso   1.000  N
  O30      1.0000 0.45510  0.92490  0.88345  Biso   1.000  O
  C85      1.0000 0.41540  0.98380  0.85307  Biso   1.000  C
  C86      1.0000 0.43230  0.96780  0.79987  Biso   1.000  C
  C87      1.0000 0.37950  0.02080  0.76433  Biso   1.000  C
  N58      1.0000 0.31820  0.09390  0.77610  Biso   1.000  N
  H85      1.0000 0.28980  0.12820  0.75350  Biso   1.000  H
  H86      1.0000 0.30680  0.10720  0.80640  Biso   1.000  H
  C88      1.0000 0.50100  0.89650  0.78475  Biso   1.000  C
  H87      1.0000 0.53440  0.85930  0.80820  Biso   1.000  H
  N59      1.0000 0.10780  0.02550  0.96578  Biso   1.000  N
  N60      1.0000 0.12430  0.96250  0.00438  Biso   1.000  N
  C89      1.0000 0.19370  0.03670  0.94389  Biso   1.000  C
  H88      1.0000 0.20270  0.07600  0.91630  Biso   1.000  H
  C90      1.0000 0.21930  0.93980  0.00279  Biso   1.000  C
  H89      1.0000 0.24100  0.88000  0.03000  Biso   1.000  H
  H90      1.0000 0.33350  0.06890  0.77350  Biso   1.000  H
  O31      1.0000 0.13860  0.44540  0.86757  Biso   1.000  O
  Zn16     1.0000 0.08925  0.52227  0.94673  Biso   1.000  Zn
  N61      1.0000 0.23290  0.51420  0.96533  Biso   1.000  N
  O32      1.0000 0.04490  0.57510  0.88345  Biso   1.000  O
  C91      1.0000 0.08460  0.51620  0.85307  Biso   1.000  C
  C92      1.0000 0.06770  0.53220  0.79987  Biso   1.000  C
  C93      1.0000 0.12050  0.47920  0.76433  Biso   1.000  C
  N62      1.0000 0.18180  0.40610  0.77610  Biso   1.000  N
  H91      1.0000 0.21020  0.37180  0.75350  Biso   1.000  H
  H92      1.0000 0.19320  0.39280  0.80640  Biso   1.000  H
  C94      1.0000 0.99900  0.60350  0.78475  Biso   1.000  C
  H93      1.0000 0.96560  0.64070  0.80820  Biso   1.000  H
  N63      1.0000 0.39220  0.47450  0.96578  Biso   1.000  N
  N64      1.0000 0.37570  0.53750  0.00438  Biso   1.000  N
  C95      1.0000 0.30630  0.46330  0.94389  Biso   1.000  C
  H94      1.0000 0.29730  0.42400  0.91630  Biso   1.000  H
  C96      1.0000 0.28070  0.56020  0.00279  Biso   1.000  C
  H95      1.0000 0.25900  0.62000  0.03000  Biso   1.000  H
  H96      1.0000 0.16650  0.43110  0.77350  Biso   1.000  H
