data_image0
_cell_length_a       14.1192
_cell_length_b       33.389
_cell_length_c       16.938
_cell_angle_alpha    90
_cell_angle_beta     111.664
_cell_angle_gamma    90

_symmetry_space_group_name_H-M    "P 1"
_symmetry_int_tables_number       1

loop_
  _symmetry_equiv_pos_as_xyz
  'x, y, z'

loop_
  _atom_site_label
  _atom_site_occupancy
  _atom_site_fract_x
  _atom_site_fract_y
  _atom_site_fract_z
  _atom_site_thermal_displace_type
  _atom_site_B_iso_or_equiv
  _atom_site_type_symbol
  Zn1      1.0000 0.66439  0.13430  0.40264  Biso   1.000  Zn
  O1       1.0000 0.54300  0.09520  0.38600  Biso   1.000  O
  Zn2      1.0000 0.49470  0.21115  0.41480  Biso   1.000  Zn
  Zn3      1.0000 0.31271  0.05949  0.82360  Biso   1.000  Zn
  Zn4      1.0000 0.09577  0.08720  0.85130  Biso   1.000  Zn
  O2       1.0000 0.58320  0.18490  0.51980  Biso   1.000  O
  O3       1.0000 0.71190  0.14720  0.52480  Biso   1.000  O
  O4       1.0000 0.96010  0.10930  0.80660  Biso   1.000  O
  O5       1.0000 0.00010  0.15660  0.90540  Biso   1.000  O
  O6       1.0000 0.84810  0.27600  0.83100  Biso   1.000  O
  O7       1.0000 0.86170  0.29350  0.95410  Biso   1.000  O
  O8       1.0000 0.33200  0.11740  0.86200  Biso   1.000  O
  O9       1.0000 0.16510  0.12990  0.80940  Biso   1.000  O
  O10      1.0000 0.07750  0.26940  0.85270  Biso   1.000  O
  O11      1.0000 0.17730  0.31860  0.84080  Biso   1.000  O
  O12      1.0000 0.75630  0.09690  0.38040  Biso   1.000  O
  O13      1.0000 0.88260  0.14070  0.42520  Biso   1.000  O
  O14      1.0000 0.79970  0.97290  0.24710  Biso   1.000  O
  O15      1.0000 0.93360  0.96390  0.21110  Biso   1.000  O
  O16      1.0000 0.48500  0.15040  0.36100  Biso   1.000  O
  O17      1.0000 0.18260  0.07840  0.96910  Biso   1.000  O
  O18      1.0000 0.30070  0.04650  0.93430  Biso   1.000  O
  O19      1.0000 0.58400  0.97540  0.28600  Biso   1.000  O
  O20      1.0000 0.56320  0.97180  0.15420  Biso   1.000  O
  C1       1.0000 0.66460  0.16820  0.55830  Biso   1.000  C
  C2       1.0000 0.70780  0.17430  0.64890  Biso   1.000  C
  C3       1.0000 0.66370  0.20020  0.69160  Biso   1.000  C
  H1       1.0000 0.60210  0.21260  0.66070  Biso   1.000  H
  C4       1.0000 0.70770  0.20760  0.77600  Biso   1.000  C
  C5       1.0000 0.79910  0.18860  0.82430  Biso   1.000  C
  H2       1.0000 0.82900  0.19390  0.88220  Biso   1.000  H
  C6       1.0000 0.84610  0.16170  0.78670  Biso   1.000  C
  C7       1.0000 0.80090  0.15490  0.70330  Biso   1.000  C
  H3       1.0000 0.83100  0.13640  0.67860  Biso   1.000  H
  C8       1.0000 0.94400  0.14170  0.83900  Biso   1.000  C
  C9       1.0000 0.65570  0.23490  0.81710  Biso   1.000  C
  C10      1.0000 0.70070  0.26840  0.86840  Biso   1.000  C
  C11      1.0000 0.64570  0.29140  0.90250  Biso   1.000  C
  H4       1.0000 0.67660  0.31360  0.93480  Biso   1.000  H
  C12      1.0000 0.54710  0.28300  0.89120  Biso   1.000  C
  H5       1.0000 0.51090  0.29960  0.91420  Biso   1.000  H
  C13      1.0000 0.50040  0.24820  0.84340  Biso   1.000  C
  C14      1.0000 0.55410  0.22620  0.80550  Biso   1.000  C
  H6       1.0000 0.52200  0.20480  0.77080  Biso   1.000  H
  C15      1.0000 0.81000  0.27970  0.88400  Biso   1.000  C
  C16      1.0000 0.39530  0.23660  0.83620  Biso   1.000  C
  C17      1.0000 0.37090  0.19560  0.82660  Biso   1.000  C
  H7       1.0000 0.41740  0.17710  0.82140  Biso   1.000  H
  C18      1.0000 0.27540  0.18300  0.82510  Biso   1.000  C
  C19      1.0000 0.20540  0.21090  0.82720  Biso   1.000  C
  H8       1.0000 0.14180  0.20250  0.82520  Biso   1.000  H
  C20      1.0000 0.22790  0.25170  0.83220  Biso   1.000  C
  C21      1.0000 0.32280  0.26480  0.83640  Biso   1.000  C
  H9       1.0000 0.33780  0.29200  0.83920  Biso   1.000  H
  C22      1.0000 0.15620  0.28300  0.84170  Biso   1.000  C
  C23      1.0000 0.25300  0.14000  0.82300  Biso   1.000  C
  C24      1.0000 0.84650  0.10970  0.38990  Biso   1.000  C
  C25      1.0000 0.90800  0.08180  0.35800  Biso   1.000  C
  C26      1.0000 0.86680  0.04620  0.31530  Biso   1.000  C
  H10      1.0000 0.80010  0.03900  0.30650  Biso   1.000  H
  C27      1.0000 0.92610  0.02200  0.28630  Biso   1.000  C
  C28      1.0000 0.02550  0.03290  0.29890  Biso   1.000  C
  H11      1.0000 0.06490  0.01560  0.28080  Biso   1.000  H
  C29      1.0000 0.06730  0.06790  0.33660  Biso   1.000  C
  C30      1.0000 0.00680  0.09240  0.36800  Biso   1.000  C
  H12      1.0000 0.03400  0.11610  0.39610  Biso   1.000  H
  C31      1.0000 0.88360  0.98330  0.24220  Biso   1.000  C
  C32      1.0000 0.17270  0.07900  0.34890  Biso   1.000  C
  C33      1.0000 0.23500  0.10120  0.41720  Biso   1.000  C
  H13      1.0000 0.21080  0.11080  0.45780  Biso   1.000  H
  C34      1.0000 0.33440  0.10910  0.42420  Biso   1.000  C
  H14      1.0000 0.37660  0.12330  0.47120  Biso   1.000  H
  C35      1.0000 0.37220  0.09700  0.36570  Biso   1.000  C
  C36      1.0000 0.31100  0.07550  0.29480  Biso   1.000  C
  C37      1.0000 0.21030  0.06720  0.28680  Biso   1.000  C
  H15      1.0000 0.16760  0.05350  0.23900  Biso   1.000  H
  C38      1.0000 0.47900  0.11060  0.38400  Biso   1.000  C
  C39      1.0000 0.34580  0.05900  0.22770  Biso   1.000  C
  C40      1.0000 0.29140  0.06630  0.14320  Biso   1.000  C
  H16      1.0000 0.23350  0.08230  0.12820  Biso   1.000  H
  C41      1.0000 0.32060  0.05040  0.07820  Biso   1.000  C
  C42      1.0000 0.40350  0.02610  0.10130  Biso   1.000  C
  H17      1.0000 0.42380  0.01520  0.05950  Biso   1.000  H
  C43      1.0000 0.46020  0.01670  0.18860  Biso   1.000  C
  C44      1.0000 0.43100  0.03450  0.25010  Biso   1.000  C
  H18      1.0000 0.46920  0.02990  0.30720  Biso   1.000  H
  C45      1.0000 0.26600  0.05870  0.98920  Biso   1.000  C
  C46      1.0000 0.54900  0.98890  0.21400  Biso   1.000  C
  O21      1.0000 0.55500  0.08310  0.43800  Biso   1.000  O
  O22      1.0000 0.32100  0.11640  0.81800  Biso   1.000  O
  O23      1.0000 0.50800  0.13100  0.34200  Biso   1.000  O
  O24      1.0000 0.61200  0.99250  0.28900  Biso   1.000  O
  Zn5      1.0000 0.83561  0.63430  0.09736  Biso   1.000  Zn
  O25      1.0000 0.95700  0.59520  0.11400  Biso   1.000  O
  Zn6      1.0000 0.00530  0.71115  0.08520  Biso   1.000  Zn
  Zn7      1.0000 0.18729  0.55949  0.67640  Biso   1.000  Zn
  Zn8      1.0000 0.40423  0.58720  0.64870  Biso   1.000  Zn
  O26      1.0000 0.91680  0.68490  0.98020  Biso   1.000  O
  O27      1.0000 0.78810  0.64720  0.97520  Biso   1.000  O
  O28      1.0000 0.53990  0.60930  0.69340  Biso   1.000  O
  O29      1.0000 0.49990  0.65660  0.59460  Biso   1.000  O
  O30      1.0000 0.65190  0.77600  0.66900  Biso   1.000  O
  O31      1.0000 0.63830  0.79350  0.54590  Biso   1.000  O
  O32      1.0000 0.16800  0.61740  0.63800  Biso   1.000  O
  O33      1.0000 0.33490  0.62990  0.69060  Biso   1.000  O
  O34      1.0000 0.42250  0.76940  0.64730  Biso   1.000  O
  O35      1.0000 0.32270  0.81860  0.65920  Biso   1.000  O
  O36      1.0000 0.74370  0.59690  0.11960  Biso   1.000  O
  O37      1.0000 0.61740  0.64070  0.07480  Biso   1.000  O
  O38      1.0000 0.70030  0.47290  0.25290  Biso   1.000  O
  O39      1.0000 0.56640  0.46390  0.28890  Biso   1.000  O
  O40      1.0000 0.01500  0.65040  0.13900  Biso   1.000  O
  O41      1.0000 0.31740  0.57840  0.53090  Biso   1.000  O
  O42      1.0000 0.19930  0.54650  0.56570  Biso   1.000  O
  O43      1.0000 0.91600  0.47540  0.21400  Biso   1.000  O
  O44      1.0000 0.93680  0.47180  0.34580  Biso   1.000  O
  C47      1.0000 0.83540  0.66820  0.94170  Biso   1.000  C
  C48      1.0000 0.79220  0.67430  0.85110  Biso   1.000  C
  C49      1.0000 0.83630  0.70020  0.80840  Biso   1.000  C
  H19      1.0000 0.89790  0.71260  0.83930  Biso   1.000  H
  C50      1.0000 0.79230  0.70760  0.72400  Biso   1.000  C
  C51      1.0000 0.70090  0.68860  0.67570  Biso   1.000  C
  H20      1.0000 0.67100  0.69390  0.61780  Biso   1.000  H
  C52      1.0000 0.65390  0.66170  0.71330  Biso   1.000  C
  C53      1.0000 0.69910  0.65490  0.79670  Biso   1.000  C
  H21      1.0000 0.66900  0.63640  0.82140  Biso   1.000  H
  C54      1.0000 0.55600  0.64170  0.66100  Biso   1.000  C
  C55      1.0000 0.84430  0.73490  0.68290  Biso   1.000  C
  C56      1.0000 0.79930  0.76840  0.63160  Biso   1.000  C
  C57      1.0000 0.85430  0.79140  0.59750  Biso   1.000  C
  H22      1.0000 0.82340  0.81360  0.56520  Biso   1.000  H
  C58      1.0000 0.95290  0.78300  0.60880  Biso   1.000  C
  H23      1.0000 0.98910  0.79960  0.58580  Biso   1.000  H
  C59      1.0000 0.99960  0.74820  0.65660  Biso   1.000  C
  C60      1.0000 0.94590  0.72620  0.69450  Biso   1.000  C
  H24      1.0000 0.97800  0.70480  0.72920  Biso   1.000  H
  C61      1.0000 0.69000  0.77970  0.61600  Biso   1.000  C
  C62      1.0000 0.10470  0.73660  0.66380  Biso   1.000  C
  C63      1.0000 0.12910  0.69560  0.67340  Biso   1.000  C
  H25      1.0000 0.08260  0.67710  0.67860  Biso   1.000  H
  C64      1.0000 0.22460  0.68300  0.67490  Biso   1.000  C
  C65      1.0000 0.29460  0.71090  0.67280  Biso   1.000  C
  H26      1.0000 0.35820  0.70250  0.67480  Biso   1.000  H
  C66      1.0000 0.27210  0.75170  0.66780  Biso   1.000  C
  C67      1.0000 0.17720  0.76480  0.66360  Biso   1.000  C
  H27      1.0000 0.16220  0.79200  0.66080  Biso   1.000  H
  C68      1.0000 0.34380  0.78300  0.65830  Biso   1.000  C
  C69      1.0000 0.24700  0.64000  0.67700  Biso   1.000  C
  C70      1.0000 0.65350  0.60970  0.11010  Biso   1.000  C
  C71      1.0000 0.59200  0.58180  0.14200  Biso   1.000  C
  C72      1.0000 0.63320  0.54620  0.18470  Biso   1.000  C
  H28      1.0000 0.69990  0.53900  0.19350  Biso   1.000  H
  C73      1.0000 0.57390  0.52200  0.21370  Biso   1.000  C
  C74      1.0000 0.47450  0.53290  0.20110  Biso   1.000  C
  H29      1.0000 0.43510  0.51560  0.21920  Biso   1.000  H
  C75      1.0000 0.43270  0.56790  0.16340  Biso   1.000  C
  C76      1.0000 0.49320  0.59240  0.13200  Biso   1.000  C
  H30      1.0000 0.46600  0.61610  0.10390  Biso   1.000  H
  C77      1.0000 0.61640  0.48330  0.25780  Biso   1.000  C
  C78      1.0000 0.32730  0.57900  0.15110  Biso   1.000  C
  C79      1.0000 0.26500  0.60120  0.08280  Biso   1.000  C
  H31      1.0000 0.28920  0.61080  0.04220  Biso   1.000  H
  C80      1.0000 0.16560  0.60910  0.07580  Biso   1.000  C
  H32      1.0000 0.12340  0.62330  0.02880  Biso   1.000  H
  C81      1.0000 0.12780  0.59700  0.13430  Biso   1.000  C
  C82      1.0000 0.18900  0.57550  0.20520  Biso   1.000  C
  C83      1.0000 0.28970  0.56720  0.21320  Biso   1.000  C
  H33      1.0000 0.33240  0.55350  0.26100  Biso   1.000  H
  C84      1.0000 0.02100  0.61060  0.11600  Biso   1.000  C
  C85      1.0000 0.15420  0.55900  0.27230  Biso   1.000  C
  C86      1.0000 0.20860  0.56630  0.35680  Biso   1.000  C
  H34      1.0000 0.26650  0.58230  0.37180  Biso   1.000  H
  C87      1.0000 0.17940  0.55040  0.42180  Biso   1.000  C
  C88      1.0000 0.09650  0.52610  0.39870  Biso   1.000  C
  H35      1.0000 0.07620  0.51520  0.44050  Biso   1.000  H
  C89      1.0000 0.03980  0.51670  0.31140  Biso   1.000  C
  C90      1.0000 0.06900  0.53450  0.24990  Biso   1.000  C
  H36      1.0000 0.03080  0.52990  0.19280  Biso   1.000  H
  C91      1.0000 0.23400  0.55870  0.51080  Biso   1.000  C
  C92      1.0000 0.95100  0.48890  0.28600  Biso   1.000  C
  O45      1.0000 0.94500  0.58310  0.06200  Biso   1.000  O
  O46      1.0000 0.17900  0.61640  0.68200  Biso   1.000  O
  O47      1.0000 0.99200  0.63100  0.15800  Biso   1.000  O
  O48      1.0000 0.88800  0.49250  0.21100  Biso   1.000  O
  Zn9      1.0000 0.33561  0.86570  0.59736  Biso   1.000  Zn
  O49      1.0000 0.45700  0.90480  0.61400  Biso   1.000  O
  Zn10     1.0000 0.50530  0.78885  0.58520  Biso   1.000  Zn
  Zn11     1.0000 0.68729  0.94051  0.17640  Biso   1.000  Zn
  Zn12     1.0000 0.90423  0.91280  0.14870  Biso   1.000  Zn
  O50      1.0000 0.41680  0.81510  0.48020  Biso   1.000  O
  O51      1.0000 0.28810  0.85280  0.47520  Biso   1.000  O
  O52      1.0000 0.03990  0.89070  0.19340  Biso   1.000  O
  O53      1.0000 0.99990  0.84340  0.09460  Biso   1.000  O
  O54      1.0000 0.15190  0.72400  0.16900  Biso   1.000  O
  O55      1.0000 0.13830  0.70650  0.04590  Biso   1.000  O
  O56      1.0000 0.66800  0.88260  0.13800  Biso   1.000  O
  O57      1.0000 0.83490  0.87010  0.19060  Biso   1.000  O
  O58      1.0000 0.92250  0.73060  0.14730  Biso   1.000  O
  O59      1.0000 0.82270  0.68140  0.15920  Biso   1.000  O
  O60      1.0000 0.24370  0.90310  0.61960  Biso   1.000  O
  O61      1.0000 0.11740  0.85930  0.57480  Biso   1.000  O
  O62      1.0000 0.20030  0.02710  0.75290  Biso   1.000  O
  O63      1.0000 0.06640  0.03610  0.78890  Biso   1.000  O
  O64      1.0000 0.51500  0.84960  0.63900  Biso   1.000  O
  O65      1.0000 0.81740  0.92160  0.03090  Biso   1.000  O
  O66      1.0000 0.69930  0.95350  0.06570  Biso   1.000  O
  O67      1.0000 0.41600  0.02460  0.71400  Biso   1.000  O
  O68      1.0000 0.43680  0.02820  0.84580  Biso   1.000  O
  C93      1.0000 0.33540  0.83180  0.44170  Biso   1.000  C
  C94      1.0000 0.29220  0.82570  0.35110  Biso   1.000  C
  C95      1.0000 0.33630  0.79980  0.30840  Biso   1.000  C
  H37      1.0000 0.39790  0.78740  0.33930  Biso   1.000  H
  C96      1.0000 0.29230  0.79240  0.22400  Biso   1.000  C
  C97      1.0000 0.20090  0.81140  0.17570  Biso   1.000  C
  H38      1.0000 0.17100  0.80610  0.11780  Biso   1.000  H
  C98      1.0000 0.15390  0.83830  0.21330  Biso   1.000  C
  C99      1.0000 0.19910  0.84510  0.29670  Biso   1.000  C
  H39      1.0000 0.16900  0.86360  0.32140  Biso   1.000  H
  C100     1.0000 0.05600  0.85830  0.16100  Biso   1.000  C
  C101     1.0000 0.34430  0.76510  0.18290  Biso   1.000  C
  C102     1.0000 0.29930  0.73160  0.13160  Biso   1.000  C
  C103     1.0000 0.35430  0.70860  0.09750  Biso   1.000  C
  H40      1.0000 0.32340  0.68640  0.06520  Biso   1.000  H
  C104     1.0000 0.45290  0.71700  0.10880  Biso   1.000  C
  H41      1.0000 0.48910  0.70040  0.08580  Biso   1.000  H
  C105     1.0000 0.49960  0.75180  0.15660  Biso   1.000  C
  C106     1.0000 0.44590  0.77380  0.19450  Biso   1.000  C
  H42      1.0000 0.47800  0.79520  0.22920  Biso   1.000  H
  C107     1.0000 0.19000  0.72030  0.11600  Biso   1.000  C
  C108     1.0000 0.60470  0.76340  0.16380  Biso   1.000  C
  C109     1.0000 0.62910  0.80440  0.17340  Biso   1.000  C
  H43      1.0000 0.58260  0.82290  0.17860  Biso   1.000  H
  C110     1.0000 0.72460  0.81700  0.17490  Biso   1.000  C
  C111     1.0000 0.79460  0.78910  0.17280  Biso   1.000  C
  H44      1.0000 0.85820  0.79750  0.17480  Biso   1.000  H
  C112     1.0000 0.77210  0.74830  0.16780  Biso   1.000  C
  C113     1.0000 0.67720  0.73520  0.16360  Biso   1.000  C
  H45      1.0000 0.66220  0.70800  0.16080  Biso   1.000  H
  C114     1.0000 0.84380  0.71700  0.15830  Biso   1.000  C
  C115     1.0000 0.74700  0.86000  0.17700  Biso   1.000  C
  C116     1.0000 0.15350  0.89030  0.61010  Biso   1.000  C
  C117     1.0000 0.09200  0.91820  0.64200  Biso   1.000  C
  C118     1.0000 0.13320  0.95380  0.68470  Biso   1.000  C
  H46      1.0000 0.19990  0.96100  0.69350  Biso   1.000  H
  C119     1.0000 0.07390  0.97800  0.71370  Biso   1.000  C
  C120     1.0000 0.97450  0.96710  0.70110  Biso   1.000  C
  H47      1.0000 0.93510  0.98440  0.71920  Biso   1.000  H
  C121     1.0000 0.93270  0.93210  0.66340  Biso   1.000  C
  C122     1.0000 0.99320  0.90760  0.63200  Biso   1.000  C
  H48      1.0000 0.96600  0.88390  0.60390  Biso   1.000  H
  C123     1.0000 0.11640  0.01670  0.75780  Biso   1.000  C
  C124     1.0000 0.82730  0.92100  0.65110  Biso   1.000  C
  C125     1.0000 0.76500  0.89880  0.58280  Biso   1.000  C
  H49      1.0000 0.78920  0.88920  0.54220  Biso   1.000  H
  C126     1.0000 0.66560  0.89090  0.57580  Biso   1.000  C
  H50      1.0000 0.62340  0.87670  0.52880  Biso   1.000  H
  C127     1.0000 0.62780  0.90300  0.63430  Biso   1.000  C
  C128     1.0000 0.68900  0.92450  0.70520  Biso   1.000  C
  C129     1.0000 0.78970  0.93280  0.71320  Biso   1.000  C
  H51      1.0000 0.83240  0.94650  0.76100  Biso   1.000  H
  C130     1.0000 0.52100  0.88940  0.61600  Biso   1.000  C
  C131     1.0000 0.65420  0.94100  0.77230  Biso   1.000  C
  C132     1.0000 0.70860  0.93370  0.85680  Biso   1.000  C
  H52      1.0000 0.76650  0.91770  0.87180  Biso   1.000  H
  C133     1.0000 0.67940  0.94960  0.92180  Biso   1.000  C
  C134     1.0000 0.59650  0.97390  0.89870  Biso   1.000  C
  H53      1.0000 0.57620  0.98480  0.94050  Biso   1.000  H
  C135     1.0000 0.53980  0.98330  0.81140  Biso   1.000  C
  C136     1.0000 0.56900  0.96550  0.74990  Biso   1.000  C
  H54      1.0000 0.53080  0.97010  0.69280  Biso   1.000  H
  C137     1.0000 0.73400  0.94130  0.01080  Biso   1.000  C
  C138     1.0000 0.45100  0.01110  0.78600  Biso   1.000  C
  O69      1.0000 0.44500  0.91690  0.56200  Biso   1.000  O
  O70      1.0000 0.67900  0.88360  0.18200  Biso   1.000  O
  O71      1.0000 0.49200  0.86900  0.65800  Biso   1.000  O
  O72      1.0000 0.38800  0.00750  0.71100  Biso   1.000  O
  Zn13     1.0000 0.16439  0.36570  0.90264  Biso   1.000  Zn
  O73      1.0000 0.04300  0.40480  0.88600  Biso   1.000  O
  Zn14     1.0000 0.99470  0.28885  0.91480  Biso   1.000  Zn
  Zn15     1.0000 0.81271  0.44051  0.32360  Biso   1.000  Zn
  Zn16     1.0000 0.59577  0.41280  0.35130  Biso   1.000  Zn
  O74      1.0000 0.08320  0.31510  0.01980  Biso   1.000  O
  O75      1.0000 0.21190  0.35280  0.02480  Biso   1.000  O
  O76      1.0000 0.46010  0.39070  0.30660  Biso   1.000  O
  O77      1.0000 0.50010  0.34340  0.40540  Biso   1.000  O
  O78      1.0000 0.34810  0.22400  0.33100  Biso   1.000  O
  O79      1.0000 0.36170  0.20650  0.45410  Biso   1.000  O
  O80      1.0000 0.83200  0.38260  0.36200  Biso   1.000  O
  O81      1.0000 0.66510  0.37010  0.30940  Biso   1.000  O
  O82      1.0000 0.57750  0.23060  0.35270  Biso   1.000  O
  O83      1.0000 0.67730  0.18140  0.34080  Biso   1.000  O
  O84      1.0000 0.25630  0.40310  0.88040  Biso   1.000  O
  O85      1.0000 0.38260  0.35930  0.92520  Biso   1.000  O
  O86      1.0000 0.29970  0.52710  0.74710  Biso   1.000  O
  O87      1.0000 0.43360  0.53610  0.71110  Biso   1.000  O
  O88      1.0000 0.98500  0.34960  0.86100  Biso   1.000  O
  O89      1.0000 0.68260  0.42160  0.46910  Biso   1.000  O
  O90      1.0000 0.80070  0.45350  0.43430  Biso   1.000  O
  O91      1.0000 0.08400  0.52460  0.78600  Biso   1.000  O
  O92      1.0000 0.06320  0.52820  0.65420  Biso   1.000  O
  C139     1.0000 0.16460  0.33180  0.05830  Biso   1.000  C
  C140     1.0000 0.20780  0.32570  0.14890  Biso   1.000  C
  C141     1.0000 0.16370  0.29980  0.19160  Biso   1.000  C
  H55      1.0000 0.10210  0.28740  0.16070  Biso   1.000  H
  C142     1.0000 0.20770  0.29240  0.27600  Biso   1.000  C
  C143     1.0000 0.29910  0.31140  0.32430  Biso   1.000  C
  H56      1.0000 0.32900  0.30610  0.38220  Biso   1.000  H
  C144     1.0000 0.34610  0.33830  0.28670  Biso   1.000  C
  C145     1.0000 0.30090  0.34510  0.20330  Biso   1.000  C
  H57      1.0000 0.33100  0.36360  0.17860  Biso   1.000  H
  C146     1.0000 0.44400  0.35830  0.33900  Biso   1.000  C
  C147     1.0000 0.15570  0.26510  0.31710  Biso   1.000  C
  C148     1.0000 0.20070  0.23160  0.36840  Biso   1.000  C
  C149     1.0000 0.14570  0.20860  0.40250  Biso   1.000  C
  H58      1.0000 0.17660  0.18640  0.43480  Biso   1.000  H
  C150     1.0000 0.04710  0.21700  0.39120  Biso   1.000  C
  H59      1.0000 0.01090  0.20040  0.41420  Biso   1.000  H
  C151     1.0000 0.00040  0.25180  0.34340  Biso   1.000  C
  C152     1.0000 0.05410  0.27380  0.30550  Biso   1.000  C
  H60      1.0000 0.02200  0.29520  0.27080  Biso   1.000  H
  C153     1.0000 0.31000  0.22030  0.38400  Biso   1.000  C
  C154     1.0000 0.89530  0.26340  0.33620  Biso   1.000  C
  C155     1.0000 0.87090  0.30440  0.32660  Biso   1.000  C
  H61      1.0000 0.91740  0.32290  0.32140  Biso   1.000  H
  C156     1.0000 0.77540  0.31700  0.32510  Biso   1.000  C
  C157     1.0000 0.70540  0.28910  0.32720  Biso   1.000  C
  H62      1.0000 0.64180  0.29750  0.32520  Biso   1.000  H
  C158     1.0000 0.72790  0.24830  0.33220  Biso   1.000  C
  C159     1.0000 0.82280  0.23520  0.33640  Biso   1.000  C
  H63      1.0000 0.83780  0.20800  0.33920  Biso   1.000  H
  C160     1.0000 0.65620  0.21700  0.34170  Biso   1.000  C
  C161     1.0000 0.75300  0.36000  0.32300  Biso   1.000  C
  C162     1.0000 0.34650  0.39030  0.88990  Biso   1.000  C
  C163     1.0000 0.40800  0.41820  0.85800  Biso   1.000  C
  C164     1.0000 0.36680  0.45380  0.81530  Biso   1.000  C
  H64      1.0000 0.30010  0.46100  0.80650  Biso   1.000  H
  C165     1.0000 0.42610  0.47800  0.78630  Biso   1.000  C
  C166     1.0000 0.52550  0.46710  0.79890  Biso   1.000  C
  H65      1.0000 0.56490  0.48440  0.78080  Biso   1.000  H
  C167     1.0000 0.56730  0.43210  0.83660  Biso   1.000  C
  C168     1.0000 0.50680  0.40760  0.86800  Biso   1.000  C
  H66      1.0000 0.53400  0.38390  0.89610  Biso   1.000  H
  C169     1.0000 0.38360  0.51670  0.74220  Biso   1.000  C
  C170     1.0000 0.67270  0.42100  0.84890  Biso   1.000  C
  C171     1.0000 0.73500  0.39880  0.91720  Biso   1.000  C
  H67      1.0000 0.71080  0.38920  0.95780  Biso   1.000  H
  C172     1.0000 0.83440  0.39090  0.92420  Biso   1.000  C
  H68      1.0000 0.87660  0.37670  0.97120  Biso   1.000  H
  C173     1.0000 0.87220  0.40300  0.86570  Biso   1.000  C
  C174     1.0000 0.81100  0.42450  0.79480  Biso   1.000  C
  C175     1.0000 0.71030  0.43280  0.78680  Biso   1.000  C
  H69      1.0000 0.66760  0.44650  0.73900  Biso   1.000  H
  C176     1.0000 0.97900  0.38940  0.88400  Biso   1.000  C
  C177     1.0000 0.84580  0.44100  0.72770  Biso   1.000  C
  C178     1.0000 0.79140  0.43370  0.64320  Biso   1.000  C
  H70      1.0000 0.73350  0.41770  0.62820  Biso   1.000  H
  C179     1.0000 0.82060  0.44960  0.57820  Biso   1.000  C
  C180     1.0000 0.90350  0.47390  0.60130  Biso   1.000  C
  H71      1.0000 0.92380  0.48480  0.55950  Biso   1.000  H
  C181     1.0000 0.96020  0.48330  0.68860  Biso   1.000  C
  C182     1.0000 0.93100  0.46550  0.75010  Biso   1.000  C
  H72      1.0000 0.96920  0.47010  0.80720  Biso   1.000  H
  C183     1.0000 0.76600  0.44130  0.48920  Biso   1.000  C
  C184     1.0000 0.04900  0.51110  0.71400  Biso   1.000  C
  O93      1.0000 0.05500  0.41690  0.93800  Biso   1.000  O
  O94      1.0000 0.82100  0.38360  0.31800  Biso   1.000  O
  O95      1.0000 0.00800  0.36900  0.84200  Biso   1.000  O
  O96      1.0000 0.11200  0.50750  0.78900  Biso   1.000  O
