data_image0
_cell_length_a       16.498
_cell_length_b       13.109
_cell_length_c       29.381
_cell_angle_alpha    90
_cell_angle_beta     90
_cell_angle_gamma    90

_symmetry_space_group_name_H-M    "P 1"
_symmetry_int_tables_number       1

loop_
  _symmetry_equiv_pos_as_xyz
  'x, y, z'

loop_
  _atom_site_label
  _atom_site_occupancy
  _atom_site_fract_x
  _atom_site_fract_y
  _atom_site_fract_z
  _atom_site_thermal_displace_type
  _atom_site_B_iso_or_equiv
  _atom_site_type_symbol
  Fe1      1.0000 0.84951  0.45793  0.55912  Biso   1.000  Fe
  C1       1.0000 0.94310  0.64890  0.52890  Biso   1.000  C
  C2       1.0000 0.95120  0.76490  0.54240  Biso   1.000  C
  H1       1.0000 0.90810  0.78280  0.56340  Biso   1.000  H
  H2       1.0000 0.00250  0.77560  0.55780  Biso   1.000  H
  C3       1.0000 0.94700  0.83070  0.50290  Biso   1.000  C
  H3       1.0000 0.91330  0.88840  0.51130  Biso   1.000  H
  H4       1.0000 0.00110  0.85720  0.49790  Biso   1.000  H
  C4       1.0000 0.91860  0.79500  0.46050  Biso   1.000  C
  H5       1.0000 0.96140  0.80790  0.43860  Biso   1.000  H
  H6       1.0000 0.87360  0.83860  0.45200  Biso   1.000  H
  C5       1.0000 0.89200  0.69060  0.45330  Biso   1.000  C
  H7       1.0000 0.91470  0.66540  0.42500  Biso   1.000  H
  H8       1.0000 0.83340  0.68910  0.45060  Biso   1.000  H
  C6       1.0000 0.91950  0.61730  0.49420  Biso   1.000  C
  C7       1.0000 0.97140  0.59770  0.60665  Biso   1.000  C
  H9       1.0000 0.99680  0.66080  0.60920  Biso   1.000  H
  C8       1.0000 0.85600  0.47410  0.45577  Biso   1.000  C
  H10      1.0000 0.85910  0.51320  0.42940  Biso   1.000  H
  C9       1.0000 0.98690  0.52430  0.64151  Biso   1.000  C
  C10      1.0000 0.04290  0.55030  0.67554  Biso   1.000  C
  H11      1.0000 0.06400  0.61610  0.67630  Biso   1.000  H
  C11      1.0000 0.06700  0.48110  0.70749  Biso   1.000  C
  C12      1.0000 0.03450  0.38380  0.70590  Biso   1.000  C
  H12      1.0000 0.05070  0.33690  0.72780  Biso   1.000  H
  C13      1.0000 0.97960  0.35330  0.67370  Biso   1.000  C
  C14      1.0000 0.95410  0.42460  0.64084  Biso   1.000  C
  C15      1.0000 0.83660  0.36830  0.45047  Biso   1.000  C
  C16      1.0000 0.82690  0.33040  0.40584  Biso   1.000  C
  H13      1.0000 0.82830  0.37530  0.38140  Biso   1.000  H
  C17      1.0000 0.81530  0.22820  0.39800  Biso   1.000  C
  C18      1.0000 0.81180  0.16150  0.43447  Biso   1.000  C
  H14      1.0000 0.80260  0.09270  0.42880  Biso   1.000  H
  C19      1.0000 0.82150  0.19360  0.47919  Biso   1.000  C
  C20      1.0000 0.83340  0.29860  0.48728  Biso   1.000  C
  C21      1.0000 0.94610  0.24720  0.67120  Biso   1.000  C
  H15      1.0000 0.96950  0.21220  0.64570  Biso   1.000  H
  H16      1.0000 0.88830  0.25010  0.66760  Biso   1.000  H
  H17      1.0000 0.95900  0.21120  0.69870  Biso   1.000  H
  C22      1.0000 0.81940  0.12130  0.51850  Biso   1.000  C
  H18      1.0000 0.82660  0.15850  0.54640  Biso   1.000  H
  H19      1.0000 0.86210  0.07210  0.51530  Biso   1.000  H
  H20      1.0000 0.76800  0.08670  0.51910  Biso   1.000  H
  C23      1.0000 0.13130  0.50620  0.74130  Biso   1.000  C
  C24      1.0000 0.80950  0.18730  0.35011  Biso   1.000  C
  N1       1.0000 0.92480  0.58320  0.57166  Biso   1.000  N
  N2       1.0000 0.86920  0.51950  0.49341  Biso   1.000  N
  O1       1.0000 0.90150  0.39490  0.61007  Biso   1.000  O
  O2       1.0000 0.84290  0.32750  0.52968  Biso   1.000  O
  O3       1.0000 0.16410  0.59030  0.74195  Biso   1.000  O
  O4       1.0000 0.15440  0.43790  0.76882  Biso   1.000  O
  O5       1.0000 0.84040  0.23920  0.31960  Biso   1.000  O
  O6       1.0000 0.77900  0.10010  0.34662  Biso   1.000  O
  C25      1.0000 0.90160  0.66810  0.53930  Biso   1.000  C
  C26      1.0000 0.87130  0.63520  0.49700  Biso   1.000  C
  Fe2      1.0000 0.65049  0.54207  0.55912  Biso   1.000  Fe
  C27      1.0000 0.55690  0.35110  0.52890  Biso   1.000  C
  C28      1.0000 0.54880  0.23510  0.54240  Biso   1.000  C
  H21      1.0000 0.59190  0.21720  0.56340  Biso   1.000  H
  H22      1.0000 0.49750  0.22440  0.55780  Biso   1.000  H
  C29      1.0000 0.55300  0.16930  0.50290  Biso   1.000  C
  H23      1.0000 0.58670  0.11160  0.51130  Biso   1.000  H
  H24      1.0000 0.49890  0.14280  0.49790  Biso   1.000  H
  C30      1.0000 0.58140  0.20500  0.46050  Biso   1.000  C
  H25      1.0000 0.53860  0.19210  0.43860  Biso   1.000  H
  H26      1.0000 0.62640  0.16140  0.45200  Biso   1.000  H
  C31      1.0000 0.60800  0.30940  0.45330  Biso   1.000  C
  H27      1.0000 0.58530  0.33460  0.42500  Biso   1.000  H
  H28      1.0000 0.66660  0.31090  0.45060  Biso   1.000  H
  C32      1.0000 0.58050  0.38270  0.49420  Biso   1.000  C
  C33      1.0000 0.52860  0.40230  0.60665  Biso   1.000  C
  H29      1.0000 0.50320  0.33920  0.60920  Biso   1.000  H
  C34      1.0000 0.64400  0.52590  0.45577  Biso   1.000  C
  H30      1.0000 0.64090  0.48680  0.42940  Biso   1.000  H
  C35      1.0000 0.51310  0.47570  0.64151  Biso   1.000  C
  C36      1.0000 0.45710  0.44970  0.67554  Biso   1.000  C
  H31      1.0000 0.43600  0.38390  0.67630  Biso   1.000  H
  C37      1.0000 0.43300  0.51890  0.70749  Biso   1.000  C
  C38      1.0000 0.46550  0.61620  0.70590  Biso   1.000  C
  H32      1.0000 0.44930  0.66310  0.72780  Biso   1.000  H
  C39      1.0000 0.52040  0.64670  0.67370  Biso   1.000  C
  C40      1.0000 0.54590  0.57540  0.64084  Biso   1.000  C
  C41      1.0000 0.66340  0.63170  0.45047  Biso   1.000  C
  C42      1.0000 0.67310  0.66960  0.40584  Biso   1.000  C
  H33      1.0000 0.67170  0.62470  0.38140  Biso   1.000  H
  C43      1.0000 0.68470  0.77180  0.39800  Biso   1.000  C
  C44      1.0000 0.68820  0.83850  0.43447  Biso   1.000  C
  H34      1.0000 0.69740  0.90730  0.42880  Biso   1.000  H
  C45      1.0000 0.67850  0.80640  0.47919  Biso   1.000  C
  C46      1.0000 0.66660  0.70140  0.48728  Biso   1.000  C
  C47      1.0000 0.55390  0.75280  0.67120  Biso   1.000  C
  H35      1.0000 0.53050  0.78780  0.64570  Biso   1.000  H
  H36      1.0000 0.61170  0.74990  0.66760  Biso   1.000  H
  H37      1.0000 0.54100  0.78880  0.69870  Biso   1.000  H
  C48      1.0000 0.68060  0.87870  0.51850  Biso   1.000  C
  H38      1.0000 0.67340  0.84150  0.54640  Biso   1.000  H
  H39      1.0000 0.63790  0.92790  0.51530  Biso   1.000  H
  H40      1.0000 0.73200  0.91330  0.51910  Biso   1.000  H
  C49      1.0000 0.36870  0.49380  0.74130  Biso   1.000  C
  C50      1.0000 0.69050  0.81270  0.35011  Biso   1.000  C
  N3       1.0000 0.57520  0.41680  0.57166  Biso   1.000  N
  N4       1.0000 0.63080  0.48050  0.49341  Biso   1.000  N
  O7       1.0000 0.59850  0.60510  0.61007  Biso   1.000  O
  O8       1.0000 0.65710  0.67250  0.52968  Biso   1.000  O
  O9       1.0000 0.33590  0.40970  0.74195  Biso   1.000  O
  O10      1.0000 0.34560  0.56210  0.76882  Biso   1.000  O
  O11      1.0000 0.65960  0.76080  0.31960  Biso   1.000  O
  O12      1.0000 0.72100  0.89990  0.34662  Biso   1.000  O
  C51      1.0000 0.59840  0.33190  0.53930  Biso   1.000  C
  C52      1.0000 0.62870  0.36480  0.49700  Biso   1.000  C
  Fe3      1.0000 0.65049  0.95793  0.94088  Biso   1.000  Fe
  C53      1.0000 0.55690  0.14890  0.97110  Biso   1.000  C
  C54      1.0000 0.54880  0.26490  0.95760  Biso   1.000  C
  H41      1.0000 0.59190  0.28280  0.93660  Biso   1.000  H
  H42      1.0000 0.49750  0.27560  0.94220  Biso   1.000  H
  C55      1.0000 0.55300  0.33070  0.99710  Biso   1.000  C
  H43      1.0000 0.58670  0.38840  0.98870  Biso   1.000  H
  H44      1.0000 0.49890  0.35720  0.00210  Biso   1.000  H
  C56      1.0000 0.58140  0.29500  0.03950  Biso   1.000  C
  H45      1.0000 0.53860  0.30790  0.06140  Biso   1.000  H
  H46      1.0000 0.62640  0.33860  0.04800  Biso   1.000  H
  C57      1.0000 0.60800  0.19060  0.04670  Biso   1.000  C
  H47      1.0000 0.58530  0.16540  0.07500  Biso   1.000  H
  H48      1.0000 0.66660  0.18910  0.04940  Biso   1.000  H
  C58      1.0000 0.58050  0.11730  0.00580  Biso   1.000  C
  C59      1.0000 0.52860  0.09770  0.89335  Biso   1.000  C
  H49      1.0000 0.50320  0.16080  0.89080  Biso   1.000  H
  C60      1.0000 0.64400  0.97410  0.04423  Biso   1.000  C
  H50      1.0000 0.64090  0.01320  0.07060  Biso   1.000  H
  C61      1.0000 0.51310  0.02430  0.85849  Biso   1.000  C
  C62      1.0000 0.45710  0.05030  0.82446  Biso   1.000  C
  H51      1.0000 0.43600  0.11610  0.82370  Biso   1.000  H
  C63      1.0000 0.43300  0.98110  0.79251  Biso   1.000  C
  C64      1.0000 0.46550  0.88380  0.79410  Biso   1.000  C
  H52      1.0000 0.44930  0.83690  0.77220  Biso   1.000  H
  C65      1.0000 0.52040  0.85330  0.82630  Biso   1.000  C
  C66      1.0000 0.54590  0.92460  0.85916  Biso   1.000  C
  C67      1.0000 0.66340  0.86830  0.04953  Biso   1.000  C
  C68      1.0000 0.67310  0.83040  0.09416  Biso   1.000  C
  H53      1.0000 0.67170  0.87530  0.11860  Biso   1.000  H
  C69      1.0000 0.68470  0.72820  0.10200  Biso   1.000  C
  C70      1.0000 0.68820  0.66150  0.06553  Biso   1.000  C
  H54      1.0000 0.69740  0.59270  0.07120  Biso   1.000  H
  C71      1.0000 0.67850  0.69360  0.02081  Biso   1.000  C
  C72      1.0000 0.66660  0.79860  0.01272  Biso   1.000  C
  C73      1.0000 0.55390  0.74720  0.82880  Biso   1.000  C
  H55      1.0000 0.53050  0.71220  0.85430  Biso   1.000  H
  H56      1.0000 0.61170  0.75010  0.83240  Biso   1.000  H
  H57      1.0000 0.54100  0.71120  0.80130  Biso   1.000  H
  C74      1.0000 0.68060  0.62130  0.98150  Biso   1.000  C
  H58      1.0000 0.67340  0.65850  0.95360  Biso   1.000  H
  H59      1.0000 0.63790  0.57210  0.98470  Biso   1.000  H
  H60      1.0000 0.73200  0.58670  0.98090  Biso   1.000  H
  C75      1.0000 0.36870  0.00620  0.75870  Biso   1.000  C
  C76      1.0000 0.69050  0.68730  0.14989  Biso   1.000  C
  N5       1.0000 0.57520  0.08320  0.92834  Biso   1.000  N
  N6       1.0000 0.63080  0.01950  0.00659  Biso   1.000  N
  O13      1.0000 0.59850  0.89490  0.88993  Biso   1.000  O
  O14      1.0000 0.65710  0.82750  0.97032  Biso   1.000  O
  O15      1.0000 0.33590  0.09030  0.75805  Biso   1.000  O
  O16      1.0000 0.34560  0.93790  0.73118  Biso   1.000  O
  O17      1.0000 0.65960  0.73920  0.18040  Biso   1.000  O
  O18      1.0000 0.72100  0.60010  0.15338  Biso   1.000  O
  C77      1.0000 0.59840  0.16810  0.96070  Biso   1.000  C
  C78      1.0000 0.62870  0.13520  0.00300  Biso   1.000  C
  Fe4      1.0000 0.84951  0.04207  0.94088  Biso   1.000  Fe
  C79      1.0000 0.94310  0.85110  0.97110  Biso   1.000  C
  C80      1.0000 0.95120  0.73510  0.95760  Biso   1.000  C
  H61      1.0000 0.90810  0.71720  0.93660  Biso   1.000  H
  H62      1.0000 0.00250  0.72440  0.94220  Biso   1.000  H
  C81      1.0000 0.94700  0.66930  0.99710  Biso   1.000  C
  H63      1.0000 0.91330  0.61160  0.98870  Biso   1.000  H
  H64      1.0000 0.00110  0.64280  0.00210  Biso   1.000  H
  C82      1.0000 0.91860  0.70500  0.03950  Biso   1.000  C
  H65      1.0000 0.96140  0.69210  0.06140  Biso   1.000  H
  H66      1.0000 0.87360  0.66140  0.04800  Biso   1.000  H
  C83      1.0000 0.89200  0.80940  0.04670  Biso   1.000  C
  H67      1.0000 0.91470  0.83460  0.07500  Biso   1.000  H
  H68      1.0000 0.83340  0.81090  0.04940  Biso   1.000  H
  C84      1.0000 0.91950  0.88270  0.00580  Biso   1.000  C
  C85      1.0000 0.97140  0.90230  0.89335  Biso   1.000  C
  H69      1.0000 0.99680  0.83920  0.89080  Biso   1.000  H
  C86      1.0000 0.85600  0.02590  0.04423  Biso   1.000  C
  H70      1.0000 0.85910  0.98680  0.07060  Biso   1.000  H
  C87      1.0000 0.98690  0.97570  0.85849  Biso   1.000  C
  C88      1.0000 0.04290  0.94970  0.82446  Biso   1.000  C
  H71      1.0000 0.06400  0.88390  0.82370  Biso   1.000  H
  C89      1.0000 0.06700  0.01890  0.79251  Biso   1.000  C
  C90      1.0000 0.03450  0.11620  0.79410  Biso   1.000  C
  H72      1.0000 0.05070  0.16310  0.77220  Biso   1.000  H
  C91      1.0000 0.97960  0.14670  0.82630  Biso   1.000  C
  C92      1.0000 0.95410  0.07540  0.85916  Biso   1.000  C
  C93      1.0000 0.83660  0.13170  0.04953  Biso   1.000  C
  C94      1.0000 0.82690  0.16960  0.09416  Biso   1.000  C
  H73      1.0000 0.82830  0.12470  0.11860  Biso   1.000  H
  C95      1.0000 0.81530  0.27180  0.10200  Biso   1.000  C
  C96      1.0000 0.81180  0.33850  0.06553  Biso   1.000  C
  H74      1.0000 0.80260  0.40730  0.07120  Biso   1.000  H
  C97      1.0000 0.82150  0.30640  0.02081  Biso   1.000  C
  C98      1.0000 0.83340  0.20140  0.01272  Biso   1.000  C
  C99      1.0000 0.94610  0.25280  0.82880  Biso   1.000  C
  H75      1.0000 0.96950  0.28780  0.85430  Biso   1.000  H
  H76      1.0000 0.88830  0.24990  0.83240  Biso   1.000  H
  H77      1.0000 0.95900  0.28880  0.80130  Biso   1.000  H
  C100     1.0000 0.81940  0.37870  0.98150  Biso   1.000  C
  H78      1.0000 0.82660  0.34150  0.95360  Biso   1.000  H
  H79      1.0000 0.86210  0.42790  0.98470  Biso   1.000  H
  H80      1.0000 0.76800  0.41330  0.98090  Biso   1.000  H
  C101     1.0000 0.13130  0.99380  0.75870  Biso   1.000  C
  C102     1.0000 0.80950  0.31270  0.14989  Biso   1.000  C
  N7       1.0000 0.92480  0.91680  0.92834  Biso   1.000  N
  N8       1.0000 0.86920  0.98050  0.00659  Biso   1.000  N
  O19      1.0000 0.90150  0.10510  0.88993  Biso   1.000  O
  O20      1.0000 0.84290  0.17250  0.97032  Biso   1.000  O
  O21      1.0000 0.16410  0.90970  0.75805  Biso   1.000  O
  O22      1.0000 0.15440  0.06210  0.73118  Biso   1.000  O
  O23      1.0000 0.84040  0.26080  0.18040  Biso   1.000  O
  O24      1.0000 0.77900  0.39990  0.15338  Biso   1.000  O
  C103     1.0000 0.90160  0.83190  0.96070  Biso   1.000  C
  C104     1.0000 0.87130  0.86480  0.00300  Biso   1.000  C
  Fe5      1.0000 0.15049  0.54207  0.44088  Biso   1.000  Fe
  C105     1.0000 0.05690  0.35110  0.47110  Biso   1.000  C
  C106     1.0000 0.04880  0.23510  0.45760  Biso   1.000  C
  H81      1.0000 0.09190  0.21720  0.43660  Biso   1.000  H
  H82      1.0000 0.99750  0.22440  0.44220  Biso   1.000  H
  C107     1.0000 0.05300  0.16930  0.49710  Biso   1.000  C
  H83      1.0000 0.08670  0.11160  0.48870  Biso   1.000  H
  H84      1.0000 0.99890  0.14280  0.50210  Biso   1.000  H
  C108     1.0000 0.08140  0.20500  0.53950  Biso   1.000  C
  H85      1.0000 0.03860  0.19210  0.56140  Biso   1.000  H
  H86      1.0000 0.12640  0.16140  0.54800  Biso   1.000  H
  C109     1.0000 0.10800  0.30940  0.54670  Biso   1.000  C
  H87      1.0000 0.08530  0.33460  0.57500  Biso   1.000  H
  H88      1.0000 0.16660  0.31090  0.54940  Biso   1.000  H
  C110     1.0000 0.08050  0.38270  0.50580  Biso   1.000  C
  C111     1.0000 0.02860  0.40230  0.39335  Biso   1.000  C
  H89      1.0000 0.00320  0.33920  0.39080  Biso   1.000  H
  C112     1.0000 0.14400  0.52590  0.54423  Biso   1.000  C
  H90      1.0000 0.14090  0.48680  0.57060  Biso   1.000  H
  C113     1.0000 0.01310  0.47570  0.35849  Biso   1.000  C
  C114     1.0000 0.95710  0.44970  0.32446  Biso   1.000  C
  H91      1.0000 0.93600  0.38390  0.32370  Biso   1.000  H
  C115     1.0000 0.93300  0.51890  0.29251  Biso   1.000  C
  C116     1.0000 0.96550  0.61620  0.29410  Biso   1.000  C
  H92      1.0000 0.94930  0.66310  0.27220  Biso   1.000  H
  C117     1.0000 0.02040  0.64670  0.32630  Biso   1.000  C
  C118     1.0000 0.04590  0.57540  0.35916  Biso   1.000  C
  C119     1.0000 0.16340  0.63170  0.54953  Biso   1.000  C
  C120     1.0000 0.17310  0.66960  0.59416  Biso   1.000  C
  H93      1.0000 0.17170  0.62470  0.61860  Biso   1.000  H
  C121     1.0000 0.18470  0.77180  0.60200  Biso   1.000  C
  C122     1.0000 0.18820  0.83850  0.56553  Biso   1.000  C
  H94      1.0000 0.19740  0.90730  0.57120  Biso   1.000  H
  C123     1.0000 0.17850  0.80640  0.52081  Biso   1.000  C
  C124     1.0000 0.16660  0.70140  0.51272  Biso   1.000  C
  C125     1.0000 0.05390  0.75280  0.32880  Biso   1.000  C
  H95      1.0000 0.03050  0.78780  0.35430  Biso   1.000  H
  H96      1.0000 0.11170  0.74990  0.33240  Biso   1.000  H
  H97      1.0000 0.04100  0.78880  0.30130  Biso   1.000  H
  C126     1.0000 0.18060  0.87870  0.48150  Biso   1.000  C
  H98      1.0000 0.17340  0.84150  0.45360  Biso   1.000  H
  H99      1.0000 0.13790  0.92790  0.48470  Biso   1.000  H
  H100     1.0000 0.23200  0.91330  0.48090  Biso   1.000  H
  C127     1.0000 0.86870  0.49380  0.25870  Biso   1.000  C
  C128     1.0000 0.19050  0.81270  0.64989  Biso   1.000  C
  N9       1.0000 0.07520  0.41680  0.42834  Biso   1.000  N
  N10      1.0000 0.13080  0.48050  0.50659  Biso   1.000  N
  O25      1.0000 0.09850  0.60510  0.38993  Biso   1.000  O
  O26      1.0000 0.15710  0.67250  0.47032  Biso   1.000  O
  O27      1.0000 0.83590  0.40970  0.25805  Biso   1.000  O
  O28      1.0000 0.84560  0.56210  0.23118  Biso   1.000  O
  O29      1.0000 0.15960  0.76080  0.68040  Biso   1.000  O
  O30      1.0000 0.22100  0.89990  0.65338  Biso   1.000  O
  C129     1.0000 0.09840  0.33190  0.46070  Biso   1.000  C
  C130     1.0000 0.12870  0.36480  0.50300  Biso   1.000  C
  Fe6      1.0000 0.34951  0.45793  0.44088  Biso   1.000  Fe
  C131     1.0000 0.44310  0.64890  0.47110  Biso   1.000  C
  C132     1.0000 0.45120  0.76490  0.45760  Biso   1.000  C
  H101     1.0000 0.40810  0.78280  0.43660  Biso   1.000  H
  H102     1.0000 0.50250  0.77560  0.44220  Biso   1.000  H
  C133     1.0000 0.44700  0.83070  0.49710  Biso   1.000  C
  H103     1.0000 0.41330  0.88840  0.48870  Biso   1.000  H
  H104     1.0000 0.50110  0.85720  0.50210  Biso   1.000  H
  C134     1.0000 0.41860  0.79500  0.53950  Biso   1.000  C
  H105     1.0000 0.46140  0.80790  0.56140  Biso   1.000  H
  H106     1.0000 0.37360  0.83860  0.54800  Biso   1.000  H
  C135     1.0000 0.39200  0.69060  0.54670  Biso   1.000  C
  H107     1.0000 0.41470  0.66540  0.57500  Biso   1.000  H
  H108     1.0000 0.33340  0.68910  0.54940  Biso   1.000  H
  C136     1.0000 0.41950  0.61730  0.50580  Biso   1.000  C
  C137     1.0000 0.47140  0.59770  0.39335  Biso   1.000  C
  H109     1.0000 0.49680  0.66080  0.39080  Biso   1.000  H
  C138     1.0000 0.35600  0.47410  0.54423  Biso   1.000  C
  H110     1.0000 0.35910  0.51320  0.57060  Biso   1.000  H
  C139     1.0000 0.48690  0.52430  0.35849  Biso   1.000  C
  C140     1.0000 0.54290  0.55030  0.32446  Biso   1.000  C
  H111     1.0000 0.56400  0.61610  0.32370  Biso   1.000  H
  C141     1.0000 0.56700  0.48110  0.29251  Biso   1.000  C
  C142     1.0000 0.53450  0.38380  0.29410  Biso   1.000  C
  H112     1.0000 0.55070  0.33690  0.27220  Biso   1.000  H
  C143     1.0000 0.47960  0.35330  0.32630  Biso   1.000  C
  C144     1.0000 0.45410  0.42460  0.35916  Biso   1.000  C
  C145     1.0000 0.33660  0.36830  0.54953  Biso   1.000  C
  C146     1.0000 0.32690  0.33040  0.59416  Biso   1.000  C
  H113     1.0000 0.32830  0.37530  0.61860  Biso   1.000  H
  C147     1.0000 0.31530  0.22820  0.60200  Biso   1.000  C
  C148     1.0000 0.31180  0.16150  0.56553  Biso   1.000  C
  H114     1.0000 0.30260  0.09270  0.57120  Biso   1.000  H
  C149     1.0000 0.32150  0.19360  0.52081  Biso   1.000  C
  C150     1.0000 0.33340  0.29860  0.51272  Biso   1.000  C
  C151     1.0000 0.44610  0.24720  0.32880  Biso   1.000  C
  H115     1.0000 0.46950  0.21220  0.35430  Biso   1.000  H
  H116     1.0000 0.38830  0.25010  0.33240  Biso   1.000  H
  H117     1.0000 0.45900  0.21120  0.30130  Biso   1.000  H
  C152     1.0000 0.31940  0.12130  0.48150  Biso   1.000  C
  H118     1.0000 0.32660  0.15850  0.45360  Biso   1.000  H
  H119     1.0000 0.36210  0.07210  0.48470  Biso   1.000  H
  H120     1.0000 0.26800  0.08670  0.48090  Biso   1.000  H
  C153     1.0000 0.63130  0.50620  0.25870  Biso   1.000  C
  C154     1.0000 0.30950  0.18730  0.64989  Biso   1.000  C
  N11      1.0000 0.42480  0.58320  0.42834  Biso   1.000  N
  N12      1.0000 0.36920  0.51950  0.50659  Biso   1.000  N
  O31      1.0000 0.40150  0.39490  0.38993  Biso   1.000  O
  O32      1.0000 0.34290  0.32750  0.47032  Biso   1.000  O
  O33      1.0000 0.66410  0.59030  0.25805  Biso   1.000  O
  O34      1.0000 0.65440  0.43790  0.23118  Biso   1.000  O
  O35      1.0000 0.34040  0.23920  0.68040  Biso   1.000  O
  O36      1.0000 0.27900  0.10010  0.65338  Biso   1.000  O
  C155     1.0000 0.40160  0.66810  0.46070  Biso   1.000  C
  C156     1.0000 0.37130  0.63520  0.50300  Biso   1.000  C
  Fe7      1.0000 0.34951  0.04207  0.05912  Biso   1.000  Fe
  C157     1.0000 0.44310  0.85110  0.02890  Biso   1.000  C
  C158     1.0000 0.45120  0.73510  0.04240  Biso   1.000  C
  H121     1.0000 0.40810  0.71720  0.06340  Biso   1.000  H
  H122     1.0000 0.50250  0.72440  0.05780  Biso   1.000  H
  C159     1.0000 0.44700  0.66930  0.00290  Biso   1.000  C
  H123     1.0000 0.41330  0.61160  0.01130  Biso   1.000  H
  H124     1.0000 0.50110  0.64280  0.99790  Biso   1.000  H
  C160     1.0000 0.41860  0.70500  0.96050  Biso   1.000  C
  H125     1.0000 0.46140  0.69210  0.93860  Biso   1.000  H
  H126     1.0000 0.37360  0.66140  0.95200  Biso   1.000  H
  C161     1.0000 0.39200  0.80940  0.95330  Biso   1.000  C
  H127     1.0000 0.41470  0.83460  0.92500  Biso   1.000  H
  H128     1.0000 0.33340  0.81090  0.95060  Biso   1.000  H
  C162     1.0000 0.41950  0.88270  0.99420  Biso   1.000  C
  C163     1.0000 0.47140  0.90230  0.10665  Biso   1.000  C
  H129     1.0000 0.49680  0.83920  0.10920  Biso   1.000  H
  C164     1.0000 0.35600  0.02590  0.95577  Biso   1.000  C
  H130     1.0000 0.35910  0.98680  0.92940  Biso   1.000  H
  C165     1.0000 0.48690  0.97570  0.14151  Biso   1.000  C
  C166     1.0000 0.54290  0.94970  0.17554  Biso   1.000  C
  H131     1.0000 0.56400  0.88390  0.17630  Biso   1.000  H
  C167     1.0000 0.56700  0.01890  0.20749  Biso   1.000  C
  C168     1.0000 0.53450  0.11620  0.20590  Biso   1.000  C
  H132     1.0000 0.55070  0.16310  0.22780  Biso   1.000  H
  C169     1.0000 0.47960  0.14670  0.17370  Biso   1.000  C
  C170     1.0000 0.45410  0.07540  0.14084  Biso   1.000  C
  C171     1.0000 0.33660  0.13170  0.95047  Biso   1.000  C
  C172     1.0000 0.32690  0.16960  0.90584  Biso   1.000  C
  H133     1.0000 0.32830  0.12470  0.88140  Biso   1.000  H
  C173     1.0000 0.31530  0.27180  0.89800  Biso   1.000  C
  C174     1.0000 0.31180  0.33850  0.93447  Biso   1.000  C
  H134     1.0000 0.30260  0.40730  0.92880  Biso   1.000  H
  C175     1.0000 0.32150  0.30640  0.97919  Biso   1.000  C
  C176     1.0000 0.33340  0.20140  0.98728  Biso   1.000  C
  C177     1.0000 0.44610  0.25280  0.17120  Biso   1.000  C
  H135     1.0000 0.46950  0.28780  0.14570  Biso   1.000  H
  H136     1.0000 0.38830  0.24990  0.16760  Biso   1.000  H
  H137     1.0000 0.45900  0.28880  0.19870  Biso   1.000  H
  C178     1.0000 0.31940  0.37870  0.01850  Biso   1.000  C
  H138     1.0000 0.32660  0.34150  0.04640  Biso   1.000  H
  H139     1.0000 0.36210  0.42790  0.01530  Biso   1.000  H
  H140     1.0000 0.26800  0.41330  0.01910  Biso   1.000  H
  C179     1.0000 0.63130  0.99380  0.24130  Biso   1.000  C
  C180     1.0000 0.30950  0.31270  0.85011  Biso   1.000  C
  N13      1.0000 0.42480  0.91680  0.07166  Biso   1.000  N
  N14      1.0000 0.36920  0.98050  0.99341  Biso   1.000  N
  O37      1.0000 0.40150  0.10510  0.11007  Biso   1.000  O
  O38      1.0000 0.34290  0.17250  0.02968  Biso   1.000  O
  O39      1.0000 0.66410  0.90970  0.24195  Biso   1.000  O
  O40      1.0000 0.65440  0.06210  0.26882  Biso   1.000  O
  O41      1.0000 0.34040  0.26080  0.81960  Biso   1.000  O
  O42      1.0000 0.27900  0.39990  0.84662  Biso   1.000  O
  C181     1.0000 0.40160  0.83190  0.03930  Biso   1.000  C
  C182     1.0000 0.37130  0.86480  0.99700  Biso   1.000  C
  Fe8      1.0000 0.15049  0.95793  0.05912  Biso   1.000  Fe
  C183     1.0000 0.05690  0.14890  0.02890  Biso   1.000  C
  C184     1.0000 0.04880  0.26490  0.04240  Biso   1.000  C
  H141     1.0000 0.09190  0.28280  0.06340  Biso   1.000  H
  H142     1.0000 0.99750  0.27560  0.05780  Biso   1.000  H
  C185     1.0000 0.05300  0.33070  0.00290  Biso   1.000  C
  H143     1.0000 0.08670  0.38840  0.01130  Biso   1.000  H
  H144     1.0000 0.99890  0.35720  0.99790  Biso   1.000  H
  C186     1.0000 0.08140  0.29500  0.96050  Biso   1.000  C
  H145     1.0000 0.03860  0.30790  0.93860  Biso   1.000  H
  H146     1.0000 0.12640  0.33860  0.95200  Biso   1.000  H
  C187     1.0000 0.10800  0.19060  0.95330  Biso   1.000  C
  H147     1.0000 0.08530  0.16540  0.92500  Biso   1.000  H
  H148     1.0000 0.16660  0.18910  0.95060  Biso   1.000  H
  C188     1.0000 0.08050  0.11730  0.99420  Biso   1.000  C
  C189     1.0000 0.02860  0.09770  0.10665  Biso   1.000  C
  H149     1.0000 0.00320  0.16080  0.10920  Biso   1.000  H
  C190     1.0000 0.14400  0.97410  0.95577  Biso   1.000  C
  H150     1.0000 0.14090  0.01320  0.92940  Biso   1.000  H
  C191     1.0000 0.01310  0.02430  0.14151  Biso   1.000  C
  C192     1.0000 0.95710  0.05030  0.17554  Biso   1.000  C
  H151     1.0000 0.93600  0.11610  0.17630  Biso   1.000  H
  C193     1.0000 0.93300  0.98110  0.20749  Biso   1.000  C
  C194     1.0000 0.96550  0.88380  0.20590  Biso   1.000  C
  H152     1.0000 0.94930  0.83690  0.22780  Biso   1.000  H
  C195     1.0000 0.02040  0.85330  0.17370  Biso   1.000  C
  C196     1.0000 0.04590  0.92460  0.14084  Biso   1.000  C
  C197     1.0000 0.16340  0.86830  0.95047  Biso   1.000  C
  C198     1.0000 0.17310  0.83040  0.90584  Biso   1.000  C
  H153     1.0000 0.17170  0.87530  0.88140  Biso   1.000  H
  C199     1.0000 0.18470  0.72820  0.89800  Biso   1.000  C
  C200     1.0000 0.18820  0.66150  0.93447  Biso   1.000  C
  H154     1.0000 0.19740  0.59270  0.92880  Biso   1.000  H
  C201     1.0000 0.17850  0.69360  0.97919  Biso   1.000  C
  C202     1.0000 0.16660  0.79860  0.98728  Biso   1.000  C
  C203     1.0000 0.05390  0.74720  0.17120  Biso   1.000  C
  H155     1.0000 0.03050  0.71220  0.14570  Biso   1.000  H
  H156     1.0000 0.11170  0.75010  0.16760  Biso   1.000  H
  H157     1.0000 0.04100  0.71120  0.19870  Biso   1.000  H
  C204     1.0000 0.18060  0.62130  0.01850  Biso   1.000  C
  H158     1.0000 0.17340  0.65850  0.04640  Biso   1.000  H
  H159     1.0000 0.13790  0.57210  0.01530  Biso   1.000  H
  H160     1.0000 0.23200  0.58670  0.01910  Biso   1.000  H
  C205     1.0000 0.86870  0.00620  0.24130  Biso   1.000  C
  C206     1.0000 0.19050  0.68730  0.85011  Biso   1.000  C
  N15      1.0000 0.07520  0.08320  0.07166  Biso   1.000  N
  N16      1.0000 0.13080  0.01950  0.99341  Biso   1.000  N
  O43      1.0000 0.09850  0.89490  0.11007  Biso   1.000  O
  O44      1.0000 0.15710  0.82750  0.02968  Biso   1.000  O
  O45      1.0000 0.83590  0.09030  0.24195  Biso   1.000  O
  O46      1.0000 0.84560  0.93790  0.26882  Biso   1.000  O
  O47      1.0000 0.15960  0.73920  0.81960  Biso   1.000  O
  O48      1.0000 0.22100  0.60010  0.84662  Biso   1.000  O
  C207     1.0000 0.09840  0.16810  0.03930  Biso   1.000  C
  C208     1.0000 0.12870  0.13520  0.99700  Biso   1.000  C
  Zn1      1.0000 0.25000  0.50000  0.80043  Biso   1.000  Zn
  Zn2      1.0000 0.25000  0.00000  0.69957  Biso   1.000  Zn
  Zn3      1.0000 0.75000  0.50000  0.19957  Biso   1.000  Zn
  Zn4      1.0000 0.75000  0.00000  0.30043  Biso   1.000  Zn
  Zn5      1.0000 0.16108  0.75000  0.75000  Biso   1.000  Zn
  Zn6      1.0000 0.33892  0.25000  0.75000  Biso   1.000  Zn
  Zn7      1.0000 0.83892  0.25000  0.25000  Biso   1.000  Zn
  Zn8      1.0000 0.66108  0.75000  0.25000  Biso   1.000  Zn
  O49      1.0000 0.75000  0.50000  0.57327  Biso   1.000  O
  O50      1.0000 0.75000  0.00000  0.92673  Biso   1.000  O
  O51      1.0000 0.25000  0.50000  0.42673  Biso   1.000  O
  O52      1.0000 0.25000  0.00000  0.07327  Biso   1.000  O
