data_image0
_cell_length_a       8.6538
_cell_length_b       14.4144
_cell_length_c       37.4884
_cell_angle_alpha    90
_cell_angle_beta     90
_cell_angle_gamma    90

_symmetry_space_group_name_H-M    "P 1"
_symmetry_int_tables_number       1

loop_
  _symmetry_equiv_pos_as_xyz
  'x, y, z'

loop_
  _atom_site_label
  _atom_site_occupancy
  _atom_site_fract_x
  _atom_site_fract_y
  _atom_site_fract_z
  _atom_site_thermal_displace_type
  _atom_site_B_iso_or_equiv
  _atom_site_type_symbol
  Zn1      1.0000 0.06017  0.28394  0.14143  Biso   1.000  Zn
  O1       1.0000 0.12890  0.21802  0.18447  Biso   1.000  O
  O2       1.0000 0.34314  0.18818  0.15502  Biso   1.000  O
  N1       1.0000 0.03350  0.20111  0.09847  Biso   1.000  N
  C1       1.0000 0.94130  0.03638  0.00502  Biso   1.000  C
  H1       1.0000 0.84260  0.00600  0.00880  Biso   1.000  H
  H2       1.0000 0.92920  0.07850  0.98500  Biso   1.000  H
  C2       1.0000 0.92550  0.22362  0.07458  Biso   1.000  C
  H3       1.0000 0.86820  0.27730  0.07840  Biso   1.000  H
  C3       1.0000 0.97910  0.09270  0.03782  Biso   1.000  C
  C4       1.0000 0.11530  0.12424  0.09204  Biso   1.000  C
  H4       1.0000 0.19060  0.10680  0.10840  Biso   1.000  H
  C5       1.0000 0.09310  0.06961  0.06227  Biso   1.000  C
  H5       1.0000 0.15430  0.01750  0.05860  Biso   1.000  H
  C6       1.0000 0.89450  0.17222  0.04487  Biso   1.000  C
  H6       1.0000 0.81650  0.19060  0.02930  Biso   1.000  H
  C7       1.0000 0.33440  0.15620  0.21807  Biso   1.000  C
  C8       1.0000 0.26640  0.18951  0.18370  Biso   1.000  C
  C9       1.0000 0.46180  0.09746  0.21819  Biso   1.000  C
  H7       1.0000 0.50550  0.07940  0.19660  Biso   1.000  H
  C10      1.0000 0.66440  0.93730  0.28272  Biso   1.000  C
  H8       1.0000 0.67230  0.97470  0.30380  Biso   1.000  H
  H9       1.0000 0.75040  0.89530  0.28160  Biso   1.000  H
  H10      1.0000 0.56980  0.90260  0.28330  Biso   1.000  H
  H11      1.0000 0.89910  0.01890  0.24650  Biso   1.000  H
  H12      1.0000 0.82000  0.08980  0.27240  Biso   1.000  H
  H13      1.0000 0.80540  0.10290  0.23110  Biso   1.000  H
  Zn2      1.0000 0.43983  0.78394  0.85857  Biso   1.000  Zn
  O3       1.0000 0.37110  0.71802  0.81553  Biso   1.000  O
  O4       1.0000 0.15686  0.68818  0.84498  Biso   1.000  O
  N2       1.0000 0.46650  0.70111  0.90153  Biso   1.000  N
  C11      1.0000 0.55870  0.53638  0.99498  Biso   1.000  C
  H14      1.0000 0.65740  0.50600  0.99120  Biso   1.000  H
  H15      1.0000 0.57080  0.57850  0.01500  Biso   1.000  H
  C12      1.0000 0.57450  0.72362  0.92542  Biso   1.000  C
  H16      1.0000 0.63180  0.77730  0.92160  Biso   1.000  H
  C13      1.0000 0.52090  0.59270  0.96218  Biso   1.000  C
  C14      1.0000 0.38470  0.62424  0.90796  Biso   1.000  C
  H17      1.0000 0.30940  0.60680  0.89160  Biso   1.000  H
  C15      1.0000 0.40690  0.56961  0.93773  Biso   1.000  C
  H18      1.0000 0.34570  0.51750  0.94140  Biso   1.000  H
  C16      1.0000 0.60550  0.67222  0.95513  Biso   1.000  C
  H19      1.0000 0.68350  0.69060  0.97070  Biso   1.000  H
  C17      1.0000 0.16560  0.65620  0.78193  Biso   1.000  C
  C18      1.0000 0.23360  0.68951  0.81630  Biso   1.000  C
  C19      1.0000 0.03820  0.59746  0.78181  Biso   1.000  C
  H20      1.0000 0.99450  0.57940  0.80340  Biso   1.000  H
  C20      1.0000 0.83560  0.43730  0.71728  Biso   1.000  C
  H21      1.0000 0.82770  0.47470  0.69620  Biso   1.000  H
  H22      1.0000 0.74960  0.39530  0.71840  Biso   1.000  H
  H23      1.0000 0.93020  0.40260  0.71670  Biso   1.000  H
  H24      1.0000 0.60090  0.51890  0.75350  Biso   1.000  H
  H25      1.0000 0.68000  0.58980  0.72760  Biso   1.000  H
  H26      1.0000 0.69460  0.60290  0.76890  Biso   1.000  H
  Zn3      1.0000 0.93983  0.71606  0.64143  Biso   1.000  Zn
  O5       1.0000 0.87110  0.78198  0.68447  Biso   1.000  O
  O6       1.0000 0.65686  0.81182  0.65502  Biso   1.000  O
  N3       1.0000 0.96650  0.79889  0.59847  Biso   1.000  N
  C21      1.0000 0.05870  0.96362  0.50502  Biso   1.000  C
  H27      1.0000 0.15740  0.99400  0.50880  Biso   1.000  H
  H28      1.0000 0.07080  0.92150  0.48500  Biso   1.000  H
  C22      1.0000 0.07450  0.77638  0.57458  Biso   1.000  C
  H29      1.0000 0.13180  0.72270  0.57840  Biso   1.000  H
  C23      1.0000 0.02090  0.90730  0.53782  Biso   1.000  C
  C24      1.0000 0.88470  0.87576  0.59204  Biso   1.000  C
  H30      1.0000 0.80940  0.89320  0.60840  Biso   1.000  H
  C25      1.0000 0.90690  0.93039  0.56227  Biso   1.000  C
  H31      1.0000 0.84570  0.98250  0.55860  Biso   1.000  H
  C26      1.0000 0.10550  0.82778  0.54487  Biso   1.000  C
  H32      1.0000 0.18350  0.80940  0.52930  Biso   1.000  H
  C27      1.0000 0.66560  0.84380  0.71807  Biso   1.000  C
  C28      1.0000 0.73360  0.81049  0.68370  Biso   1.000  C
  C29      1.0000 0.53820  0.90254  0.71819  Biso   1.000  C
  H33      1.0000 0.49450  0.92060  0.69660  Biso   1.000  H
  C30      1.0000 0.33560  0.06270  0.78272  Biso   1.000  C
  H34      1.0000 0.32770  0.02530  0.80380  Biso   1.000  H
  H35      1.0000 0.24960  0.10470  0.78160  Biso   1.000  H
  H36      1.0000 0.43020  0.09740  0.78330  Biso   1.000  H
  H37      1.0000 0.10090  0.98110  0.74650  Biso   1.000  H
  H38      1.0000 0.18000  0.91020  0.77240  Biso   1.000  H
  H39      1.0000 0.19460  0.89710  0.73110  Biso   1.000  H
  Zn4      1.0000 0.56017  0.21606  0.35857  Biso   1.000  Zn
  O7       1.0000 0.62890  0.28198  0.31553  Biso   1.000  O
  O8       1.0000 0.84314  0.31182  0.34498  Biso   1.000  O
  N4       1.0000 0.53350  0.29889  0.40153  Biso   1.000  N
  C31      1.0000 0.44130  0.46362  0.49498  Biso   1.000  C
  H40      1.0000 0.34260  0.49400  0.49120  Biso   1.000  H
  H41      1.0000 0.42920  0.42150  0.51500  Biso   1.000  H
  C32      1.0000 0.42550  0.27638  0.42542  Biso   1.000  C
  H42      1.0000 0.36820  0.22270  0.42160  Biso   1.000  H
  C33      1.0000 0.47910  0.40730  0.46218  Biso   1.000  C
  C34      1.0000 0.61530  0.37576  0.40796  Biso   1.000  C
  H43      1.0000 0.69060  0.39320  0.39160  Biso   1.000  H
  C35      1.0000 0.59310  0.43039  0.43773  Biso   1.000  C
  H44      1.0000 0.65430  0.48250  0.44140  Biso   1.000  H
  C36      1.0000 0.39450  0.32778  0.45513  Biso   1.000  C
  H45      1.0000 0.31650  0.30940  0.47070  Biso   1.000  H
  C37      1.0000 0.83440  0.34380  0.28193  Biso   1.000  C
  C38      1.0000 0.76640  0.31049  0.31630  Biso   1.000  C
  C39      1.0000 0.96180  0.40254  0.28181  Biso   1.000  C
  H46      1.0000 0.00550  0.42060  0.30340  Biso   1.000  H
  C40      1.0000 0.16440  0.56270  0.21728  Biso   1.000  C
  H47      1.0000 0.17230  0.52530  0.19620  Biso   1.000  H
  H48      1.0000 0.25040  0.60470  0.21840  Biso   1.000  H
  H49      1.0000 0.06980  0.59740  0.21670  Biso   1.000  H
  H50      1.0000 0.39910  0.48110  0.25350  Biso   1.000  H
  H51      1.0000 0.32000  0.41020  0.22760  Biso   1.000  H
  H52      1.0000 0.30540  0.39710  0.26890  Biso   1.000  H
  Zn5      1.0000 0.93983  0.71606  0.85857  Biso   1.000  Zn
  O9       1.0000 0.87110  0.78198  0.81553  Biso   1.000  O
  O10      1.0000 0.65686  0.81182  0.84498  Biso   1.000  O
  N5       1.0000 0.96650  0.79889  0.90153  Biso   1.000  N
  C41      1.0000 0.05870  0.96362  0.99498  Biso   1.000  C
  H53      1.0000 0.15740  0.99400  0.99120  Biso   1.000  H
  H54      1.0000 0.07080  0.92150  0.01500  Biso   1.000  H
  C42      1.0000 0.07450  0.77638  0.92542  Biso   1.000  C
  H55      1.0000 0.13180  0.72270  0.92160  Biso   1.000  H
  C43      1.0000 0.02090  0.90730  0.96218  Biso   1.000  C
  C44      1.0000 0.88470  0.87576  0.90796  Biso   1.000  C
  H56      1.0000 0.80940  0.89320  0.89160  Biso   1.000  H
  C45      1.0000 0.90690  0.93039  0.93773  Biso   1.000  C
  H57      1.0000 0.84570  0.98250  0.94140  Biso   1.000  H
  C46      1.0000 0.10550  0.82778  0.95513  Biso   1.000  C
  H58      1.0000 0.18350  0.80940  0.97070  Biso   1.000  H
  C47      1.0000 0.66560  0.84380  0.78193  Biso   1.000  C
  C48      1.0000 0.73360  0.81049  0.81630  Biso   1.000  C
  C49      1.0000 0.53820  0.90254  0.78181  Biso   1.000  C
  H59      1.0000 0.49450  0.92060  0.80340  Biso   1.000  H
  C50      1.0000 0.33560  0.06270  0.71728  Biso   1.000  C
  H60      1.0000 0.32770  0.02530  0.69620  Biso   1.000  H
  H61      1.0000 0.24960  0.10470  0.71840  Biso   1.000  H
  H62      1.0000 0.43020  0.09740  0.71670  Biso   1.000  H
  H63      1.0000 0.10090  0.98110  0.75350  Biso   1.000  H
  H64      1.0000 0.18000  0.91020  0.72760  Biso   1.000  H
  H65      1.0000 0.19460  0.89710  0.76890  Biso   1.000  H
  Zn6      1.0000 0.56017  0.21606  0.14143  Biso   1.000  Zn
  O11      1.0000 0.62890  0.28198  0.18447  Biso   1.000  O
  O12      1.0000 0.84314  0.31182  0.15502  Biso   1.000  O
  N6       1.0000 0.53350  0.29889  0.09847  Biso   1.000  N
  C51      1.0000 0.44130  0.46362  0.00502  Biso   1.000  C
  H66      1.0000 0.34260  0.49400  0.00880  Biso   1.000  H
  H67      1.0000 0.42920  0.42150  0.98500  Biso   1.000  H
  C52      1.0000 0.42550  0.27638  0.07458  Biso   1.000  C
  H68      1.0000 0.36820  0.22270  0.07840  Biso   1.000  H
  C53      1.0000 0.47910  0.40730  0.03782  Biso   1.000  C
  C54      1.0000 0.61530  0.37576  0.09204  Biso   1.000  C
  H69      1.0000 0.69060  0.39320  0.10840  Biso   1.000  H
  C55      1.0000 0.59310  0.43039  0.06227  Biso   1.000  C
  H70      1.0000 0.65430  0.48250  0.05860  Biso   1.000  H
  C56      1.0000 0.39450  0.32778  0.04487  Biso   1.000  C
  H71      1.0000 0.31650  0.30940  0.02930  Biso   1.000  H
  C57      1.0000 0.83440  0.34380  0.21807  Biso   1.000  C
  C58      1.0000 0.76640  0.31049  0.18370  Biso   1.000  C
  C59      1.0000 0.96180  0.40254  0.21819  Biso   1.000  C
  H72      1.0000 0.00550  0.42060  0.19660  Biso   1.000  H
  C60      1.0000 0.16440  0.56270  0.28272  Biso   1.000  C
  H73      1.0000 0.17230  0.52530  0.30380  Biso   1.000  H
  H74      1.0000 0.25040  0.60470  0.28160  Biso   1.000  H
  H75      1.0000 0.06980  0.59740  0.28330  Biso   1.000  H
  H76      1.0000 0.39910  0.48110  0.24650  Biso   1.000  H
  H77      1.0000 0.32000  0.41020  0.27240  Biso   1.000  H
  H78      1.0000 0.30540  0.39710  0.23110  Biso   1.000  H
  Zn7      1.0000 0.06017  0.28394  0.35857  Biso   1.000  Zn
  O13      1.0000 0.12890  0.21802  0.31553  Biso   1.000  O
  O14      1.0000 0.34314  0.18818  0.34498  Biso   1.000  O
  N7       1.0000 0.03350  0.20111  0.40153  Biso   1.000  N
  C61      1.0000 0.94130  0.03638  0.49498  Biso   1.000  C
  H79      1.0000 0.84260  0.00600  0.49120  Biso   1.000  H
  H80      1.0000 0.92920  0.07850  0.51500  Biso   1.000  H
  C62      1.0000 0.92550  0.22362  0.42542  Biso   1.000  C
  H81      1.0000 0.86820  0.27730  0.42160  Biso   1.000  H
  C63      1.0000 0.97910  0.09270  0.46218  Biso   1.000  C
  C64      1.0000 0.11530  0.12424  0.40796  Biso   1.000  C
  H82      1.0000 0.19060  0.10680  0.39160  Biso   1.000  H
  C65      1.0000 0.09310  0.06961  0.43773  Biso   1.000  C
  H83      1.0000 0.15430  0.01750  0.44140  Biso   1.000  H
  C66      1.0000 0.89450  0.17222  0.45513  Biso   1.000  C
  H84      1.0000 0.81650  0.19060  0.47070  Biso   1.000  H
  C67      1.0000 0.33440  0.15620  0.28193  Biso   1.000  C
  C68      1.0000 0.26640  0.18951  0.31630  Biso   1.000  C
  C69      1.0000 0.46180  0.09746  0.28181  Biso   1.000  C
  H85      1.0000 0.50550  0.07940  0.30340  Biso   1.000  H
  C70      1.0000 0.66440  0.93730  0.21728  Biso   1.000  C
  H86      1.0000 0.67230  0.97470  0.19620  Biso   1.000  H
  H87      1.0000 0.75040  0.89530  0.21840  Biso   1.000  H
  H88      1.0000 0.56980  0.90260  0.21670  Biso   1.000  H
  H89      1.0000 0.89910  0.01890  0.25350  Biso   1.000  H
  H90      1.0000 0.82000  0.08980  0.22760  Biso   1.000  H
  H91      1.0000 0.80540  0.10290  0.26890  Biso   1.000  H
  Zn8      1.0000 0.43983  0.78394  0.64143  Biso   1.000  Zn
  O15      1.0000 0.37110  0.71802  0.68447  Biso   1.000  O
  O16      1.0000 0.15686  0.68818  0.65502  Biso   1.000  O
  N8       1.0000 0.46650  0.70111  0.59847  Biso   1.000  N
  C71      1.0000 0.55870  0.53638  0.50502  Biso   1.000  C
  H92      1.0000 0.65740  0.50600  0.50880  Biso   1.000  H
  H93      1.0000 0.57080  0.57850  0.48500  Biso   1.000  H
  C72      1.0000 0.57450  0.72362  0.57458  Biso   1.000  C
  H94      1.0000 0.63180  0.77730  0.57840  Biso   1.000  H
  C73      1.0000 0.52090  0.59270  0.53782  Biso   1.000  C
  C74      1.0000 0.38470  0.62424  0.59204  Biso   1.000  C
  H95      1.0000 0.30940  0.60680  0.60840  Biso   1.000  H
  C75      1.0000 0.40690  0.56961  0.56227  Biso   1.000  C
  H96      1.0000 0.34570  0.51750  0.55860  Biso   1.000  H
  C76      1.0000 0.60550  0.67222  0.54487  Biso   1.000  C
  H97      1.0000 0.68350  0.69060  0.52930  Biso   1.000  H
  C77      1.0000 0.16560  0.65620  0.71807  Biso   1.000  C
  C78      1.0000 0.23360  0.68951  0.68370  Biso   1.000  C
  C79      1.0000 0.03820  0.59746  0.71819  Biso   1.000  C
  H98      1.0000 0.99450  0.57940  0.69660  Biso   1.000  H
  C80      1.0000 0.83560  0.43730  0.78272  Biso   1.000  C
  H99      1.0000 0.82770  0.47470  0.80380  Biso   1.000  H
  H100     1.0000 0.74960  0.39530  0.78160  Biso   1.000  H
  H101     1.0000 0.93020  0.40260  0.78330  Biso   1.000  H
  H102     1.0000 0.60090  0.51890  0.74650  Biso   1.000  H
  H103     1.0000 0.68000  0.58980  0.77240  Biso   1.000  H
  H104     1.0000 0.69460  0.60290  0.73110  Biso   1.000  H
  C81      1.0000 0.26720  0.18380  0.25000  Biso   1.000  C
  H105     1.0000 0.17850  0.22020  0.25000  Biso   1.000  H
  C82      1.0000 0.52540  0.06510  0.25000  Biso   1.000  C
  C83      1.0000 0.66550  0.99970  0.25000  Biso   1.000  C
  C84      1.0000 0.81080  0.05820  0.25000  Biso   1.000  C
  C85      1.0000 0.23280  0.68380  0.75000  Biso   1.000  C
  H106     1.0000 0.32150  0.72020  0.75000  Biso   1.000  H
  C86      1.0000 0.97460  0.56510  0.75000  Biso   1.000  C
  C87      1.0000 0.83450  0.49970  0.75000  Biso   1.000  C
  C88      1.0000 0.68920  0.55820  0.75000  Biso   1.000  C
  C89      1.0000 0.73280  0.81620  0.75000  Biso   1.000  C
  H107     1.0000 0.82150  0.77980  0.75000  Biso   1.000  H
  C90      1.0000 0.47460  0.93490  0.75000  Biso   1.000  C
  C91      1.0000 0.33450  0.00030  0.75000  Biso   1.000  C
  C92      1.0000 0.18920  0.94180  0.75000  Biso   1.000  C
  C93      1.0000 0.76720  0.31620  0.25000  Biso   1.000  C
  H108     1.0000 0.67850  0.27980  0.25000  Biso   1.000  H
  C94      1.0000 0.02540  0.43490  0.25000  Biso   1.000  C
  C95      1.0000 0.16550  0.50030  0.25000  Biso   1.000  C
  C96      1.0000 0.31080  0.44180  0.25000  Biso   1.000  C
