data_image0
_cell_length_a       16.417
_cell_length_b       16.417
_cell_length_c       6.598
_cell_angle_alpha    90
_cell_angle_beta     90
_cell_angle_gamma    90

_symmetry_space_group_name_H-M    "P 1"
_symmetry_int_tables_number       1

loop_
  _symmetry_equiv_pos_as_xyz
  'x, y, z'

loop_
  _atom_site_label
  _atom_site_occupancy
  _atom_site_fract_x
  _atom_site_fract_y
  _atom_site_fract_z
  _atom_site_thermal_displace_type
  _atom_site_B_iso_or_equiv
  _atom_site_type_symbol
  N1       1.0000 0.17140  0.68652  0.31940  Biso   1.000  N
  C1       1.0000 0.19755  0.62857  0.19480  Biso   1.000  C
  H1       1.0000 0.25340  0.62050  0.18390  Biso   1.000  H
  C2       1.0000 0.14710  0.57980  0.08070  Biso   1.000  C
  H2       1.0000 0.16900  0.53930  0.99840  Biso   1.000  H
  C3       1.0000 0.06430  0.59110  0.08910  Biso   1.000  C
  C4       1.0000 0.03691  0.65070  0.21510  Biso   1.000  C
  H3       1.0000 0.98130  0.66030  0.22680  Biso   1.000  H
  C5       1.0000 0.09081  0.69683  0.32500  Biso   1.000  C
  H4       1.0000 0.07000  0.73760  0.40810  Biso   1.000  H
  C6       1.0000 0.99660  0.54320  0.97400  Biso   1.000  C
  H5       1.0000 0.94230  0.56420  0.00750  Biso   1.000  H
  C7       1.0000 0.01790  0.55830  0.74200  Biso   1.000  C
  H6       1.0000 0.07180  0.53860  0.71470  Biso   1.000  H
  H7       1.0000 0.01520  0.61560  0.71360  Biso   1.000  H
  H8       1.0000 0.97940  0.52990  0.65860  Biso   1.000  H
  C8       1.0000 0.02500  0.53100  0.93000  Biso   1.000  C
  H9       1.0000 0.06930  0.50030  0.86530  Biso   1.000  H
  C9       1.0000 0.97900  0.57000  0.77500  Biso   1.000  C
  H10      1.0000 0.95480  0.53020  0.68830  Biso   1.000  H
  H11      1.0000 0.01480  0.60440  0.69570  Biso   1.000  H
  H12      1.0000 0.93740  0.60330  0.83500  Biso   1.000  H
  N2       1.0000 0.32860  0.81348  0.31940  Biso   1.000  N
  C10      1.0000 0.30245  0.87143  0.19480  Biso   1.000  C
  H13      1.0000 0.24660  0.87950  0.18390  Biso   1.000  H
  C11      1.0000 0.35290  0.92020  0.08070  Biso   1.000  C
  H14      1.0000 0.33100  0.96070  0.99840  Biso   1.000  H
  C12      1.0000 0.43570  0.90890  0.08910  Biso   1.000  C
  C13      1.0000 0.46309  0.84930  0.21510  Biso   1.000  C
  H15      1.0000 0.51870  0.83970  0.22680  Biso   1.000  H
  C14      1.0000 0.40919  0.80317  0.32500  Biso   1.000  C
  H16      1.0000 0.43000  0.76240  0.40810  Biso   1.000  H
  C15      1.0000 0.50340  0.95680  0.97400  Biso   1.000  C
  H17      1.0000 0.55770  0.93580  0.00750  Biso   1.000  H
  C16      1.0000 0.48210  0.94170  0.74200  Biso   1.000  C
  H18      1.0000 0.42820  0.96140  0.71470  Biso   1.000  H
  H19      1.0000 0.48480  0.88440  0.71360  Biso   1.000  H
  H20      1.0000 0.52060  0.97010  0.65860  Biso   1.000  H
  C17      1.0000 0.47500  0.96900  0.93000  Biso   1.000  C
  H21      1.0000 0.43070  0.99970  0.86530  Biso   1.000  H
  C18      1.0000 0.52100  0.93000  0.77500  Biso   1.000  C
  H22      1.0000 0.54520  0.96980  0.68830  Biso   1.000  H
  H23      1.0000 0.48520  0.89560  0.69570  Biso   1.000  H
  H24      1.0000 0.56260  0.89670  0.83500  Biso   1.000  H
  N3       1.0000 0.81348  0.17140  0.31940  Biso   1.000  N
  C19      1.0000 0.87143  0.19755  0.19480  Biso   1.000  C
  H25      1.0000 0.87950  0.25340  0.18390  Biso   1.000  H
  C20      1.0000 0.92020  0.14710  0.08070  Biso   1.000  C
  H26      1.0000 0.96070  0.16900  0.99840  Biso   1.000  H
  C21      1.0000 0.90890  0.06430  0.08910  Biso   1.000  C
  C22      1.0000 0.84930  0.03691  0.21510  Biso   1.000  C
  H27      1.0000 0.83970  0.98130  0.22680  Biso   1.000  H
  C23      1.0000 0.80317  0.09081  0.32500  Biso   1.000  C
  H28      1.0000 0.76240  0.07000  0.40810  Biso   1.000  H
  C24      1.0000 0.95680  0.99660  0.97400  Biso   1.000  C
  H29      1.0000 0.93580  0.94230  0.00750  Biso   1.000  H
  C25      1.0000 0.94170  0.01790  0.74200  Biso   1.000  C
  H30      1.0000 0.96140  0.07180  0.71470  Biso   1.000  H
  H31      1.0000 0.88440  0.01520  0.71360  Biso   1.000  H
  H32      1.0000 0.97010  0.97940  0.65860  Biso   1.000  H
  C26      1.0000 0.96900  0.02500  0.93000  Biso   1.000  C
  H33      1.0000 0.99970  0.06930  0.86530  Biso   1.000  H
  C27      1.0000 0.93000  0.97900  0.77500  Biso   1.000  C
  H34      1.0000 0.96980  0.95480  0.68830  Biso   1.000  H
  H35      1.0000 0.89560  0.01480  0.69570  Biso   1.000  H
  H36      1.0000 0.89670  0.93740  0.83500  Biso   1.000  H
  N4       1.0000 0.68652  0.32860  0.31940  Biso   1.000  N
  C28      1.0000 0.62857  0.30245  0.19480  Biso   1.000  C
  H37      1.0000 0.62050  0.24660  0.18390  Biso   1.000  H
  C29      1.0000 0.57980  0.35290  0.08070  Biso   1.000  C
  H38      1.0000 0.53930  0.33100  0.99840  Biso   1.000  H
  C30      1.0000 0.59110  0.43570  0.08910  Biso   1.000  C
  C31      1.0000 0.65070  0.46309  0.21510  Biso   1.000  C
  H39      1.0000 0.66030  0.51870  0.22680  Biso   1.000  H
  C32      1.0000 0.69683  0.40919  0.32500  Biso   1.000  C
  H40      1.0000 0.73760  0.43000  0.40810  Biso   1.000  H
  C33      1.0000 0.54320  0.50340  0.97400  Biso   1.000  C
  H41      1.0000 0.56420  0.55770  0.00750  Biso   1.000  H
  C34      1.0000 0.55830  0.48210  0.74200  Biso   1.000  C
  H42      1.0000 0.53860  0.42820  0.71470  Biso   1.000  H
  H43      1.0000 0.61560  0.48480  0.71360  Biso   1.000  H
  H44      1.0000 0.52990  0.52060  0.65860  Biso   1.000  H
  C35      1.0000 0.53100  0.47500  0.93000  Biso   1.000  C
  H45      1.0000 0.50030  0.43070  0.86530  Biso   1.000  H
  C36      1.0000 0.57000  0.52100  0.77500  Biso   1.000  C
  H46      1.0000 0.53020  0.54520  0.68830  Biso   1.000  H
  H47      1.0000 0.60440  0.48520  0.69570  Biso   1.000  H
  H48      1.0000 0.60330  0.56260  0.83500  Biso   1.000  H
  N5       1.0000 0.82860  0.31348  0.68060  Biso   1.000  N
  C37      1.0000 0.80245  0.37143  0.80520  Biso   1.000  C
  H49      1.0000 0.74660  0.37950  0.81610  Biso   1.000  H
  C38      1.0000 0.85290  0.42020  0.91930  Biso   1.000  C
  H50      1.0000 0.83100  0.46070  0.00160  Biso   1.000  H
  C39      1.0000 0.93570  0.40890  0.91090  Biso   1.000  C
  C40      1.0000 0.96309  0.34930  0.78490  Biso   1.000  C
  H51      1.0000 0.01870  0.33970  0.77320  Biso   1.000  H
  C41      1.0000 0.90919  0.30317  0.67500  Biso   1.000  C
  H52      1.0000 0.93000  0.26240  0.59190  Biso   1.000  H
  C42      1.0000 0.00340  0.45680  0.02600  Biso   1.000  C
  H53      1.0000 0.05770  0.43580  0.99250  Biso   1.000  H
  C43      1.0000 0.98210  0.44170  0.25800  Biso   1.000  C
  H54      1.0000 0.92820  0.46140  0.28530  Biso   1.000  H
  H55      1.0000 0.98480  0.38440  0.28640  Biso   1.000  H
  H56      1.0000 0.02060  0.47010  0.34140  Biso   1.000  H
  C44      1.0000 0.97500  0.46900  0.07000  Biso   1.000  C
  H57      1.0000 0.93070  0.49970  0.13470  Biso   1.000  H
  C45      1.0000 0.02100  0.43000  0.22500  Biso   1.000  C
  H58      1.0000 0.04520  0.46980  0.31170  Biso   1.000  H
  H59      1.0000 0.98520  0.39560  0.30430  Biso   1.000  H
  H60      1.0000 0.06260  0.39670  0.16500  Biso   1.000  H
  N6       1.0000 0.67140  0.18652  0.68060  Biso   1.000  N
  C46      1.0000 0.69755  0.12857  0.80520  Biso   1.000  C
  H61      1.0000 0.75340  0.12050  0.81610  Biso   1.000  H
  C47      1.0000 0.64710  0.07980  0.91930  Biso   1.000  C
  H62      1.0000 0.66900  0.03930  0.00160  Biso   1.000  H
  C48      1.0000 0.56430  0.09110  0.91090  Biso   1.000  C
  C49      1.0000 0.53691  0.15070  0.78490  Biso   1.000  C
  H63      1.0000 0.48130  0.16030  0.77320  Biso   1.000  H
  C50      1.0000 0.59081  0.19683  0.67500  Biso   1.000  C
  H64      1.0000 0.57000  0.23760  0.59190  Biso   1.000  H
  C51      1.0000 0.49660  0.04320  0.02600  Biso   1.000  C
  H65      1.0000 0.44230  0.06420  0.99250  Biso   1.000  H
  C52      1.0000 0.51790  0.05830  0.25800  Biso   1.000  C
  H66      1.0000 0.57180  0.03860  0.28530  Biso   1.000  H
  H67      1.0000 0.51520  0.11560  0.28640  Biso   1.000  H
  H68      1.0000 0.47940  0.02990  0.34140  Biso   1.000  H
  C53      1.0000 0.52500  0.03100  0.07000  Biso   1.000  C
  H69      1.0000 0.56930  0.00030  0.13470  Biso   1.000  H
  C54      1.0000 0.47900  0.07000  0.22500  Biso   1.000  C
  H70      1.0000 0.45480  0.03020  0.31170  Biso   1.000  H
  H71      1.0000 0.51480  0.10440  0.30430  Biso   1.000  H
  H72      1.0000 0.43740  0.10330  0.16500  Biso   1.000  H
  N7       1.0000 0.18652  0.82860  0.68060  Biso   1.000  N
  C55      1.0000 0.12857  0.80245  0.80520  Biso   1.000  C
  H73      1.0000 0.12050  0.74660  0.81610  Biso   1.000  H
  C56      1.0000 0.07980  0.85290  0.91930  Biso   1.000  C
  H74      1.0000 0.03930  0.83100  0.00160  Biso   1.000  H
  C57      1.0000 0.09110  0.93570  0.91090  Biso   1.000  C
  C58      1.0000 0.15070  0.96309  0.78490  Biso   1.000  C
  H75      1.0000 0.16030  0.01870  0.77320  Biso   1.000  H
  C59      1.0000 0.19683  0.90919  0.67500  Biso   1.000  C
  H76      1.0000 0.23760  0.93000  0.59190  Biso   1.000  H
  C60      1.0000 0.04320  0.00340  0.02600  Biso   1.000  C
  H77      1.0000 0.06420  0.05770  0.99250  Biso   1.000  H
  C61      1.0000 0.05830  0.98210  0.25800  Biso   1.000  C
  H78      1.0000 0.03860  0.92820  0.28530  Biso   1.000  H
  H79      1.0000 0.11560  0.98480  0.28640  Biso   1.000  H
  H80      1.0000 0.02990  0.02060  0.34140  Biso   1.000  H
  C62      1.0000 0.03100  0.97500  0.07000  Biso   1.000  C
  H81      1.0000 0.00030  0.93070  0.13470  Biso   1.000  H
  C63      1.0000 0.07000  0.02100  0.22500  Biso   1.000  C
  H82      1.0000 0.03020  0.04520  0.31170  Biso   1.000  H
  H83      1.0000 0.10440  0.98520  0.30430  Biso   1.000  H
  H84      1.0000 0.10330  0.06260  0.16500  Biso   1.000  H
  N8       1.0000 0.31348  0.67140  0.68060  Biso   1.000  N
  C64      1.0000 0.37143  0.69755  0.80520  Biso   1.000  C
  H85      1.0000 0.37950  0.75340  0.81610  Biso   1.000  H
  C65      1.0000 0.42020  0.64710  0.91930  Biso   1.000  C
  H86      1.0000 0.46070  0.66900  0.00160  Biso   1.000  H
  C66      1.0000 0.40890  0.56430  0.91090  Biso   1.000  C
  C67      1.0000 0.34930  0.53691  0.78490  Biso   1.000  C
  H87      1.0000 0.33970  0.48130  0.77320  Biso   1.000  H
  C68      1.0000 0.30317  0.59081  0.67500  Biso   1.000  C
  H88      1.0000 0.26240  0.57000  0.59190  Biso   1.000  H
  C69      1.0000 0.45680  0.49660  0.02600  Biso   1.000  C
  H89      1.0000 0.43580  0.44230  0.99250  Biso   1.000  H
  C70      1.0000 0.44170  0.51790  0.25800  Biso   1.000  C
  H90      1.0000 0.46140  0.57180  0.28530  Biso   1.000  H
  H91      1.0000 0.38440  0.51520  0.28640  Biso   1.000  H
  H92      1.0000 0.47010  0.47940  0.34140  Biso   1.000  H
  C71      1.0000 0.46900  0.52500  0.07000  Biso   1.000  C
  H93      1.0000 0.49970  0.56930  0.13470  Biso   1.000  H
  C72      1.0000 0.43000  0.47900  0.22500  Biso   1.000  C
  H94      1.0000 0.46980  0.45480  0.31170  Biso   1.000  H
  H95      1.0000 0.39560  0.51480  0.30430  Biso   1.000  H
  H96      1.0000 0.39670  0.43740  0.16500  Biso   1.000  H
  Cu1      1.0000 0.25000  0.75000  0.50000  Biso   1.000  Cu
  Cu2      1.0000 0.75000  0.25000  0.50000  Biso   1.000  Cu
