data_image0
_cell_length_a       14.331
_cell_length_b       23.7137
_cell_length_c       25.4868
_cell_angle_alpha    86.039
_cell_angle_beta     74.929
_cell_angle_gamma    74.441

_symmetry_space_group_name_H-M    "P 1"
_symmetry_int_tables_number       1

loop_
  _symmetry_equiv_pos_as_xyz
  'x, y, z'

loop_
  _atom_site_label
  _atom_site_occupancy
  _atom_site_fract_x
  _atom_site_fract_y
  _atom_site_fract_z
  _atom_site_thermal_displace_type
  _atom_site_B_iso_or_equiv
  _atom_site_type_symbol
  C1       1.0000 0.26780  0.85690  0.62176  Biso   1.000  C
  C2       1.0000 0.28110  0.90230  0.57730  Biso   1.000  C
  C3       1.0000 0.22140  0.91490  0.54010  Biso   1.000  C
  H1       1.0000 0.17130  0.89610  0.54230  Biso   1.000  H
  C4       1.0000 0.23850  0.95630  0.49970  Biso   1.000  C
  H2       1.0000 0.19800  0.96620  0.47560  Biso   1.000  H
  C5       1.0000 0.31390  0.98260  0.49530  Biso   1.000  C
  C6       1.0000 0.37460  0.96960  0.53167  Biso   1.000  C
  H3       1.0000 0.42590  0.98780  0.52830  Biso   1.000  H
  C7       1.0000 0.35760  0.92950  0.57270  Biso   1.000  C
  H4       1.0000 0.39740  0.92080  0.59730  Biso   1.000  H
  C8       1.0000 0.33460  0.02830  0.45205  Biso   1.000  C
  C9       1.0000 0.26060  0.09940  0.39235  Biso   1.000  C
  C10      1.0000 0.16870  0.12821  0.38172  Biso   1.000  C
  H5       1.0000 0.11070  0.11840  0.40120  Biso   1.000  H
  C11      1.0000 0.16350  0.17276  0.34085  Biso   1.000  C
  C12      1.0000 0.25000  0.18440  0.30947  Biso   1.000  C
  H6       1.0000 0.24690  0.21150  0.28140  Biso   1.000  H
  C13      1.0000 0.34050  0.15638  0.31924  Biso   1.000  C
  C14      1.0000 0.34640  0.11335  0.36130  Biso   1.000  C
  H7       1.0000 0.40820  0.09460  0.36780  Biso   1.000  H
  C15      1.0000 0.43460  0.16930  0.28576  Biso   1.000  C
  C16      1.0000 0.06030  0.20200  0.33263  Biso   1.000  C
  C17      1.0000 0.37560  0.87330  0.86560  Biso   1.000  C
  C18      1.0000 0.31720  0.91730  0.90810  Biso   1.000  C
  C19      1.0000 0.21850  0.94450  0.90920  Biso   1.000  C
  H8       1.0000 0.19140  0.93760  0.88160  Biso   1.000  H
  C20      1.0000 0.15860  0.98280  0.95240  Biso   1.000  C
  H9       1.0000 0.09150  0.00020  0.95400  Biso   1.000  H
  C21      1.0000 0.20030  0.99400  0.99170  Biso   1.000  C
  C22      1.0000 0.29960  0.96800  0.99090  Biso   1.000  C
  H10      1.0000 0.32710  0.97600  0.01790  Biso   1.000  H
  C23      1.0000 0.35740  0.92940  0.94840  Biso   1.000  C
  H11      1.0000 0.42410  0.91150  0.94740  Biso   1.000  H
  C24      1.0000 0.13530  0.03670  0.03670  Biso   1.000  C
  C25      1.0000 0.13640  0.10560  0.10420  Biso   1.000  C
  C26      1.0000 0.03900  0.11200  0.13533  Biso   1.000  C
  H12      1.0000 0.99920  0.09020  0.12760  Biso   1.000  H
  C27      1.0000 0.00190  0.15183  0.17853  Biso   1.000  C
  C28      1.0000 0.06250  0.18390  0.19100  Biso   1.000  C
  H13      1.0000 0.03810  0.20970  0.22030  Biso   1.000  H
  C29      1.0000 0.15890  0.17651  0.15921  Biso   1.000  C
  C30      1.0000 0.19810  0.13770  0.11521  Biso   1.000  C
  H14      1.0000 0.26300  0.13340  0.09390  Biso   1.000  H
  C31      1.0000 0.22190  0.21023  0.17055  Biso   1.000  C
  C32      1.0000 0.89390  0.16390  0.20970  Biso   1.000  C
  C33      1.0000 0.24150  0.37060  0.13730  Biso   1.000  C
  C34      1.0000 0.22450  0.41490  0.09300  Biso   1.000  C
  C35      1.0000 0.30870  0.42300  0.05420  Biso   1.000  C
  H15      1.0000 0.37350  0.40160  0.05400  Biso   1.000  H
  C36      1.0000 0.28690  0.46700  0.01470  Biso   1.000  C
  H16      1.0000 0.33940  0.47910  0.99110  Biso   1.000  H
  C37      1.0000 0.18940  0.49250  0.01050  Biso   1.000  C
  C38      1.0000 0.11170  0.48250  0.04750  Biso   1.000  C
  H17      1.0000 0.04660  0.49980  0.04500  Biso   1.000  H
  C39      1.0000 0.13030  0.44470  0.09120  Biso   1.000  C
  H18      1.0000 0.07670  0.44020  0.11940  Biso   1.000  H
  C40      1.0000 0.16240  0.53790  0.96800  Biso   1.000  C
  C41      1.0000 0.23230  0.60664  0.89962  Biso   1.000  C
  C42      1.0000 0.30270  0.63810  0.88950  Biso   1.000  C
  H19      1.0000 0.34710  0.63270  0.91140  Biso   1.000  H
  C43      1.0000 0.30840  0.67820  0.84690  Biso   1.000  C
  C44      1.0000 0.23850  0.68760  0.81663  Biso   1.000  C
  H20      1.0000 0.23980  0.71520  0.78890  Biso   1.000  H
  C45      1.0000 0.16730  0.65700  0.82691  Biso   1.000  C
  C46      1.0000 0.16220  0.61572  0.87154  Biso   1.000  C
  H21      1.0000 0.11200  0.59610  0.88050  Biso   1.000  H
  C47      1.0000 0.09060  0.66740  0.79599  Biso   1.000  C
  C48      1.0000 0.38760  0.71150  0.83760  Biso   1.000  C
  C49      1.0000 0.90570  0.37520  0.36530  Biso   1.000  C
  C50      1.0000 0.83870  0.41864  0.40739  Biso   1.000  C
  C51      1.0000 0.73590  0.42330  0.42400  Biso   1.000  C
  H22      1.0000 0.70880  0.39920  0.40860  Biso   1.000  H
  C52      1.0000 0.67410  0.46367  0.46330  Biso   1.000  C
  H23      1.0000 0.60560  0.46720  0.47350  Biso   1.000  H
  C53      1.0000 0.71460  0.49830  0.48690  Biso   1.000  C
  C54      1.0000 0.81840  0.49290  0.47246  Biso   1.000  C
  H24      1.0000 0.84600  0.51510  0.48990  Biso   1.000  H
  C55      1.0000 0.87820  0.45400  0.43200  Biso   1.000  C
  H25      1.0000 0.94640  0.45140  0.42090  Biso   1.000  H
  C56      1.0000 0.64410  0.54090  0.52989  Biso   1.000  C
  C57      1.0000 0.63130  0.60730  0.60250  Biso   1.000  C
  C58      1.0000 0.52800  0.63420  0.61236  Biso   1.000  C
  H26      1.0000 0.49060  0.62630  0.59030  Biso   1.000  H
  C59      1.0000 0.48300  0.67300  0.65604  Biso   1.000  C
  C60      1.0000 0.53980  0.68370  0.68953  Biso   1.000  C
  H27      1.0000 0.50940  0.70960  0.71850  Biso   1.000  H
  C61      1.0000 0.63950  0.65640  0.68010  Biso   1.000  C
  C62      1.0000 0.68630  0.61849  0.63658  Biso   1.000  C
  H28      1.0000 0.75440  0.60050  0.63000  Biso   1.000  H
  C63      1.0000 0.69740  0.66810  0.71758  Biso   1.000  C
  C64      1.0000 0.37400  0.70400  0.66688  Biso   1.000  C
  N1       1.0000 0.23600  0.56243  0.94269  Biso   1.000  N
  H29      1.0000 0.28890  0.53250  0.92880  Biso   1.000  H
  N2       1.0000 0.67900  0.56867  0.56060  Biso   1.000  N
  H30      1.0000 0.74320  0.56110  0.55280  Biso   1.000  H
  N3       1.0000 0.26120  0.05508  0.43272  Biso   1.000  N
  H31      1.0000 0.20600  0.04530  0.44550  Biso   1.000  H
  N4       1.0000 0.18190  0.06146  0.06330  Biso   1.000  N
  H32      1.0000 0.22500  0.07640  0.03760  Biso   1.000  H
  Nd1      1.0000 0.57465  0.75065  0.83798  Biso   1.000  Nd
  Nd2      1.0000 0.32750  0.83363  0.74672  Biso   1.000  Nd
  Nd3      1.0000 0.15297  0.74781  0.67040  Biso   1.000  Nd
  Nd4      1.0000 0.91932  0.66264  0.74371  Biso   1.000  Nd
  O1       1.0000 0.30950  0.86120  0.65786  Biso   1.000  O
  O2       1.0000 0.23180  0.81747  0.61013  Biso   1.000  O
  O3       1.0000 0.42350  0.03177  0.43430  Biso   1.000  O
  O4       1.0000 0.51000  0.15762  0.30111  Biso   1.000  O
  O5       1.0000 0.43290  0.19061  0.24013  Biso   1.000  O
  O6       1.0000 0.02930  0.25555  0.31273  Biso   1.000  O
  O7       1.0000 0.99220  0.17899  0.34808  Biso   1.000  O
  O8       1.0000 0.34460  0.87756  0.82359  Biso   1.000  O
  O9       1.0000 0.45130  0.83884  0.87180  Biso   1.000  O
  O10      1.0000 0.04900  0.04580  0.04642  Biso   1.000  O
  O11      1.0000 0.31110  0.19813  0.14600  Biso   1.000  O
  O12      1.0000 0.18500  0.25281  0.20289  Biso   1.000  O
  O13      1.0000 0.86300  0.18520  0.25639  Biso   1.000  O
  O14      1.0000 0.83300  0.14963  0.19014  Biso   1.000  O
  O15      1.0000 0.38910  0.75023  0.80330  Biso   1.000  O
  O16      1.0000 0.45540  0.69395  0.86262  Biso   1.000  O
  O17      1.0000 0.10030  0.70041  0.75676  Biso   1.000  O
  O18      1.0000 0.01930  0.64588  0.80924  Biso   1.000  O
  O19      1.0000 0.08940  0.54278  0.95298  Biso   1.000  O
  O20      1.0000 0.32230  0.33246  0.12784  Biso   1.000  O
  O21      1.0000 0.17860  0.38814  0.17725  Biso   1.000  O
  O22      1.0000 0.65370  0.69166  0.75975  Biso   1.000  O
  O23      1.0000 0.78840  0.65847  0.70229  Biso   1.000  O
  O24      1.0000 0.33340  0.74314  0.70013  Biso   1.000  O
  O25      1.0000 0.32370  0.68795  0.63880  Biso   1.000  O
  O26      1.0000 0.55410  0.54581  0.54088  Biso   1.000  O
  O27      1.0000 0.99570  0.37156  0.34842  Biso   1.000  O
  O28      1.0000 0.86730  0.35022  0.33996  Biso   1.000  O
  O29      1.0000 0.53300  0.76260  0.94130  Biso   1.000  O
  H33      1.0000 0.54290  0.79900  0.94970  Biso   1.000  H
  H34      1.0000 0.57500  0.73080  0.95630  Biso   1.000  H
  O30      1.0000 0.28100  0.94500  0.74400  Biso   1.000  O
  H35      1.0000 0.32220  0.95760  0.71220  Biso   1.000  H
  H36      1.0000 0.21210  0.95910  0.74410  Biso   1.000  H
  O31      1.0000 0.15500  0.73500  0.57600  Biso   1.000  O
  H37      1.0000 0.13770  0.77290  0.55940  Biso   1.000  H
  H38      1.0000 0.10730  0.71400  0.57450  Biso   1.000  H
  O32      1.0000 0.99400  0.56200  0.75330  Biso   1.000  O
  H39      1.0000 0.95610  0.54740  0.78580  Biso   1.000  H
  H40      1.0000 0.99350  0.54100  0.72240  Biso   1.000  H
  O33      1.0000 0.53100  0.75330  0.93970  Biso   1.000  O
  H41      1.0000 0.56460  0.77830  0.95130  Biso   1.000  H
  H42      1.0000 0.55210  0.71450  0.95340  Biso   1.000  H
  O34      1.0000 0.27700  0.94300  0.73900  Biso   1.000  O
  H43      1.0000 0.32580  0.95510  0.70990  Biso   1.000  H
  H44      1.0000 0.21290  0.95500  0.73100  Biso   1.000  H
  O35      1.0000 0.15400  0.74400  0.57600  Biso   1.000  O
  H45      1.0000 0.13900  0.78320  0.56220  Biso   1.000  H
  H46      1.0000 0.10470  0.72510  0.57280  Biso   1.000  H
  O36      1.0000 0.00700  0.55760  0.73980  Biso   1.000  O
  H47      1.0000 0.00830  0.54350  0.77590  Biso   1.000  H
  H48      1.0000 0.97170  0.53640  0.72440  Biso   1.000  H
  C65      1.0000 0.73220  0.14310  0.37824  Biso   1.000  C
  C66      1.0000 0.71890  0.09770  0.42270  Biso   1.000  C
  C67      1.0000 0.77860  0.08510  0.45990  Biso   1.000  C
  H49      1.0000 0.82870  0.10390  0.45770  Biso   1.000  H
  C68      1.0000 0.76150  0.04370  0.50030  Biso   1.000  C
  H50      1.0000 0.80200  0.03380  0.52440  Biso   1.000  H
  C69      1.0000 0.68610  0.01740  0.50470  Biso   1.000  C
  C70      1.0000 0.62540  0.03040  0.46833  Biso   1.000  C
  H51      1.0000 0.57410  0.01220  0.47170  Biso   1.000  H
  C71      1.0000 0.64240  0.07050  0.42730  Biso   1.000  C
  H52      1.0000 0.60260  0.07920  0.40270  Biso   1.000  H
  C72      1.0000 0.66540  0.97170  0.54795  Biso   1.000  C
  C73      1.0000 0.73940  0.90060  0.60765  Biso   1.000  C
  C74      1.0000 0.83130  0.87179  0.61828  Biso   1.000  C
  H53      1.0000 0.88930  0.88160  0.59880  Biso   1.000  H
  C75      1.0000 0.83650  0.82724  0.65915  Biso   1.000  C
  C76      1.0000 0.75000  0.81560  0.69053  Biso   1.000  C
  H54      1.0000 0.75310  0.78850  0.71860  Biso   1.000  H
  C77      1.0000 0.65950  0.84362  0.68076  Biso   1.000  C
  C78      1.0000 0.65360  0.88665  0.63870  Biso   1.000  C
  H55      1.0000 0.59180  0.90540  0.63220  Biso   1.000  H
  C79      1.0000 0.56540  0.83070  0.71424  Biso   1.000  C
  C80      1.0000 0.93970  0.79800  0.66737  Biso   1.000  C
  C81      1.0000 0.62440  0.12670  0.13440  Biso   1.000  C
  C82      1.0000 0.68280  0.08270  0.09190  Biso   1.000  C
  C83      1.0000 0.78150  0.05550  0.09080  Biso   1.000  C
  H56      1.0000 0.80860  0.06240  0.11840  Biso   1.000  H
  C84      1.0000 0.84140  0.01720  0.04760  Biso   1.000  C
  H57      1.0000 0.90850  0.99980  0.04600  Biso   1.000  H
  C85      1.0000 0.79970  0.00600  0.00830  Biso   1.000  C
  C86      1.0000 0.70040  0.03200  0.00910  Biso   1.000  C
  H58      1.0000 0.67290  0.02400  0.98210  Biso   1.000  H
  C87      1.0000 0.64260  0.07060  0.05160  Biso   1.000  C
  H59      1.0000 0.57590  0.08850  0.05260  Biso   1.000  H
  C88      1.0000 0.86470  0.96330  0.96330  Biso   1.000  C
  C89      1.0000 0.86360  0.89440  0.89580  Biso   1.000  C
  C90      1.0000 0.96100  0.88800  0.86467  Biso   1.000  C
  H60      1.0000 0.00080  0.90980  0.87240  Biso   1.000  H
  C91      1.0000 0.99810  0.84817  0.82147  Biso   1.000  C
  C92      1.0000 0.93750  0.81610  0.80900  Biso   1.000  C
  H61      1.0000 0.96190  0.79030  0.77970  Biso   1.000  H
  C93      1.0000 0.84110  0.82349  0.84079  Biso   1.000  C
  C94      1.0000 0.80190  0.86230  0.88479  Biso   1.000  C
  H62      1.0000 0.73700  0.86660  0.90610  Biso   1.000  H
  C95      1.0000 0.77810  0.78977  0.82945  Biso   1.000  C
  C96      1.0000 0.10610  0.83610  0.79030  Biso   1.000  C
  C97      1.0000 0.75850  0.62940  0.86270  Biso   1.000  C
  C98      1.0000 0.77550  0.58510  0.90700  Biso   1.000  C
  C99      1.0000 0.69130  0.57700  0.94580  Biso   1.000  C
  H63      1.0000 0.62650  0.59840  0.94600  Biso   1.000  H
  C100     1.0000 0.71310  0.53300  0.98530  Biso   1.000  C
  H64      1.0000 0.66060  0.52090  0.00890  Biso   1.000  H
  C101     1.0000 0.81060  0.50750  0.98950  Biso   1.000  C
  C102     1.0000 0.88830  0.51750  0.95250  Biso   1.000  C
  H65      1.0000 0.95340  0.50020  0.95500  Biso   1.000  H
  C103     1.0000 0.86970  0.55530  0.90880  Biso   1.000  C
  H66      1.0000 0.92330  0.55980  0.88060  Biso   1.000  H
  C104     1.0000 0.83760  0.46210  0.03200  Biso   1.000  C
  C105     1.0000 0.76770  0.39336  0.10038  Biso   1.000  C
  C106     1.0000 0.69730  0.36190  0.11050  Biso   1.000  C
  H67      1.0000 0.65290  0.36730  0.08860  Biso   1.000  H
  C107     1.0000 0.69160  0.32180  0.15310  Biso   1.000  C
  C108     1.0000 0.76150  0.31240  0.18337  Biso   1.000  C
  H68      1.0000 0.76020  0.28480  0.21110  Biso   1.000  H
  C109     1.0000 0.83270  0.34300  0.17309  Biso   1.000  C
  C110     1.0000 0.83780  0.38428  0.12846  Biso   1.000  C
  H69      1.0000 0.88800  0.40390  0.11950  Biso   1.000  H
  C111     1.0000 0.90940  0.33260  0.20401  Biso   1.000  C
  C112     1.0000 0.61240  0.28850  0.16240  Biso   1.000  C
  C113     1.0000 0.09430  0.62480  0.63470  Biso   1.000  C
  C114     1.0000 0.16130  0.58136  0.59261  Biso   1.000  C
  C115     1.0000 0.26410  0.57670  0.57600  Biso   1.000  C
  H70      1.0000 0.29120  0.60080  0.59140  Biso   1.000  H
  C116     1.0000 0.32590  0.53633  0.53670  Biso   1.000  C
  H71      1.0000 0.39440  0.53280  0.52650  Biso   1.000  H
  C117     1.0000 0.28540  0.50170  0.51310  Biso   1.000  C
  C118     1.0000 0.18160  0.50710  0.52754  Biso   1.000  C
  H72      1.0000 0.15400  0.48490  0.51010  Biso   1.000  H
  C119     1.0000 0.12180  0.54600  0.56800  Biso   1.000  C
  H73      1.0000 0.05360  0.54860  0.57910  Biso   1.000  H
  C120     1.0000 0.35590  0.45910  0.47011  Biso   1.000  C
  C121     1.0000 0.36870  0.39270  0.39750  Biso   1.000  C
  C122     1.0000 0.47200  0.36580  0.38764  Biso   1.000  C
  H74      1.0000 0.50940  0.37370  0.40970  Biso   1.000  H
  C123     1.0000 0.51700  0.32700  0.34396  Biso   1.000  C
  C124     1.0000 0.46020  0.31630  0.31047  Biso   1.000  C
  H75      1.0000 0.49060  0.29040  0.28150  Biso   1.000  H
  C125     1.0000 0.36050  0.34360  0.31990  Biso   1.000  C
  C126     1.0000 0.31370  0.38151  0.36342  Biso   1.000  C
  H76      1.0000 0.24560  0.39950  0.37000  Biso   1.000  H
  C127     1.0000 0.30260  0.33190  0.28242  Biso   1.000  C
  C128     1.0000 0.62600  0.29600  0.33312  Biso   1.000  C
  N5       1.0000 0.76400  0.43757  0.05731  Biso   1.000  N
  H77      1.0000 0.71110  0.46750  0.07120  Biso   1.000  H
  N6       1.0000 0.32100  0.43133  0.43940  Biso   1.000  N
  H78      1.0000 0.25680  0.43890  0.44720  Biso   1.000  H
  N7       1.0000 0.73880  0.94492  0.56728  Biso   1.000  N
  H79      1.0000 0.79400  0.95470  0.55450  Biso   1.000  H
  N8       1.0000 0.81810  0.93854  0.93670  Biso   1.000  N
  H80      1.0000 0.77500  0.92360  0.96240  Biso   1.000  H
  Nd5      1.0000 0.42535  0.24935  0.16202  Biso   1.000  Nd
  Nd6      1.0000 0.67250  0.16637  0.25328  Biso   1.000  Nd
  Nd7      1.0000 0.84703  0.25219  0.32960  Biso   1.000  Nd
  Nd8      1.0000 0.08068  0.33736  0.25629  Biso   1.000  Nd
  O37      1.0000 0.69050  0.13880  0.34214  Biso   1.000  O
  O38      1.0000 0.76820  0.18253  0.38987  Biso   1.000  O
  O39      1.0000 0.57650  0.96823  0.56570  Biso   1.000  O
  O40      1.0000 0.49000  0.84238  0.69889  Biso   1.000  O
  O41      1.0000 0.56710  0.80939  0.75987  Biso   1.000  O
  O42      1.0000 0.97070  0.74445  0.68727  Biso   1.000  O
  O43      1.0000 0.00780  0.82101  0.65192  Biso   1.000  O
  O44      1.0000 0.65540  0.12244  0.17641  Biso   1.000  O
  O45      1.0000 0.54870  0.16116  0.12820  Biso   1.000  O
  O46      1.0000 0.95100  0.95420  0.95358  Biso   1.000  O
  O47      1.0000 0.68890  0.80187  0.85400  Biso   1.000  O
  O48      1.0000 0.81500  0.74719  0.79711  Biso   1.000  O
  O49      1.0000 0.13700  0.81480  0.74361  Biso   1.000  O
  O50      1.0000 0.16700  0.85037  0.80986  Biso   1.000  O
  O51      1.0000 0.61090  0.24977  0.19670  Biso   1.000  O
  O52      1.0000 0.54460  0.30605  0.13738  Biso   1.000  O
  O53      1.0000 0.89970  0.29959  0.24324  Biso   1.000  O
  O54      1.0000 0.98070  0.35412  0.19076  Biso   1.000  O
  O55      1.0000 0.91060  0.45722  0.04702  Biso   1.000  O
  O56      1.0000 0.67770  0.66754  0.87216  Biso   1.000  O
  O57      1.0000 0.82140  0.61186  0.82275  Biso   1.000  O
  O58      1.0000 0.34630  0.30834  0.24025  Biso   1.000  O
  O59      1.0000 0.21160  0.34153  0.29771  Biso   1.000  O
  O60      1.0000 0.66660  0.25686  0.29987  Biso   1.000  O
  O61      1.0000 0.67630  0.31205  0.36120  Biso   1.000  O
  O62      1.0000 0.44590  0.45419  0.45912  Biso   1.000  O
  O63      1.0000 0.00430  0.62844  0.65158  Biso   1.000  O
  O64      1.0000 0.13270  0.64978  0.66004  Biso   1.000  O
  O65      1.0000 0.46700  0.23740  0.05870  Biso   1.000  O
  H81      1.0000 0.45710  0.20100  0.05030  Biso   1.000  H
  H82      1.0000 0.42500  0.26920  0.04370  Biso   1.000  H
  O66      1.0000 0.71900  0.05500  0.25600  Biso   1.000  O
  H83      1.0000 0.67780  0.04240  0.28780  Biso   1.000  H
  H84      1.0000 0.78790  0.04090  0.25590  Biso   1.000  H
  O67      1.0000 0.84500  0.26500  0.42400  Biso   1.000  O
  H85      1.0000 0.86230  0.22710  0.44060  Biso   1.000  H
  H86      1.0000 0.89270  0.28600  0.42550  Biso   1.000  H
  O68      1.0000 0.00600  0.43800  0.24670  Biso   1.000  O
  H87      1.0000 0.04390  0.45260  0.21420  Biso   1.000  H
  H88      1.0000 0.00650  0.45900  0.27760  Biso   1.000  H
  O69      1.0000 0.46900  0.24670  0.06030  Biso   1.000  O
  H89      1.0000 0.43540  0.22170  0.04870  Biso   1.000  H
  H90      1.0000 0.44790  0.28550  0.04660  Biso   1.000  H
  O70      1.0000 0.72300  0.05700  0.26100  Biso   1.000  O
  H91      1.0000 0.67420  0.04490  0.29010  Biso   1.000  H
  H92      1.0000 0.78710  0.04500  0.26900  Biso   1.000  H
  O71      1.0000 0.84600  0.25600  0.42400  Biso   1.000  O
  H93      1.0000 0.86100  0.21680  0.43780  Biso   1.000  H
  H94      1.0000 0.89530  0.27490  0.42720  Biso   1.000  H
  O72      1.0000 0.99300  0.44240  0.26020  Biso   1.000  O
  H95      1.0000 0.99170  0.45650  0.22410  Biso   1.000  H
  H96      1.0000 0.02830  0.46360  0.27560  Biso   1.000  H
