data_image0
_cell_length_a       12.446
_cell_length_b       28.949
_cell_length_c       5.3971
_cell_angle_alpha    90
_cell_angle_beta     90
_cell_angle_gamma    90

_symmetry_space_group_name_H-M    "P 1"
_symmetry_int_tables_number       1

loop_
  _symmetry_equiv_pos_as_xyz
  'x, y, z'

loop_
  _atom_site_label
  _atom_site_occupancy
  _atom_site_fract_x
  _atom_site_fract_y
  _atom_site_fract_z
  _atom_site_thermal_displace_type
  _atom_site_B_iso_or_equiv
  _atom_site_type_symbol
  O1       1.0000 0.36800  0.70750  0.57400  Biso   1.000  O
  H1       1.0000 0.33880  0.68390  0.53630  Biso   1.000  H
  O2       1.0000 0.37070  0.70930  0.92100  Biso   1.000  O
  H2       1.0000 0.34170  0.68580  0.95970  Biso   1.000  H
  O3       1.0000 0.25240  0.78530  0.41800  Biso   1.000  O
  H3       1.0000 0.25260  0.81290  0.41830  Biso   1.000  H
  C1       1.0000 0.48000  0.95150  0.53800  Biso   1.000  C
  H4       1.0000 0.44150  0.95520  0.69560  Biso   1.000  H
  C2       1.0000 0.41800  0.97370  0.37600  Biso   1.000  C
  H5       1.0000 0.34690  0.96050  0.38250  Biso   1.000  H
  H6       1.0000 0.44670  0.96790  0.21120  Biso   1.000  H
  C3       1.0000 0.59200  0.97320  0.59000  Biso   1.000  C
  H7       1.0000 0.36010  0.96660  0.45290  Biso   1.000  H
  H8       1.0000 0.37760  0.95960  0.73870  Biso   1.000  H
  O4       1.0000 0.86800  0.20750  0.07400  Biso   1.000  O
  H9       1.0000 0.83880  0.18390  0.03630  Biso   1.000  H
  O5       1.0000 0.87070  0.20930  0.42100  Biso   1.000  O
  H10      1.0000 0.84170  0.18580  0.45970  Biso   1.000  H
  O6       1.0000 0.75240  0.28530  0.91800  Biso   1.000  O
  H11      1.0000 0.75260  0.31290  0.91830  Biso   1.000  H
  C4       1.0000 0.98000  0.45150  0.03800  Biso   1.000  C
  H12      1.0000 0.94150  0.45520  0.19560  Biso   1.000  H
  C5       1.0000 0.91800  0.47370  0.87600  Biso   1.000  C
  H13      1.0000 0.84690  0.46050  0.88250  Biso   1.000  H
  H14      1.0000 0.94670  0.46790  0.71120  Biso   1.000  H
  C6       1.0000 0.09200  0.47320  0.09000  Biso   1.000  C
  H15      1.0000 0.86010  0.46660  0.95290  Biso   1.000  H
  H16      1.0000 0.87760  0.45960  0.23870  Biso   1.000  H
  O7       1.0000 0.63200  0.79250  0.57400  Biso   1.000  O
  H17      1.0000 0.66120  0.81610  0.53630  Biso   1.000  H
  O8       1.0000 0.62930  0.79070  0.92100  Biso   1.000  O
  H18      1.0000 0.65830  0.81420  0.95970  Biso   1.000  H
  O9       1.0000 0.74760  0.71470  0.41800  Biso   1.000  O
  H19      1.0000 0.74740  0.68710  0.41830  Biso   1.000  H
  C7       1.0000 0.52000  0.54850  0.53800  Biso   1.000  C
  H20      1.0000 0.55850  0.54480  0.69560  Biso   1.000  H
  C8       1.0000 0.58200  0.52630  0.37600  Biso   1.000  C
  H21      1.0000 0.65310  0.53950  0.38250  Biso   1.000  H
  H22      1.0000 0.55330  0.53210  0.21120  Biso   1.000  H
  C9       1.0000 0.40800  0.52680  0.59000  Biso   1.000  C
  H23      1.0000 0.63990  0.53340  0.45290  Biso   1.000  H
  H24      1.0000 0.62240  0.54040  0.73870  Biso   1.000  H
  O10      1.0000 0.13200  0.29250  0.07400  Biso   1.000  O
  H25      1.0000 0.16120  0.31610  0.03630  Biso   1.000  H
  O11      1.0000 0.12930  0.29070  0.42100  Biso   1.000  O
  H26      1.0000 0.15830  0.31420  0.45970  Biso   1.000  H
  O12      1.0000 0.24760  0.21470  0.91800  Biso   1.000  O
  H27      1.0000 0.24740  0.18710  0.91830  Biso   1.000  H
  C10      1.0000 0.02000  0.04850  0.03800  Biso   1.000  C
  H28      1.0000 0.05850  0.04480  0.19560  Biso   1.000  H
  C11      1.0000 0.08200  0.02630  0.87600  Biso   1.000  C
  H29      1.0000 0.15310  0.03950  0.88250  Biso   1.000  H
  H30      1.0000 0.05330  0.03210  0.71120  Biso   1.000  H
  C12      1.0000 0.90800  0.02680  0.09000  Biso   1.000  C
  H31      1.0000 0.13990  0.03340  0.95290  Biso   1.000  H
  H32      1.0000 0.12240  0.04040  0.23870  Biso   1.000  H
  O13      1.0000 0.63200  0.20750  0.42600  Biso   1.000  O
  H33      1.0000 0.66120  0.18390  0.46370  Biso   1.000  H
  O14      1.0000 0.62930  0.20930  0.07900  Biso   1.000  O
  H34      1.0000 0.65830  0.18580  0.04030  Biso   1.000  H
  O15      1.0000 0.74760  0.28530  0.58200  Biso   1.000  O
  H35      1.0000 0.74740  0.31290  0.58170  Biso   1.000  H
  C13      1.0000 0.52000  0.45150  0.46200  Biso   1.000  C
  H36      1.0000 0.55850  0.45520  0.30440  Biso   1.000  H
  C14      1.0000 0.58200  0.47370  0.62400  Biso   1.000  C
  H37      1.0000 0.65310  0.46050  0.61750  Biso   1.000  H
  H38      1.0000 0.55330  0.46790  0.78880  Biso   1.000  H
  C15      1.0000 0.40800  0.47320  0.41000  Biso   1.000  C
  H39      1.0000 0.63990  0.46660  0.54710  Biso   1.000  H
  H40      1.0000 0.62240  0.45960  0.26130  Biso   1.000  H
  O16      1.0000 0.13200  0.70750  0.92600  Biso   1.000  O
  H41      1.0000 0.16120  0.68390  0.96370  Biso   1.000  H
  O17      1.0000 0.12930  0.70930  0.57900  Biso   1.000  O
  H42      1.0000 0.15830  0.68580  0.54030  Biso   1.000  H
  O18      1.0000 0.24760  0.78530  0.08200  Biso   1.000  O
  H43      1.0000 0.24740  0.81290  0.08170  Biso   1.000  H
  C16      1.0000 0.02000  0.95150  0.96200  Biso   1.000  C
  H44      1.0000 0.05850  0.95520  0.80440  Biso   1.000  H
  C17      1.0000 0.08200  0.97370  0.12400  Biso   1.000  C
  H45      1.0000 0.15310  0.96050  0.11750  Biso   1.000  H
  H46      1.0000 0.05330  0.96790  0.28880  Biso   1.000  H
  C18      1.0000 0.90800  0.97320  0.91000  Biso   1.000  C
  H47      1.0000 0.13990  0.96660  0.04710  Biso   1.000  H
  H48      1.0000 0.12240  0.95960  0.76130  Biso   1.000  H
  O19      1.0000 0.36800  0.29250  0.42600  Biso   1.000  O
  H49      1.0000 0.33880  0.31610  0.46370  Biso   1.000  H
  O20      1.0000 0.37070  0.29070  0.07900  Biso   1.000  O
  H50      1.0000 0.34170  0.31420  0.04030  Biso   1.000  H
  O21      1.0000 0.25240  0.21470  0.58200  Biso   1.000  O
  H51      1.0000 0.25260  0.18710  0.58170  Biso   1.000  H
  C19      1.0000 0.48000  0.04850  0.46200  Biso   1.000  C
  H52      1.0000 0.44150  0.04480  0.30440  Biso   1.000  H
  C20      1.0000 0.41800  0.02630  0.62400  Biso   1.000  C
  H53      1.0000 0.34690  0.03950  0.61750  Biso   1.000  H
  H54      1.0000 0.44670  0.03210  0.78880  Biso   1.000  H
  C21      1.0000 0.59200  0.02680  0.41000  Biso   1.000  C
  H55      1.0000 0.36010  0.03340  0.54710  Biso   1.000  H
  H56      1.0000 0.37760  0.04040  0.26130  Biso   1.000  H
  O22      1.0000 0.86800  0.79250  0.92600  Biso   1.000  O
  H57      1.0000 0.83880  0.81610  0.96370  Biso   1.000  H
  O23      1.0000 0.87070  0.79070  0.57900  Biso   1.000  O
  H58      1.0000 0.84170  0.81420  0.54030  Biso   1.000  H
  O24      1.0000 0.75240  0.71470  0.08200  Biso   1.000  O
  H59      1.0000 0.75260  0.68710  0.08170  Biso   1.000  H
  C22      1.0000 0.98000  0.54850  0.96200  Biso   1.000  C
  H60      1.0000 0.94150  0.54480  0.80440  Biso   1.000  H
  C23      1.0000 0.91800  0.52630  0.12400  Biso   1.000  C
  H61      1.0000 0.84690  0.53950  0.11750  Biso   1.000  H
  H62      1.0000 0.94670  0.53210  0.28880  Biso   1.000  H
  C24      1.0000 0.09200  0.52680  0.91000  Biso   1.000  C
  H63      1.0000 0.86010  0.53340  0.04710  Biso   1.000  H
  H64      1.0000 0.87760  0.54040  0.76130  Biso   1.000  H
  O25      1.0000 0.63200  0.29250  0.42600  Biso   1.000  O
  H65      1.0000 0.66120  0.31610  0.46370  Biso   1.000  H
  O26      1.0000 0.62930  0.29070  0.07900  Biso   1.000  O
  H66      1.0000 0.65830  0.31420  0.04030  Biso   1.000  H
  O27      1.0000 0.74760  0.21470  0.58200  Biso   1.000  O
  H67      1.0000 0.74740  0.18710  0.58170  Biso   1.000  H
  C25      1.0000 0.52000  0.04850  0.46200  Biso   1.000  C
  H68      1.0000 0.55850  0.04480  0.30440  Biso   1.000  H
  C26      1.0000 0.58200  0.02630  0.62400  Biso   1.000  C
  H69      1.0000 0.65310  0.03950  0.61750  Biso   1.000  H
  H70      1.0000 0.55330  0.03210  0.78880  Biso   1.000  H
  C27      1.0000 0.40800  0.02680  0.41000  Biso   1.000  C
  H71      1.0000 0.63990  0.03340  0.54710  Biso   1.000  H
  H72      1.0000 0.62240  0.04040  0.26130  Biso   1.000  H
  O28      1.0000 0.13200  0.79250  0.92600  Biso   1.000  O
  H73      1.0000 0.16120  0.81610  0.96370  Biso   1.000  H
  O29      1.0000 0.12930  0.79070  0.57900  Biso   1.000  O
  H74      1.0000 0.15830  0.81420  0.54030  Biso   1.000  H
  O30      1.0000 0.24760  0.71470  0.08200  Biso   1.000  O
  H75      1.0000 0.24740  0.68710  0.08170  Biso   1.000  H
  C28      1.0000 0.02000  0.54850  0.96200  Biso   1.000  C
  H76      1.0000 0.05850  0.54480  0.80440  Biso   1.000  H
  C29      1.0000 0.08200  0.52630  0.12400  Biso   1.000  C
  H77      1.0000 0.15310  0.53950  0.11750  Biso   1.000  H
  H78      1.0000 0.05330  0.53210  0.28880  Biso   1.000  H
  C30      1.0000 0.90800  0.52680  0.91000  Biso   1.000  C
  H79      1.0000 0.13990  0.53340  0.04710  Biso   1.000  H
  H80      1.0000 0.12240  0.54040  0.76130  Biso   1.000  H
  O31      1.0000 0.36800  0.20750  0.42600  Biso   1.000  O
  H81      1.0000 0.33880  0.18390  0.46370  Biso   1.000  H
  O32      1.0000 0.37070  0.20930  0.07900  Biso   1.000  O
  H82      1.0000 0.34170  0.18580  0.04030  Biso   1.000  H
  O33      1.0000 0.25240  0.28530  0.58200  Biso   1.000  O
  H83      1.0000 0.25260  0.31290  0.58170  Biso   1.000  H
  C31      1.0000 0.48000  0.45150  0.46200  Biso   1.000  C
  H84      1.0000 0.44150  0.45520  0.30440  Biso   1.000  H
  C32      1.0000 0.41800  0.47370  0.62400  Biso   1.000  C
  H85      1.0000 0.34690  0.46050  0.61750  Biso   1.000  H
  H86      1.0000 0.44670  0.46790  0.78880  Biso   1.000  H
  C33      1.0000 0.59200  0.47320  0.41000  Biso   1.000  C
  H87      1.0000 0.36010  0.46660  0.54710  Biso   1.000  H
  H88      1.0000 0.37760  0.45960  0.26130  Biso   1.000  H
  O34      1.0000 0.86800  0.70750  0.92600  Biso   1.000  O
  H89      1.0000 0.83880  0.68390  0.96370  Biso   1.000  H
  O35      1.0000 0.87070  0.70930  0.57900  Biso   1.000  O
  H90      1.0000 0.84170  0.68580  0.54030  Biso   1.000  H
  O36      1.0000 0.75240  0.78530  0.08200  Biso   1.000  O
  H91      1.0000 0.75260  0.81290  0.08170  Biso   1.000  H
  C34      1.0000 0.98000  0.95150  0.96200  Biso   1.000  C
  H92      1.0000 0.94150  0.95520  0.80440  Biso   1.000  H
  C35      1.0000 0.91800  0.97370  0.12400  Biso   1.000  C
  H93      1.0000 0.84690  0.96050  0.11750  Biso   1.000  H
  H94      1.0000 0.94670  0.96790  0.28880  Biso   1.000  H
  C36      1.0000 0.09200  0.97320  0.91000  Biso   1.000  C
  H95      1.0000 0.86010  0.96660  0.04710  Biso   1.000  H
  H96      1.0000 0.87760  0.95960  0.76130  Biso   1.000  H
  O37      1.0000 0.36800  0.79250  0.57400  Biso   1.000  O
  H97      1.0000 0.33880  0.81610  0.53630  Biso   1.000  H
  O38      1.0000 0.37070  0.79070  0.92100  Biso   1.000  O
  H98      1.0000 0.34170  0.81420  0.95970  Biso   1.000  H
  O39      1.0000 0.25240  0.71470  0.41800  Biso   1.000  O
  H99      1.0000 0.25260  0.68710  0.41830  Biso   1.000  H
  C37      1.0000 0.48000  0.54850  0.53800  Biso   1.000  C
  H100     1.0000 0.44150  0.54480  0.69560  Biso   1.000  H
  C38      1.0000 0.41800  0.52630  0.37600  Biso   1.000  C
  H101     1.0000 0.34690  0.53950  0.38250  Biso   1.000  H
  H102     1.0000 0.44670  0.53210  0.21120  Biso   1.000  H
  C39      1.0000 0.59200  0.52680  0.59000  Biso   1.000  C
  H103     1.0000 0.36010  0.53340  0.45290  Biso   1.000  H
  H104     1.0000 0.37760  0.54040  0.73870  Biso   1.000  H
  O40      1.0000 0.86800  0.29250  0.07400  Biso   1.000  O
  H105     1.0000 0.83880  0.31610  0.03630  Biso   1.000  H
  O41      1.0000 0.87070  0.29070  0.42100  Biso   1.000  O
  H106     1.0000 0.84170  0.31420  0.45970  Biso   1.000  H
  O42      1.0000 0.75240  0.21470  0.91800  Biso   1.000  O
  H107     1.0000 0.75260  0.18710  0.91830  Biso   1.000  H
  C40      1.0000 0.98000  0.04850  0.03800  Biso   1.000  C
  H108     1.0000 0.94150  0.04480  0.19560  Biso   1.000  H
  C41      1.0000 0.91800  0.02630  0.87600  Biso   1.000  C
  H109     1.0000 0.84690  0.03950  0.88250  Biso   1.000  H
  H110     1.0000 0.94670  0.03210  0.71120  Biso   1.000  H
  C42      1.0000 0.09200  0.02680  0.09000  Biso   1.000  C
  H111     1.0000 0.86010  0.03340  0.95290  Biso   1.000  H
  H112     1.0000 0.87760  0.04040  0.23870  Biso   1.000  H
  O43      1.0000 0.63200  0.70750  0.57400  Biso   1.000  O
  H113     1.0000 0.66120  0.68390  0.53630  Biso   1.000  H
  O44      1.0000 0.62930  0.70930  0.92100  Biso   1.000  O
  H114     1.0000 0.65830  0.68580  0.95970  Biso   1.000  H
  O45      1.0000 0.74760  0.78530  0.41800  Biso   1.000  O
  H115     1.0000 0.74740  0.81290  0.41830  Biso   1.000  H
  C43      1.0000 0.52000  0.95150  0.53800  Biso   1.000  C
  H116     1.0000 0.55850  0.95520  0.69560  Biso   1.000  H
  C44      1.0000 0.58200  0.97370  0.37600  Biso   1.000  C
  H117     1.0000 0.65310  0.96050  0.38250  Biso   1.000  H
  H118     1.0000 0.55330  0.96790  0.21120  Biso   1.000  H
  C45      1.0000 0.40800  0.97320  0.59000  Biso   1.000  C
  H119     1.0000 0.63990  0.96660  0.45290  Biso   1.000  H
  H120     1.0000 0.62240  0.95960  0.73870  Biso   1.000  H
  O46      1.0000 0.13200  0.20750  0.07400  Biso   1.000  O
  H121     1.0000 0.16120  0.18390  0.03630  Biso   1.000  H
  O47      1.0000 0.12930  0.20930  0.42100  Biso   1.000  O
  H122     1.0000 0.15830  0.18580  0.45970  Biso   1.000  H
  O48      1.0000 0.24760  0.28530  0.91800  Biso   1.000  O
  H123     1.0000 0.24740  0.31290  0.91830  Biso   1.000  H
  C46      1.0000 0.02000  0.45150  0.03800  Biso   1.000  C
  H124     1.0000 0.05850  0.45520  0.19560  Biso   1.000  H
  C47      1.0000 0.08200  0.47370  0.87600  Biso   1.000  C
  H125     1.0000 0.15310  0.46050  0.88250  Biso   1.000  H
  H126     1.0000 0.05330  0.46790  0.71120  Biso   1.000  H
  C48      1.0000 0.90800  0.47320  0.09000  Biso   1.000  C
  H127     1.0000 0.13990  0.46660  0.95290  Biso   1.000  H
  H128     1.0000 0.12240  0.45960  0.23870  Biso   1.000  H
  Co1      1.0000 0.37561  0.75000  0.24540  Biso   1.000  Co
  Co2      1.0000 0.87561  0.25000  0.74540  Biso   1.000  Co
  Co3      1.0000 0.62439  0.75000  0.24540  Biso   1.000  Co
  Co4      1.0000 0.12439  0.25000  0.74540  Biso   1.000  Co
  Co5      1.0000 0.62439  0.25000  0.75460  Biso   1.000  Co
  Co6      1.0000 0.12439  0.75000  0.25460  Biso   1.000  Co
  Co7      1.0000 0.37561  0.25000  0.75460  Biso   1.000  Co
  Co8      1.0000 0.87561  0.75000  0.25460  Biso   1.000  Co
  Co9      1.0000 0.25000  0.75000  0.75000  Biso   1.000  Co
  Co10     1.0000 0.75000  0.75000  0.75000  Biso   1.000  Co
  Co11     1.0000 0.75000  0.25000  0.25000  Biso   1.000  Co
  Co12     1.0000 0.25000  0.25000  0.25000  Biso   1.000  Co
  Co13     1.0000 0.50000  0.80909  0.74180  Biso   1.000  Co
  O49      1.0000 0.50000  0.79460  0.10300  Biso   1.000  O
  H129     1.0000 0.50000  0.81820  0.17960  Biso   1.000  H
  O50      1.0000 0.50000  0.78970  0.38600  Biso   1.000  O
  H130     1.0000 0.50000  0.81310  0.30670  Biso   1.000  H
  O51      1.0000 0.50000  0.87880  0.73470  Biso   1.000  O
  O52      1.0000 0.50000  0.88000  0.33000  Biso   1.000  O
  C49      1.0000 0.50000  0.89920  0.52300  Biso   1.000  C
  Co14     1.0000 0.00000  0.30909  0.24180  Biso   1.000  Co
  O53      1.0000 0.00000  0.29460  0.60300  Biso   1.000  O
  H131     1.0000 0.00000  0.31820  0.67960  Biso   1.000  H
  O54      1.0000 0.00000  0.28970  0.88600  Biso   1.000  O
  H132     1.0000 0.00000  0.31310  0.80670  Biso   1.000  H
  O55      1.0000 0.00000  0.37880  0.23470  Biso   1.000  O
  O56      1.0000 0.00000  0.38000  0.83000  Biso   1.000  O
  C50      1.0000 0.00000  0.39920  0.02300  Biso   1.000  C
  Co15     1.0000 0.50000  0.69091  0.74180  Biso   1.000  Co
  O57      1.0000 0.50000  0.70540  0.10300  Biso   1.000  O
  H133     1.0000 0.50000  0.68180  0.17960  Biso   1.000  H
  O58      1.0000 0.50000  0.71030  0.38600  Biso   1.000  O
  H134     1.0000 0.50000  0.68690  0.30670  Biso   1.000  H
  O59      1.0000 0.50000  0.62120  0.73470  Biso   1.000  O
  O60      1.0000 0.50000  0.62000  0.33000  Biso   1.000  O
  C51      1.0000 0.50000  0.60080  0.52300  Biso   1.000  C
  Co16     1.0000 0.00000  0.19091  0.24180  Biso   1.000  Co
  O61      1.0000 0.00000  0.20540  0.60300  Biso   1.000  O
  H135     1.0000 0.00000  0.18180  0.67960  Biso   1.000  H
  O62      1.0000 0.00000  0.21030  0.88600  Biso   1.000  O
  H136     1.0000 0.00000  0.18690  0.80670  Biso   1.000  H
  O63      1.0000 0.00000  0.12120  0.23470  Biso   1.000  O
  O64      1.0000 0.00000  0.12000  0.83000  Biso   1.000  O
  C52      1.0000 0.00000  0.10080  0.02300  Biso   1.000  C
  Co17     1.0000 0.50000  0.30909  0.25820  Biso   1.000  Co
  O65      1.0000 0.50000  0.29460  0.89700  Biso   1.000  O
  H137     1.0000 0.50000  0.31820  0.82040  Biso   1.000  H
  O66      1.0000 0.50000  0.28970  0.61400  Biso   1.000  O
  H138     1.0000 0.50000  0.31310  0.69330  Biso   1.000  H
  O67      1.0000 0.50000  0.37880  0.26530  Biso   1.000  O
  O68      1.0000 0.50000  0.38000  0.67000  Biso   1.000  O
  C53      1.0000 0.50000  0.39920  0.47700  Biso   1.000  C
  Co18     1.0000 0.00000  0.80909  0.75820  Biso   1.000  Co
  O69      1.0000 0.00000  0.79460  0.39700  Biso   1.000  O
  H139     1.0000 0.00000  0.81820  0.32040  Biso   1.000  H
  O70      1.0000 0.00000  0.78970  0.11400  Biso   1.000  O
  H140     1.0000 0.00000  0.81310  0.19330  Biso   1.000  H
  O71      1.0000 0.00000  0.87880  0.76530  Biso   1.000  O
  O72      1.0000 0.00000  0.88000  0.17000  Biso   1.000  O
  C54      1.0000 0.00000  0.89920  0.97700  Biso   1.000  C
  Co19     1.0000 0.50000  0.19091  0.25820  Biso   1.000  Co
  O73      1.0000 0.50000  0.20540  0.89700  Biso   1.000  O
  H141     1.0000 0.50000  0.18180  0.82040  Biso   1.000  H
  O74      1.0000 0.50000  0.21030  0.61400  Biso   1.000  O
  H142     1.0000 0.50000  0.18690  0.69330  Biso   1.000  H
  O75      1.0000 0.50000  0.12120  0.26530  Biso   1.000  O
  O76      1.0000 0.50000  0.12000  0.67000  Biso   1.000  O
  C55      1.0000 0.50000  0.10080  0.47700  Biso   1.000  C
  Co20     1.0000 0.00000  0.69091  0.75820  Biso   1.000  Co
  O77      1.0000 0.00000  0.70540  0.39700  Biso   1.000  O
  H143     1.0000 0.00000  0.68180  0.32040  Biso   1.000  H
  O78      1.0000 0.00000  0.71030  0.11400  Biso   1.000  O
  H144     1.0000 0.00000  0.68690  0.19330  Biso   1.000  H
  O79      1.0000 0.00000  0.62120  0.76530  Biso   1.000  O
  O80      1.0000 0.00000  0.62000  0.17000  Biso   1.000  O
  C56      1.0000 0.00000  0.60080  0.97700  Biso   1.000  C
