data_image0
_cell_length_a       12.456
_cell_length_b       29.027
_cell_length_c       5.3996
_cell_angle_alpha    90
_cell_angle_beta     90
_cell_angle_gamma    90

_symmetry_space_group_name_H-M    "P 1"
_symmetry_int_tables_number       1

loop_
  _symmetry_equiv_pos_as_xyz
  'x, y, z'

loop_
  _atom_site_label
  _atom_site_occupancy
  _atom_site_fract_x
  _atom_site_fract_y
  _atom_site_fract_z
  _atom_site_thermal_displace_type
  _atom_site_B_iso_or_equiv
  _atom_site_type_symbol
  O1       1.0000 0.36830  0.70650  0.57390  Biso   1.000  O
  H1       1.0000 0.33930  0.68290  0.53590  Biso   1.000  H
  O2       1.0000 0.37050  0.70950  0.91980  Biso   1.000  O
  H2       1.0000 0.34150  0.68600  0.95880  Biso   1.000  H
  O3       1.0000 0.25180  0.78540  0.41870  Biso   1.000  O
  H3       1.0000 0.25190  0.81300  0.41920  Biso   1.000  H
  C1       1.0000 0.47790  0.95180  0.54800  Biso   1.000  C
  H4       1.0000 0.43090  0.95580  0.69620  Biso   1.000  H
  C2       1.0000 0.42360  0.97440  0.34800  Biso   1.000  C
  H5       1.0000 0.35120  0.96080  0.32890  Biso   1.000  H
  H6       1.0000 0.46360  0.96870  0.19220  Biso   1.000  H
  C3       1.0000 0.58800  0.97400  0.61700  Biso   1.000  C
  H7       1.0000 0.35940  0.96790  0.48320  Biso   1.000  H
  H8       1.0000 0.38460  0.95990  0.77110  Biso   1.000  H
  O4       1.0000 0.86830  0.20650  0.07390  Biso   1.000  O
  H9       1.0000 0.83930  0.18290  0.03590  Biso   1.000  H
  O5       1.0000 0.87050  0.20950  0.41980  Biso   1.000  O
  H10      1.0000 0.84150  0.18600  0.45880  Biso   1.000  H
  O6       1.0000 0.75180  0.28540  0.91870  Biso   1.000  O
  H11      1.0000 0.75190  0.31300  0.91920  Biso   1.000  H
  C4       1.0000 0.97790  0.45180  0.04800  Biso   1.000  C
  H12      1.0000 0.93090  0.45580  0.19620  Biso   1.000  H
  C5       1.0000 0.92360  0.47440  0.84800  Biso   1.000  C
  H13      1.0000 0.85120  0.46080  0.82890  Biso   1.000  H
  H14      1.0000 0.96360  0.46870  0.69220  Biso   1.000  H
  C6       1.0000 0.08800  0.47400  0.11700  Biso   1.000  C
  H15      1.0000 0.85940  0.46790  0.98320  Biso   1.000  H
  H16      1.0000 0.88460  0.45990  0.27110  Biso   1.000  H
  O7       1.0000 0.63170  0.79350  0.57390  Biso   1.000  O
  H17      1.0000 0.66070  0.81710  0.53590  Biso   1.000  H
  O8       1.0000 0.62950  0.79050  0.91980  Biso   1.000  O
  H18      1.0000 0.65850  0.81400  0.95880  Biso   1.000  H
  O9       1.0000 0.74820  0.71460  0.41870  Biso   1.000  O
  H19      1.0000 0.74810  0.68700  0.41920  Biso   1.000  H
  C7       1.0000 0.52210  0.54820  0.54800  Biso   1.000  C
  H20      1.0000 0.56910  0.54420  0.69620  Biso   1.000  H
  C8       1.0000 0.57640  0.52560  0.34800  Biso   1.000  C
  H21      1.0000 0.64880  0.53920  0.32890  Biso   1.000  H
  H22      1.0000 0.53640  0.53130  0.19220  Biso   1.000  H
  C9       1.0000 0.41200  0.52600  0.61700  Biso   1.000  C
  H23      1.0000 0.64060  0.53210  0.48320  Biso   1.000  H
  H24      1.0000 0.61540  0.54010  0.77110  Biso   1.000  H
  O10      1.0000 0.13170  0.29350  0.07390  Biso   1.000  O
  H25      1.0000 0.16070  0.31710  0.03590  Biso   1.000  H
  O11      1.0000 0.12950  0.29050  0.41980  Biso   1.000  O
  H26      1.0000 0.15850  0.31400  0.45880  Biso   1.000  H
  O12      1.0000 0.24820  0.21460  0.91870  Biso   1.000  O
  H27      1.0000 0.24810  0.18700  0.91920  Biso   1.000  H
  C10      1.0000 0.02210  0.04820  0.04800  Biso   1.000  C
  H28      1.0000 0.06910  0.04420  0.19620  Biso   1.000  H
  C11      1.0000 0.07640  0.02560  0.84800  Biso   1.000  C
  H29      1.0000 0.14880  0.03920  0.82890  Biso   1.000  H
  H30      1.0000 0.03640  0.03130  0.69220  Biso   1.000  H
  C12      1.0000 0.91200  0.02600  0.11700  Biso   1.000  C
  H31      1.0000 0.14060  0.03210  0.98320  Biso   1.000  H
  H32      1.0000 0.11540  0.04010  0.27110  Biso   1.000  H
  O13      1.0000 0.63170  0.20650  0.42610  Biso   1.000  O
  H33      1.0000 0.66070  0.18290  0.46410  Biso   1.000  H
  O14      1.0000 0.62950  0.20950  0.08020  Biso   1.000  O
  H34      1.0000 0.65850  0.18600  0.04120  Biso   1.000  H
  O15      1.0000 0.74820  0.28540  0.58130  Biso   1.000  O
  H35      1.0000 0.74810  0.31300  0.58080  Biso   1.000  H
  C13      1.0000 0.52210  0.45180  0.45200  Biso   1.000  C
  H36      1.0000 0.56910  0.45580  0.30380  Biso   1.000  H
  C14      1.0000 0.57640  0.47440  0.65200  Biso   1.000  C
  H37      1.0000 0.64880  0.46080  0.67110  Biso   1.000  H
  H38      1.0000 0.53640  0.46870  0.80780  Biso   1.000  H
  C15      1.0000 0.41200  0.47400  0.38300  Biso   1.000  C
  H39      1.0000 0.64060  0.46790  0.51680  Biso   1.000  H
  H40      1.0000 0.61540  0.45990  0.22890  Biso   1.000  H
  O16      1.0000 0.13170  0.70650  0.92610  Biso   1.000  O
  H41      1.0000 0.16070  0.68290  0.96410  Biso   1.000  H
  O17      1.0000 0.12950  0.70950  0.58020  Biso   1.000  O
  H42      1.0000 0.15850  0.68600  0.54120  Biso   1.000  H
  O18      1.0000 0.24820  0.78540  0.08130  Biso   1.000  O
  H43      1.0000 0.24810  0.81300  0.08080  Biso   1.000  H
  C16      1.0000 0.02210  0.95180  0.95200  Biso   1.000  C
  H44      1.0000 0.06910  0.95580  0.80380  Biso   1.000  H
  C17      1.0000 0.07640  0.97440  0.15200  Biso   1.000  C
  H45      1.0000 0.14880  0.96080  0.17110  Biso   1.000  H
  H46      1.0000 0.03640  0.96870  0.30780  Biso   1.000  H
  C18      1.0000 0.91200  0.97400  0.88300  Biso   1.000  C
  H47      1.0000 0.14060  0.96790  0.01680  Biso   1.000  H
  H48      1.0000 0.11540  0.95990  0.72890  Biso   1.000  H
  O19      1.0000 0.36830  0.29350  0.42610  Biso   1.000  O
  H49      1.0000 0.33930  0.31710  0.46410  Biso   1.000  H
  O20      1.0000 0.37050  0.29050  0.08020  Biso   1.000  O
  H50      1.0000 0.34150  0.31400  0.04120  Biso   1.000  H
  O21      1.0000 0.25180  0.21460  0.58130  Biso   1.000  O
  H51      1.0000 0.25190  0.18700  0.58080  Biso   1.000  H
  C19      1.0000 0.47790  0.04820  0.45200  Biso   1.000  C
  H52      1.0000 0.43090  0.04420  0.30380  Biso   1.000  H
  C20      1.0000 0.42360  0.02560  0.65200  Biso   1.000  C
  H53      1.0000 0.35120  0.03920  0.67110  Biso   1.000  H
  H54      1.0000 0.46360  0.03130  0.80780  Biso   1.000  H
  C21      1.0000 0.58800  0.02600  0.38300  Biso   1.000  C
  H55      1.0000 0.35940  0.03210  0.51680  Biso   1.000  H
  H56      1.0000 0.38460  0.04010  0.22890  Biso   1.000  H
  O22      1.0000 0.86830  0.79350  0.92610  Biso   1.000  O
  H57      1.0000 0.83930  0.81710  0.96410  Biso   1.000  H
  O23      1.0000 0.87050  0.79050  0.58020  Biso   1.000  O
  H58      1.0000 0.84150  0.81400  0.54120  Biso   1.000  H
  O24      1.0000 0.75180  0.71460  0.08130  Biso   1.000  O
  H59      1.0000 0.75190  0.68700  0.08080  Biso   1.000  H
  C22      1.0000 0.97790  0.54820  0.95200  Biso   1.000  C
  H60      1.0000 0.93090  0.54420  0.80380  Biso   1.000  H
  C23      1.0000 0.92360  0.52560  0.15200  Biso   1.000  C
  H61      1.0000 0.85120  0.53920  0.17110  Biso   1.000  H
  H62      1.0000 0.96360  0.53130  0.30780  Biso   1.000  H
  C24      1.0000 0.08800  0.52600  0.88300  Biso   1.000  C
  H63      1.0000 0.85940  0.53210  0.01680  Biso   1.000  H
  H64      1.0000 0.88460  0.54010  0.72890  Biso   1.000  H
  O25      1.0000 0.63170  0.29350  0.42610  Biso   1.000  O
  H65      1.0000 0.66070  0.31710  0.46410  Biso   1.000  H
  O26      1.0000 0.62950  0.29050  0.08020  Biso   1.000  O
  H66      1.0000 0.65850  0.31400  0.04120  Biso   1.000  H
  O27      1.0000 0.74820  0.21460  0.58130  Biso   1.000  O
  H67      1.0000 0.74810  0.18700  0.58080  Biso   1.000  H
  C25      1.0000 0.52210  0.04820  0.45200  Biso   1.000  C
  H68      1.0000 0.56910  0.04420  0.30380  Biso   1.000  H
  C26      1.0000 0.57640  0.02560  0.65200  Biso   1.000  C
  H69      1.0000 0.64880  0.03920  0.67110  Biso   1.000  H
  H70      1.0000 0.53640  0.03130  0.80780  Biso   1.000  H
  C27      1.0000 0.41200  0.02600  0.38300  Biso   1.000  C
  H71      1.0000 0.64060  0.03210  0.51680  Biso   1.000  H
  H72      1.0000 0.61540  0.04010  0.22890  Biso   1.000  H
  O28      1.0000 0.13170  0.79350  0.92610  Biso   1.000  O
  H73      1.0000 0.16070  0.81710  0.96410  Biso   1.000  H
  O29      1.0000 0.12950  0.79050  0.58020  Biso   1.000  O
  H74      1.0000 0.15850  0.81400  0.54120  Biso   1.000  H
  O30      1.0000 0.24820  0.71460  0.08130  Biso   1.000  O
  H75      1.0000 0.24810  0.68700  0.08080  Biso   1.000  H
  C28      1.0000 0.02210  0.54820  0.95200  Biso   1.000  C
  H76      1.0000 0.06910  0.54420  0.80380  Biso   1.000  H
  C29      1.0000 0.07640  0.52560  0.15200  Biso   1.000  C
  H77      1.0000 0.14880  0.53920  0.17110  Biso   1.000  H
  H78      1.0000 0.03640  0.53130  0.30780  Biso   1.000  H
  C30      1.0000 0.91200  0.52600  0.88300  Biso   1.000  C
  H79      1.0000 0.14060  0.53210  0.01680  Biso   1.000  H
  H80      1.0000 0.11540  0.54010  0.72890  Biso   1.000  H
  O31      1.0000 0.36830  0.20650  0.42610  Biso   1.000  O
  H81      1.0000 0.33930  0.18290  0.46410  Biso   1.000  H
  O32      1.0000 0.37050  0.20950  0.08020  Biso   1.000  O
  H82      1.0000 0.34150  0.18600  0.04120  Biso   1.000  H
  O33      1.0000 0.25180  0.28540  0.58130  Biso   1.000  O
  H83      1.0000 0.25190  0.31300  0.58080  Biso   1.000  H
  C31      1.0000 0.47790  0.45180  0.45200  Biso   1.000  C
  H84      1.0000 0.43090  0.45580  0.30380  Biso   1.000  H
  C32      1.0000 0.42360  0.47440  0.65200  Biso   1.000  C
  H85      1.0000 0.35120  0.46080  0.67110  Biso   1.000  H
  H86      1.0000 0.46360  0.46870  0.80780  Biso   1.000  H
  C33      1.0000 0.58800  0.47400  0.38300  Biso   1.000  C
  H87      1.0000 0.35940  0.46790  0.51680  Biso   1.000  H
  H88      1.0000 0.38460  0.45990  0.22890  Biso   1.000  H
  O34      1.0000 0.86830  0.70650  0.92610  Biso   1.000  O
  H89      1.0000 0.83930  0.68290  0.96410  Biso   1.000  H
  O35      1.0000 0.87050  0.70950  0.58020  Biso   1.000  O
  H90      1.0000 0.84150  0.68600  0.54120  Biso   1.000  H
  O36      1.0000 0.75180  0.78540  0.08130  Biso   1.000  O
  H91      1.0000 0.75190  0.81300  0.08080  Biso   1.000  H
  C34      1.0000 0.97790  0.95180  0.95200  Biso   1.000  C
  H92      1.0000 0.93090  0.95580  0.80380  Biso   1.000  H
  C35      1.0000 0.92360  0.97440  0.15200  Biso   1.000  C
  H93      1.0000 0.85120  0.96080  0.17110  Biso   1.000  H
  H94      1.0000 0.96360  0.96870  0.30780  Biso   1.000  H
  C36      1.0000 0.08800  0.97400  0.88300  Biso   1.000  C
  H95      1.0000 0.85940  0.96790  0.01680  Biso   1.000  H
  H96      1.0000 0.88460  0.95990  0.72890  Biso   1.000  H
  O37      1.0000 0.36830  0.79350  0.57390  Biso   1.000  O
  H97      1.0000 0.33930  0.81710  0.53590  Biso   1.000  H
  O38      1.0000 0.37050  0.79050  0.91980  Biso   1.000  O
  H98      1.0000 0.34150  0.81400  0.95880  Biso   1.000  H
  O39      1.0000 0.25180  0.71460  0.41870  Biso   1.000  O
  H99      1.0000 0.25190  0.68700  0.41920  Biso   1.000  H
  C37      1.0000 0.47790  0.54820  0.54800  Biso   1.000  C
  H100     1.0000 0.43090  0.54420  0.69620  Biso   1.000  H
  C38      1.0000 0.42360  0.52560  0.34800  Biso   1.000  C
  H101     1.0000 0.35120  0.53920  0.32890  Biso   1.000  H
  H102     1.0000 0.46360  0.53130  0.19220  Biso   1.000  H
  C39      1.0000 0.58800  0.52600  0.61700  Biso   1.000  C
  H103     1.0000 0.35940  0.53210  0.48320  Biso   1.000  H
  H104     1.0000 0.38460  0.54010  0.77110  Biso   1.000  H
  O40      1.0000 0.86830  0.29350  0.07390  Biso   1.000  O
  H105     1.0000 0.83930  0.31710  0.03590  Biso   1.000  H
  O41      1.0000 0.87050  0.29050  0.41980  Biso   1.000  O
  H106     1.0000 0.84150  0.31400  0.45880  Biso   1.000  H
  O42      1.0000 0.75180  0.21460  0.91870  Biso   1.000  O
  H107     1.0000 0.75190  0.18700  0.91920  Biso   1.000  H
  C40      1.0000 0.97790  0.04820  0.04800  Biso   1.000  C
  H108     1.0000 0.93090  0.04420  0.19620  Biso   1.000  H
  C41      1.0000 0.92360  0.02560  0.84800  Biso   1.000  C
  H109     1.0000 0.85120  0.03920  0.82890  Biso   1.000  H
  H110     1.0000 0.96360  0.03130  0.69220  Biso   1.000  H
  C42      1.0000 0.08800  0.02600  0.11700  Biso   1.000  C
  H111     1.0000 0.85940  0.03210  0.98320  Biso   1.000  H
  H112     1.0000 0.88460  0.04010  0.27110  Biso   1.000  H
  O43      1.0000 0.63170  0.70650  0.57390  Biso   1.000  O
  H113     1.0000 0.66070  0.68290  0.53590  Biso   1.000  H
  O44      1.0000 0.62950  0.70950  0.91980  Biso   1.000  O
  H114     1.0000 0.65850  0.68600  0.95880  Biso   1.000  H
  O45      1.0000 0.74820  0.78540  0.41870  Biso   1.000  O
  H115     1.0000 0.74810  0.81300  0.41920  Biso   1.000  H
  C43      1.0000 0.52210  0.95180  0.54800  Biso   1.000  C
  H116     1.0000 0.56910  0.95580  0.69620  Biso   1.000  H
  C44      1.0000 0.57640  0.97440  0.34800  Biso   1.000  C
  H117     1.0000 0.64880  0.96080  0.32890  Biso   1.000  H
  H118     1.0000 0.53640  0.96870  0.19220  Biso   1.000  H
  C45      1.0000 0.41200  0.97400  0.61700  Biso   1.000  C
  H119     1.0000 0.64060  0.96790  0.48320  Biso   1.000  H
  H120     1.0000 0.61540  0.95990  0.77110  Biso   1.000  H
  O46      1.0000 0.13170  0.20650  0.07390  Biso   1.000  O
  H121     1.0000 0.16070  0.18290  0.03590  Biso   1.000  H
  O47      1.0000 0.12950  0.20950  0.41980  Biso   1.000  O
  H122     1.0000 0.15850  0.18600  0.45880  Biso   1.000  H
  O48      1.0000 0.24820  0.28540  0.91870  Biso   1.000  O
  H123     1.0000 0.24810  0.31300  0.91920  Biso   1.000  H
  C46      1.0000 0.02210  0.45180  0.04800  Biso   1.000  C
  H124     1.0000 0.06910  0.45580  0.19620  Biso   1.000  H
  C47      1.0000 0.07640  0.47440  0.84800  Biso   1.000  C
  H125     1.0000 0.14880  0.46080  0.82890  Biso   1.000  H
  H126     1.0000 0.03640  0.46870  0.69220  Biso   1.000  H
  C48      1.0000 0.91200  0.47400  0.11700  Biso   1.000  C
  H127     1.0000 0.14060  0.46790  0.98320  Biso   1.000  H
  H128     1.0000 0.11540  0.45990  0.27110  Biso   1.000  H
  Co1      1.0000 0.37551  0.75000  0.24540  Biso   1.000  Co
  Co2      1.0000 0.87551  0.25000  0.74540  Biso   1.000  Co
  Co3      1.0000 0.62449  0.75000  0.24540  Biso   1.000  Co
  Co4      1.0000 0.12449  0.25000  0.74540  Biso   1.000  Co
  Co5      1.0000 0.62449  0.25000  0.75460  Biso   1.000  Co
  Co6      1.0000 0.12449  0.75000  0.25460  Biso   1.000  Co
  Co7      1.0000 0.37551  0.25000  0.75460  Biso   1.000  Co
  Co8      1.0000 0.87551  0.75000  0.25460  Biso   1.000  Co
  Co9      1.0000 0.25000  0.75000  0.75000  Biso   1.000  Co
  Co10     1.0000 0.75000  0.75000  0.75000  Biso   1.000  Co
  Co11     1.0000 0.75000  0.25000  0.25000  Biso   1.000  Co
  Co12     1.0000 0.25000  0.25000  0.25000  Biso   1.000  Co
  Co13     1.0000 0.50000  0.80905  0.74240  Biso   1.000  Co
  O49      1.0000 0.50000  0.79380  0.10300  Biso   1.000  O
  H129     1.0000 0.50000  0.81730  0.17970  Biso   1.000  H
  O50      1.0000 0.50000  0.78820  0.38800  Biso   1.000  O
  H130     1.0000 0.50000  0.81140  0.30850  Biso   1.000  H
  O51      1.0000 0.50000  0.87860  0.73730  Biso   1.000  O
  O52      1.0000 0.50000  0.88070  0.32640  Biso   1.000  O
  C49      1.0000 0.50000  0.89970  0.52800  Biso   1.000  C
  Co14     1.0000 0.00000  0.30905  0.24240  Biso   1.000  Co
  O53      1.0000 0.00000  0.29380  0.60300  Biso   1.000  O
  H131     1.0000 0.00000  0.31730  0.67970  Biso   1.000  H
  O54      1.0000 0.00000  0.28820  0.88800  Biso   1.000  O
  H132     1.0000 0.00000  0.31140  0.80850  Biso   1.000  H
  O55      1.0000 0.00000  0.37860  0.23730  Biso   1.000  O
  O56      1.0000 0.00000  0.38070  0.82640  Biso   1.000  O
  C50      1.0000 0.00000  0.39970  0.02800  Biso   1.000  C
  Co15     1.0000 0.50000  0.69095  0.74240  Biso   1.000  Co
  O57      1.0000 0.50000  0.70620  0.10300  Biso   1.000  O
  H133     1.0000 0.50000  0.68270  0.17970  Biso   1.000  H
  O58      1.0000 0.50000  0.71180  0.38800  Biso   1.000  O
  H134     1.0000 0.50000  0.68860  0.30850  Biso   1.000  H
  O59      1.0000 0.50000  0.62140  0.73730  Biso   1.000  O
  O60      1.0000 0.50000  0.61930  0.32640  Biso   1.000  O
  C51      1.0000 0.50000  0.60030  0.52800  Biso   1.000  C
  Co16     1.0000 0.00000  0.19095  0.24240  Biso   1.000  Co
  O61      1.0000 0.00000  0.20620  0.60300  Biso   1.000  O
  H135     1.0000 0.00000  0.18270  0.67970  Biso   1.000  H
  O62      1.0000 0.00000  0.21180  0.88800  Biso   1.000  O
  H136     1.0000 0.00000  0.18860  0.80850  Biso   1.000  H
  O63      1.0000 0.00000  0.12140  0.23730  Biso   1.000  O
  O64      1.0000 0.00000  0.11930  0.82640  Biso   1.000  O
  C52      1.0000 0.00000  0.10030  0.02800  Biso   1.000  C
  Co17     1.0000 0.50000  0.30905  0.25760  Biso   1.000  Co
  O65      1.0000 0.50000  0.29380  0.89700  Biso   1.000  O
  H137     1.0000 0.50000  0.31730  0.82030  Biso   1.000  H
  O66      1.0000 0.50000  0.28820  0.61200  Biso   1.000  O
  H138     1.0000 0.50000  0.31140  0.69150  Biso   1.000  H
  O67      1.0000 0.50000  0.37860  0.26270  Biso   1.000  O
  O68      1.0000 0.50000  0.38070  0.67360  Biso   1.000  O
  C53      1.0000 0.50000  0.39970  0.47200  Biso   1.000  C
  Co18     1.0000 0.00000  0.80905  0.75760  Biso   1.000  Co
  O69      1.0000 0.00000  0.79380  0.39700  Biso   1.000  O
  H139     1.0000 0.00000  0.81730  0.32030  Biso   1.000  H
  O70      1.0000 0.00000  0.78820  0.11200  Biso   1.000  O
  H140     1.0000 0.00000  0.81140  0.19150  Biso   1.000  H
  O71      1.0000 0.00000  0.87860  0.76270  Biso   1.000  O
  O72      1.0000 0.00000  0.88070  0.17360  Biso   1.000  O
  C54      1.0000 0.00000  0.89970  0.97200  Biso   1.000  C
  Co19     1.0000 0.50000  0.19095  0.25760  Biso   1.000  Co
  O73      1.0000 0.50000  0.20620  0.89700  Biso   1.000  O
  H141     1.0000 0.50000  0.18270  0.82030  Biso   1.000  H
  O74      1.0000 0.50000  0.21180  0.61200  Biso   1.000  O
  H142     1.0000 0.50000  0.18860  0.69150  Biso   1.000  H
  O75      1.0000 0.50000  0.12140  0.26270  Biso   1.000  O
  O76      1.0000 0.50000  0.11930  0.67360  Biso   1.000  O
  C55      1.0000 0.50000  0.10030  0.47200  Biso   1.000  C
  Co20     1.0000 0.00000  0.69095  0.75760  Biso   1.000  Co
  O77      1.0000 0.00000  0.70620  0.39700  Biso   1.000  O
  H143     1.0000 0.00000  0.68270  0.32030  Biso   1.000  H
  O78      1.0000 0.00000  0.71180  0.11200  Biso   1.000  O
  H144     1.0000 0.00000  0.68860  0.19150  Biso   1.000  H
  O79      1.0000 0.00000  0.62140  0.76270  Biso   1.000  O
  O80      1.0000 0.00000  0.61930  0.17360  Biso   1.000  O
  C56      1.0000 0.00000  0.60030  0.97200  Biso   1.000  C
