data_image0
_cell_length_a       12.3847
_cell_length_b       28.86
_cell_length_c       5.373
_cell_angle_alpha    90
_cell_angle_beta     90
_cell_angle_gamma    90

_symmetry_space_group_name_H-M    "P 1"
_symmetry_int_tables_number       1

loop_
  _symmetry_equiv_pos_as_xyz
  'x, y, z'

loop_
  _atom_site_label
  _atom_site_occupancy
  _atom_site_fract_x
  _atom_site_fract_y
  _atom_site_fract_z
  _atom_site_thermal_displace_type
  _atom_site_B_iso_or_equiv
  _atom_site_type_symbol
  O1       1.0000 0.36660  0.70690  0.57200  Biso   1.000  O
  H1       1.0000 0.33730  0.68330  0.53390  Biso   1.000  H
  O2       1.0000 0.37100  0.70980  0.91900  Biso   1.000  O
  H2       1.0000 0.34180  0.68620  0.95770  Biso   1.000  H
  O3       1.0000 0.25020  0.78530  0.41900  Biso   1.000  O
  H3       1.0000 0.25000  0.81300  0.41940  Biso   1.000  H
  C1       1.0000 0.47890  0.95160  0.54100  Biso   1.000  C
  H4       1.0000 0.43320  0.95560  0.69320  Biso   1.000  H
  C2       1.0000 0.42200  0.97320  0.35200  Biso   1.000  C
  H5       1.0000 0.34920  0.95910  0.34060  Biso   1.000  H
  H6       1.0000 0.45940  0.96760  0.19220  Biso   1.000  H
  C3       1.0000 0.59000  0.97410  0.61000  Biso   1.000  C
  H7       1.0000 0.35680  0.96800  0.47580  Biso   1.000  H
  H8       1.0000 0.38160  0.95990  0.76530  Biso   1.000  H
  O4       1.0000 0.86660  0.20690  0.07200  Biso   1.000  O
  H9       1.0000 0.83730  0.18330  0.03390  Biso   1.000  H
  O5       1.0000 0.87100  0.20980  0.41900  Biso   1.000  O
  H10      1.0000 0.84180  0.18620  0.45770  Biso   1.000  H
  O6       1.0000 0.75020  0.28530  0.91900  Biso   1.000  O
  H11      1.0000 0.75000  0.31300  0.91940  Biso   1.000  H
  C4       1.0000 0.97890  0.45160  0.04100  Biso   1.000  C
  H12      1.0000 0.93320  0.45560  0.19320  Biso   1.000  H
  C5       1.0000 0.92200  0.47320  0.85200  Biso   1.000  C
  H13      1.0000 0.84920  0.45910  0.84060  Biso   1.000  H
  H14      1.0000 0.95940  0.46760  0.69220  Biso   1.000  H
  C6       1.0000 0.09000  0.47410  0.11000  Biso   1.000  C
  H15      1.0000 0.85680  0.46800  0.97580  Biso   1.000  H
  H16      1.0000 0.88160  0.45990  0.26530  Biso   1.000  H
  O7       1.0000 0.63340  0.79310  0.57200  Biso   1.000  O
  H17      1.0000 0.66270  0.81670  0.53390  Biso   1.000  H
  O8       1.0000 0.62900  0.79020  0.91900  Biso   1.000  O
  H18      1.0000 0.65820  0.81380  0.95770  Biso   1.000  H
  O9       1.0000 0.74980  0.71470  0.41900  Biso   1.000  O
  H19      1.0000 0.75000  0.68700  0.41940  Biso   1.000  H
  C7       1.0000 0.52110  0.54840  0.54100  Biso   1.000  C
  H20      1.0000 0.56680  0.54440  0.69320  Biso   1.000  H
  C8       1.0000 0.57800  0.52680  0.35200  Biso   1.000  C
  H21      1.0000 0.65080  0.54090  0.34060  Biso   1.000  H
  H22      1.0000 0.54060  0.53240  0.19220  Biso   1.000  H
  C9       1.0000 0.41000  0.52590  0.61000  Biso   1.000  C
  H23      1.0000 0.64320  0.53200  0.47580  Biso   1.000  H
  H24      1.0000 0.61840  0.54010  0.76530  Biso   1.000  H
  O10      1.0000 0.13340  0.29310  0.07200  Biso   1.000  O
  H25      1.0000 0.16270  0.31670  0.03390  Biso   1.000  H
  O11      1.0000 0.12900  0.29020  0.41900  Biso   1.000  O
  H26      1.0000 0.15820  0.31380  0.45770  Biso   1.000  H
  O12      1.0000 0.24980  0.21470  0.91900  Biso   1.000  O
  H27      1.0000 0.25000  0.18700  0.91940  Biso   1.000  H
  C10      1.0000 0.02110  0.04840  0.04100  Biso   1.000  C
  H28      1.0000 0.06680  0.04440  0.19320  Biso   1.000  H
  C11      1.0000 0.07800  0.02680  0.85200  Biso   1.000  C
  H29      1.0000 0.15080  0.04090  0.84060  Biso   1.000  H
  H30      1.0000 0.04060  0.03240  0.69220  Biso   1.000  H
  C12      1.0000 0.91000  0.02590  0.11000  Biso   1.000  C
  H31      1.0000 0.14320  0.03200  0.97580  Biso   1.000  H
  H32      1.0000 0.11840  0.04010  0.26530  Biso   1.000  H
  O13      1.0000 0.63340  0.20690  0.42800  Biso   1.000  O
  H33      1.0000 0.66270  0.18330  0.46610  Biso   1.000  H
  O14      1.0000 0.62900  0.20980  0.08100  Biso   1.000  O
  H34      1.0000 0.65820  0.18620  0.04230  Biso   1.000  H
  O15      1.0000 0.74980  0.28530  0.58100  Biso   1.000  O
  H35      1.0000 0.75000  0.31300  0.58060  Biso   1.000  H
  C13      1.0000 0.52110  0.45160  0.45900  Biso   1.000  C
  H36      1.0000 0.56680  0.45560  0.30680  Biso   1.000  H
  C14      1.0000 0.57800  0.47320  0.64800  Biso   1.000  C
  H37      1.0000 0.65080  0.45910  0.65940  Biso   1.000  H
  H38      1.0000 0.54060  0.46760  0.80780  Biso   1.000  H
  C15      1.0000 0.41000  0.47410  0.39000  Biso   1.000  C
  H39      1.0000 0.64320  0.46800  0.52420  Biso   1.000  H
  H40      1.0000 0.61840  0.45990  0.23470  Biso   1.000  H
  O16      1.0000 0.13340  0.70690  0.92800  Biso   1.000  O
  H41      1.0000 0.16270  0.68330  0.96610  Biso   1.000  H
  O17      1.0000 0.12900  0.70980  0.58100  Biso   1.000  O
  H42      1.0000 0.15820  0.68620  0.54230  Biso   1.000  H
  O18      1.0000 0.24980  0.78530  0.08100  Biso   1.000  O
  H43      1.0000 0.25000  0.81300  0.08060  Biso   1.000  H
  C16      1.0000 0.02110  0.95160  0.95900  Biso   1.000  C
  H44      1.0000 0.06680  0.95560  0.80680  Biso   1.000  H
  C17      1.0000 0.07800  0.97320  0.14800  Biso   1.000  C
  H45      1.0000 0.15080  0.95910  0.15940  Biso   1.000  H
  H46      1.0000 0.04060  0.96760  0.30780  Biso   1.000  H
  C18      1.0000 0.91000  0.97410  0.89000  Biso   1.000  C
  H47      1.0000 0.14320  0.96800  0.02420  Biso   1.000  H
  H48      1.0000 0.11840  0.95990  0.73470  Biso   1.000  H
  O19      1.0000 0.36660  0.29310  0.42800  Biso   1.000  O
  H49      1.0000 0.33730  0.31670  0.46610  Biso   1.000  H
  O20      1.0000 0.37100  0.29020  0.08100  Biso   1.000  O
  H50      1.0000 0.34180  0.31380  0.04230  Biso   1.000  H
  O21      1.0000 0.25020  0.21470  0.58100  Biso   1.000  O
  H51      1.0000 0.25000  0.18700  0.58060  Biso   1.000  H
  C19      1.0000 0.47890  0.04840  0.45900  Biso   1.000  C
  H52      1.0000 0.43320  0.04440  0.30680  Biso   1.000  H
  C20      1.0000 0.42200  0.02680  0.64800  Biso   1.000  C
  H53      1.0000 0.34920  0.04090  0.65940  Biso   1.000  H
  H54      1.0000 0.45940  0.03240  0.80780  Biso   1.000  H
  C21      1.0000 0.59000  0.02590  0.39000  Biso   1.000  C
  H55      1.0000 0.35680  0.03200  0.52420  Biso   1.000  H
  H56      1.0000 0.38160  0.04010  0.23470  Biso   1.000  H
  O22      1.0000 0.86660  0.79310  0.92800  Biso   1.000  O
  H57      1.0000 0.83730  0.81670  0.96610  Biso   1.000  H
  O23      1.0000 0.87100  0.79020  0.58100  Biso   1.000  O
  H58      1.0000 0.84180  0.81380  0.54230  Biso   1.000  H
  O24      1.0000 0.75020  0.71470  0.08100  Biso   1.000  O
  H59      1.0000 0.75000  0.68700  0.08060  Biso   1.000  H
  C22      1.0000 0.97890  0.54840  0.95900  Biso   1.000  C
  H60      1.0000 0.93320  0.54440  0.80680  Biso   1.000  H
  C23      1.0000 0.92200  0.52680  0.14800  Biso   1.000  C
  H61      1.0000 0.84920  0.54090  0.15940  Biso   1.000  H
  H62      1.0000 0.95940  0.53240  0.30780  Biso   1.000  H
  C24      1.0000 0.09000  0.52590  0.89000  Biso   1.000  C
  H63      1.0000 0.85680  0.53200  0.02420  Biso   1.000  H
  H64      1.0000 0.88160  0.54010  0.73470  Biso   1.000  H
  O25      1.0000 0.63340  0.29310  0.42800  Biso   1.000  O
  H65      1.0000 0.66270  0.31670  0.46610  Biso   1.000  H
  O26      1.0000 0.62900  0.29020  0.08100  Biso   1.000  O
  H66      1.0000 0.65820  0.31380  0.04230  Biso   1.000  H
  O27      1.0000 0.74980  0.21470  0.58100  Biso   1.000  O
  H67      1.0000 0.75000  0.18700  0.58060  Biso   1.000  H
  C25      1.0000 0.52110  0.04840  0.45900  Biso   1.000  C
  H68      1.0000 0.56680  0.04440  0.30680  Biso   1.000  H
  C26      1.0000 0.57800  0.02680  0.64800  Biso   1.000  C
  H69      1.0000 0.65080  0.04090  0.65940  Biso   1.000  H
  H70      1.0000 0.54060  0.03240  0.80780  Biso   1.000  H
  C27      1.0000 0.41000  0.02590  0.39000  Biso   1.000  C
  H71      1.0000 0.64320  0.03200  0.52420  Biso   1.000  H
  H72      1.0000 0.61840  0.04010  0.23470  Biso   1.000  H
  O28      1.0000 0.13340  0.79310  0.92800  Biso   1.000  O
  H73      1.0000 0.16270  0.81670  0.96610  Biso   1.000  H
  O29      1.0000 0.12900  0.79020  0.58100  Biso   1.000  O
  H74      1.0000 0.15820  0.81380  0.54230  Biso   1.000  H
  O30      1.0000 0.24980  0.71470  0.08100  Biso   1.000  O
  H75      1.0000 0.25000  0.68700  0.08060  Biso   1.000  H
  C28      1.0000 0.02110  0.54840  0.95900  Biso   1.000  C
  H76      1.0000 0.06680  0.54440  0.80680  Biso   1.000  H
  C29      1.0000 0.07800  0.52680  0.14800  Biso   1.000  C
  H77      1.0000 0.15080  0.54090  0.15940  Biso   1.000  H
  H78      1.0000 0.04060  0.53240  0.30780  Biso   1.000  H
  C30      1.0000 0.91000  0.52590  0.89000  Biso   1.000  C
  H79      1.0000 0.14320  0.53200  0.02420  Biso   1.000  H
  H80      1.0000 0.11840  0.54010  0.73470  Biso   1.000  H
  O31      1.0000 0.36660  0.20690  0.42800  Biso   1.000  O
  H81      1.0000 0.33730  0.18330  0.46610  Biso   1.000  H
  O32      1.0000 0.37100  0.20980  0.08100  Biso   1.000  O
  H82      1.0000 0.34180  0.18620  0.04230  Biso   1.000  H
  O33      1.0000 0.25020  0.28530  0.58100  Biso   1.000  O
  H83      1.0000 0.25000  0.31300  0.58060  Biso   1.000  H
  C31      1.0000 0.47890  0.45160  0.45900  Biso   1.000  C
  H84      1.0000 0.43320  0.45560  0.30680  Biso   1.000  H
  C32      1.0000 0.42200  0.47320  0.64800  Biso   1.000  C
  H85      1.0000 0.34920  0.45910  0.65940  Biso   1.000  H
  H86      1.0000 0.45940  0.46760  0.80780  Biso   1.000  H
  C33      1.0000 0.59000  0.47410  0.39000  Biso   1.000  C
  H87      1.0000 0.35680  0.46800  0.52420  Biso   1.000  H
  H88      1.0000 0.38160  0.45990  0.23470  Biso   1.000  H
  O34      1.0000 0.86660  0.70690  0.92800  Biso   1.000  O
  H89      1.0000 0.83730  0.68330  0.96610  Biso   1.000  H
  O35      1.0000 0.87100  0.70980  0.58100  Biso   1.000  O
  H90      1.0000 0.84180  0.68620  0.54230  Biso   1.000  H
  O36      1.0000 0.75020  0.78530  0.08100  Biso   1.000  O
  H91      1.0000 0.75000  0.81300  0.08060  Biso   1.000  H
  C34      1.0000 0.97890  0.95160  0.95900  Biso   1.000  C
  H92      1.0000 0.93320  0.95560  0.80680  Biso   1.000  H
  C35      1.0000 0.92200  0.97320  0.14800  Biso   1.000  C
  H93      1.0000 0.84920  0.95910  0.15940  Biso   1.000  H
  H94      1.0000 0.95940  0.96760  0.30780  Biso   1.000  H
  C36      1.0000 0.09000  0.97410  0.89000  Biso   1.000  C
  H95      1.0000 0.85680  0.96800  0.02420  Biso   1.000  H
  H96      1.0000 0.88160  0.95990  0.73470  Biso   1.000  H
  O37      1.0000 0.36660  0.79310  0.57200  Biso   1.000  O
  H97      1.0000 0.33730  0.81670  0.53390  Biso   1.000  H
  O38      1.0000 0.37100  0.79020  0.91900  Biso   1.000  O
  H98      1.0000 0.34180  0.81380  0.95770  Biso   1.000  H
  O39      1.0000 0.25020  0.71470  0.41900  Biso   1.000  O
  H99      1.0000 0.25000  0.68700  0.41940  Biso   1.000  H
  C37      1.0000 0.47890  0.54840  0.54100  Biso   1.000  C
  H100     1.0000 0.43320  0.54440  0.69320  Biso   1.000  H
  C38      1.0000 0.42200  0.52680  0.35200  Biso   1.000  C
  H101     1.0000 0.34920  0.54090  0.34060  Biso   1.000  H
  H102     1.0000 0.45940  0.53240  0.19220  Biso   1.000  H
  C39      1.0000 0.59000  0.52590  0.61000  Biso   1.000  C
  H103     1.0000 0.35680  0.53200  0.47580  Biso   1.000  H
  H104     1.0000 0.38160  0.54010  0.76530  Biso   1.000  H
  O40      1.0000 0.86660  0.29310  0.07200  Biso   1.000  O
  H105     1.0000 0.83730  0.31670  0.03390  Biso   1.000  H
  O41      1.0000 0.87100  0.29020  0.41900  Biso   1.000  O
  H106     1.0000 0.84180  0.31380  0.45770  Biso   1.000  H
  O42      1.0000 0.75020  0.21470  0.91900  Biso   1.000  O
  H107     1.0000 0.75000  0.18700  0.91940  Biso   1.000  H
  C40      1.0000 0.97890  0.04840  0.04100  Biso   1.000  C
  H108     1.0000 0.93320  0.04440  0.19320  Biso   1.000  H
  C41      1.0000 0.92200  0.02680  0.85200  Biso   1.000  C
  H109     1.0000 0.84920  0.04090  0.84060  Biso   1.000  H
  H110     1.0000 0.95940  0.03240  0.69220  Biso   1.000  H
  C42      1.0000 0.09000  0.02590  0.11000  Biso   1.000  C
  H111     1.0000 0.85680  0.03200  0.97580  Biso   1.000  H
  H112     1.0000 0.88160  0.04010  0.26530  Biso   1.000  H
  O43      1.0000 0.63340  0.70690  0.57200  Biso   1.000  O
  H113     1.0000 0.66270  0.68330  0.53390  Biso   1.000  H
  O44      1.0000 0.62900  0.70980  0.91900  Biso   1.000  O
  H114     1.0000 0.65820  0.68620  0.95770  Biso   1.000  H
  O45      1.0000 0.74980  0.78530  0.41900  Biso   1.000  O
  H115     1.0000 0.75000  0.81300  0.41940  Biso   1.000  H
  C43      1.0000 0.52110  0.95160  0.54100  Biso   1.000  C
  H116     1.0000 0.56680  0.95560  0.69320  Biso   1.000  H
  C44      1.0000 0.57800  0.97320  0.35200  Biso   1.000  C
  H117     1.0000 0.65080  0.95910  0.34060  Biso   1.000  H
  H118     1.0000 0.54060  0.96760  0.19220  Biso   1.000  H
  C45      1.0000 0.41000  0.97410  0.61000  Biso   1.000  C
  H119     1.0000 0.64320  0.96800  0.47580  Biso   1.000  H
  H120     1.0000 0.61840  0.95990  0.76530  Biso   1.000  H
  O46      1.0000 0.13340  0.20690  0.07200  Biso   1.000  O
  H121     1.0000 0.16270  0.18330  0.03390  Biso   1.000  H
  O47      1.0000 0.12900  0.20980  0.41900  Biso   1.000  O
  H122     1.0000 0.15820  0.18620  0.45770  Biso   1.000  H
  O48      1.0000 0.24980  0.28530  0.91900  Biso   1.000  O
  H123     1.0000 0.25000  0.31300  0.91940  Biso   1.000  H
  C46      1.0000 0.02110  0.45160  0.04100  Biso   1.000  C
  H124     1.0000 0.06680  0.45560  0.19320  Biso   1.000  H
  C47      1.0000 0.07800  0.47320  0.85200  Biso   1.000  C
  H125     1.0000 0.15080  0.45910  0.84060  Biso   1.000  H
  H126     1.0000 0.04060  0.46760  0.69220  Biso   1.000  H
  C48      1.0000 0.91000  0.47410  0.11000  Biso   1.000  C
  H127     1.0000 0.14320  0.46800  0.97580  Biso   1.000  H
  H128     1.0000 0.11840  0.45990  0.26530  Biso   1.000  H
  Co1      1.0000 0.37551  0.75000  0.24550  Biso   1.000  Co
  Co2      1.0000 0.87551  0.25000  0.74550  Biso   1.000  Co
  Co3      1.0000 0.62449  0.75000  0.24550  Biso   1.000  Co
  Co4      1.0000 0.12449  0.25000  0.74550  Biso   1.000  Co
  Co5      1.0000 0.62449  0.25000  0.75450  Biso   1.000  Co
  Co6      1.0000 0.12449  0.75000  0.25450  Biso   1.000  Co
  Co7      1.0000 0.37551  0.25000  0.75450  Biso   1.000  Co
  Co8      1.0000 0.87551  0.75000  0.25450  Biso   1.000  Co
  Co9      1.0000 0.25000  0.75000  0.75000  Biso   1.000  Co
  Co10     1.0000 0.75000  0.75000  0.75000  Biso   1.000  Co
  Co11     1.0000 0.75000  0.25000  0.25000  Biso   1.000  Co
  Co12     1.0000 0.25000  0.25000  0.25000  Biso   1.000  Co
  Co13     1.0000 0.50000  0.80906  0.74220  Biso   1.000  Co
  O49      1.0000 0.50000  0.79410  0.10400  Biso   1.000  O
  H129     1.0000 0.50000  0.81770  0.18160  Biso   1.000  H
  O50      1.0000 0.50000  0.78970  0.38700  Biso   1.000  O
  H130     1.0000 0.50000  0.81320  0.30780  Biso   1.000  H
  O51      1.0000 0.50000  0.87890  0.73800  Biso   1.000  O
  O52      1.0000 0.50000  0.88000  0.32800  Biso   1.000  O
  C49      1.0000 0.50000  0.89980  0.52500  Biso   1.000  C
  Co14     1.0000 0.00000  0.30906  0.24220  Biso   1.000  Co
  O53      1.0000 0.00000  0.29410  0.60400  Biso   1.000  O
  H131     1.0000 0.00000  0.31770  0.68160  Biso   1.000  H
  O54      1.0000 0.00000  0.28970  0.88700  Biso   1.000  O
  H132     1.0000 0.00000  0.31320  0.80780  Biso   1.000  H
  O55      1.0000 0.00000  0.37890  0.23800  Biso   1.000  O
  O56      1.0000 0.00000  0.38000  0.82800  Biso   1.000  O
  C50      1.0000 0.00000  0.39980  0.02500  Biso   1.000  C
  Co15     1.0000 0.50000  0.69094  0.74220  Biso   1.000  Co
  O57      1.0000 0.50000  0.70590  0.10400  Biso   1.000  O
  H133     1.0000 0.50000  0.68230  0.18160  Biso   1.000  H
  O58      1.0000 0.50000  0.71030  0.38700  Biso   1.000  O
  H134     1.0000 0.50000  0.68680  0.30780  Biso   1.000  H
  O59      1.0000 0.50000  0.62110  0.73800  Biso   1.000  O
  O60      1.0000 0.50000  0.62000  0.32800  Biso   1.000  O
  C51      1.0000 0.50000  0.60020  0.52500  Biso   1.000  C
  Co16     1.0000 0.00000  0.19094  0.24220  Biso   1.000  Co
  O61      1.0000 0.00000  0.20590  0.60400  Biso   1.000  O
  H135     1.0000 0.00000  0.18230  0.68160  Biso   1.000  H
  O62      1.0000 0.00000  0.21030  0.88700  Biso   1.000  O
  H136     1.0000 0.00000  0.18680  0.80780  Biso   1.000  H
  O63      1.0000 0.00000  0.12110  0.23800  Biso   1.000  O
  O64      1.0000 0.00000  0.12000  0.82800  Biso   1.000  O
  C52      1.0000 0.00000  0.10020  0.02500  Biso   1.000  C
  Co17     1.0000 0.50000  0.30906  0.25780  Biso   1.000  Co
  O65      1.0000 0.50000  0.29410  0.89600  Biso   1.000  O
  H137     1.0000 0.50000  0.31770  0.81840  Biso   1.000  H
  O66      1.0000 0.50000  0.28970  0.61300  Biso   1.000  O
  H138     1.0000 0.50000  0.31320  0.69220  Biso   1.000  H
  O67      1.0000 0.50000  0.37890  0.26200  Biso   1.000  O
  O68      1.0000 0.50000  0.38000  0.67200  Biso   1.000  O
  C53      1.0000 0.50000  0.39980  0.47500  Biso   1.000  C
  Co18     1.0000 0.00000  0.80906  0.75780  Biso   1.000  Co
  O69      1.0000 0.00000  0.79410  0.39600  Biso   1.000  O
  H139     1.0000 0.00000  0.81770  0.31840  Biso   1.000  H
  O70      1.0000 0.00000  0.78970  0.11300  Biso   1.000  O
  H140     1.0000 0.00000  0.81320  0.19220  Biso   1.000  H
  O71      1.0000 0.00000  0.87890  0.76200  Biso   1.000  O
  O72      1.0000 0.00000  0.88000  0.17200  Biso   1.000  O
  C54      1.0000 0.00000  0.89980  0.97500  Biso   1.000  C
  Co19     1.0000 0.50000  0.19094  0.25780  Biso   1.000  Co
  O73      1.0000 0.50000  0.20590  0.89600  Biso   1.000  O
  H141     1.0000 0.50000  0.18230  0.81840  Biso   1.000  H
  O74      1.0000 0.50000  0.21030  0.61300  Biso   1.000  O
  H142     1.0000 0.50000  0.18680  0.69220  Biso   1.000  H
  O75      1.0000 0.50000  0.12110  0.26200  Biso   1.000  O
  O76      1.0000 0.50000  0.12000  0.67200  Biso   1.000  O
  C55      1.0000 0.50000  0.10020  0.47500  Biso   1.000  C
  Co20     1.0000 0.00000  0.69094  0.75780  Biso   1.000  Co
  O77      1.0000 0.00000  0.70590  0.39600  Biso   1.000  O
  H143     1.0000 0.00000  0.68230  0.31840  Biso   1.000  H
  O78      1.0000 0.00000  0.71030  0.11300  Biso   1.000  O
  H144     1.0000 0.00000  0.68680  0.19220  Biso   1.000  H
  O79      1.0000 0.00000  0.62110  0.76200  Biso   1.000  O
  O80      1.0000 0.00000  0.62000  0.17200  Biso   1.000  O
  C56      1.0000 0.00000  0.60020  0.97500  Biso   1.000  C
