data_image0
_cell_length_a       15.522
_cell_length_b       15.522
_cell_length_c       13.712
_cell_angle_alpha    90
_cell_angle_beta     90
_cell_angle_gamma    120

_symmetry_space_group_name_H-M    "P 1"
_symmetry_int_tables_number       1

loop_
  _symmetry_equiv_pos_as_xyz
  'x, y, z'

loop_
  _atom_site_label
  _atom_site_occupancy
  _atom_site_fract_x
  _atom_site_fract_y
  _atom_site_fract_z
  _atom_site_thermal_displace_type
  _atom_site_B_iso_or_equiv
  _atom_site_type_symbol
  O1       1.0000 0.47250  0.23970  0.52260  Biso   1.000  O
  O2       1.0000 0.58630  0.38430  0.40710  Biso   1.000  O
  O3       1.0000 0.45980  0.39970  0.34860  Biso   1.000  O
  C1       1.0000 0.49760  0.36200  0.40310  Biso   1.000  C
  C2       1.0000 0.42320  0.27830  0.46700  Biso   1.000  C
  H1       1.0000 0.39070  0.30290  0.51000  Biso   1.000  H
  H2       1.0000 0.37270  0.22610  0.42670  Biso   1.000  H
  C3       1.0000 0.41020  0.14160  0.55140  Biso   1.000  C
  H3       1.0000 0.38420  0.09920  0.49440  Biso   1.000  H
  H4       1.0000 0.35460  0.13660  0.58830  Biso   1.000  H
  O4       1.0000 0.56080  0.16530  0.62290  Biso   1.000  O
  C4       1.0000 0.46880  0.10820  0.61390  Biso   1.000  C
  O5       1.0000 0.58130  0.60470  0.35010  Biso   1.000  O
  O6       1.0000 0.76030  0.23280  0.52260  Biso   1.000  O
  O7       1.0000 0.61570  0.20200  0.40710  Biso   1.000  O
  O8       1.0000 0.60030  0.06010  0.34860  Biso   1.000  O
  C5       1.0000 0.63800  0.13560  0.40310  Biso   1.000  C
  C6       1.0000 0.72170  0.14490  0.46700  Biso   1.000  C
  H5       1.0000 0.69710  0.08780  0.51000  Biso   1.000  H
  H6       1.0000 0.77390  0.14660  0.42670  Biso   1.000  H
  C7       1.0000 0.85840  0.26860  0.55140  Biso   1.000  C
  H7       1.0000 0.90080  0.28500  0.49440  Biso   1.000  H
  H8       1.0000 0.86340  0.21800  0.58830  Biso   1.000  H
  O9       1.0000 0.83470  0.39550  0.62290  Biso   1.000  O
  C8       1.0000 0.89180  0.36060  0.61390  Biso   1.000  C
  O10      1.0000 0.39530  0.97660  0.35010  Biso   1.000  O
  O11      1.0000 0.76720  0.52750  0.52260  Biso   1.000  O
  O12      1.0000 0.79800  0.41370  0.40710  Biso   1.000  O
  O13      1.0000 0.93990  0.54020  0.34860  Biso   1.000  O
  C9       1.0000 0.86440  0.50240  0.40310  Biso   1.000  C
  C10      1.0000 0.85510  0.57680  0.46700  Biso   1.000  C
  H9       1.0000 0.91220  0.60930  0.51000  Biso   1.000  H
  H10      1.0000 0.85340  0.62730  0.42670  Biso   1.000  H
  C11      1.0000 0.73140  0.58980  0.55140  Biso   1.000  C
  H11      1.0000 0.71500  0.61580  0.49440  Biso   1.000  H
  H12      1.0000 0.78200  0.64540  0.58830  Biso   1.000  H
  O14      1.0000 0.60450  0.43920  0.62290  Biso   1.000  O
  C12      1.0000 0.63940  0.53120  0.61390  Biso   1.000  C
  O15      1.0000 0.02340  0.41870  0.35010  Biso   1.000  O
  O16      1.0000 0.47250  0.23970  0.97740  Biso   1.000  O
  O17      1.0000 0.58630  0.38430  0.09290  Biso   1.000  O
  O18      1.0000 0.45980  0.39970  0.15140  Biso   1.000  O
  C13      1.0000 0.49760  0.36200  0.09690  Biso   1.000  C
  C14      1.0000 0.42320  0.27830  0.03300  Biso   1.000  C
  H13      1.0000 0.39070  0.30290  0.99000  Biso   1.000  H
  H14      1.0000 0.37270  0.22610  0.07330  Biso   1.000  H
  C15      1.0000 0.41020  0.14160  0.94860  Biso   1.000  C
  H15      1.0000 0.38420  0.09920  0.00560  Biso   1.000  H
  H16      1.0000 0.35460  0.13660  0.91170  Biso   1.000  H
  O19      1.0000 0.56080  0.16530  0.87710  Biso   1.000  O
  C16      1.0000 0.46880  0.10820  0.88610  Biso   1.000  C
  O20      1.0000 0.58130  0.60470  0.14990  Biso   1.000  O
  O21      1.0000 0.76030  0.23280  0.97740  Biso   1.000  O
  O22      1.0000 0.61570  0.20200  0.09290  Biso   1.000  O
  O23      1.0000 0.60030  0.06010  0.15140  Biso   1.000  O
  C17      1.0000 0.63800  0.13560  0.09690  Biso   1.000  C
  C18      1.0000 0.72170  0.14490  0.03300  Biso   1.000  C
  H17      1.0000 0.69710  0.08780  0.99000  Biso   1.000  H
  H18      1.0000 0.77390  0.14660  0.07330  Biso   1.000  H
  C19      1.0000 0.85840  0.26860  0.94860  Biso   1.000  C
  H19      1.0000 0.90080  0.28500  0.00560  Biso   1.000  H
  H20      1.0000 0.86340  0.21800  0.91170  Biso   1.000  H
  O24      1.0000 0.83470  0.39550  0.87710  Biso   1.000  O
  C20      1.0000 0.89180  0.36060  0.88610  Biso   1.000  C
  O25      1.0000 0.39530  0.97660  0.14990  Biso   1.000  O
  O26      1.0000 0.76720  0.52750  0.97740  Biso   1.000  O
  O27      1.0000 0.79800  0.41370  0.09290  Biso   1.000  O
  O28      1.0000 0.93990  0.54020  0.15140  Biso   1.000  O
  C21      1.0000 0.86440  0.50240  0.09690  Biso   1.000  C
  C22      1.0000 0.85510  0.57680  0.03300  Biso   1.000  C
  H21      1.0000 0.91220  0.60930  0.99000  Biso   1.000  H
  H22      1.0000 0.85340  0.62730  0.07330  Biso   1.000  H
  C23      1.0000 0.73140  0.58980  0.94860  Biso   1.000  C
  H23      1.0000 0.71500  0.61580  0.00560  Biso   1.000  H
  H24      1.0000 0.78200  0.64540  0.91170  Biso   1.000  H
  O29      1.0000 0.60450  0.43920  0.87710  Biso   1.000  O
  C24      1.0000 0.63940  0.53120  0.88610  Biso   1.000  C
  O30      1.0000 0.02340  0.41870  0.14990  Biso   1.000  O
  O31      1.0000 0.23970  0.47250  0.47740  Biso   1.000  O
  O32      1.0000 0.38430  0.58630  0.59290  Biso   1.000  O
  O33      1.0000 0.39970  0.45980  0.65140  Biso   1.000  O
  C25      1.0000 0.36200  0.49760  0.59690  Biso   1.000  C
  C26      1.0000 0.27830  0.42320  0.53300  Biso   1.000  C
  H25      1.0000 0.30290  0.39070  0.49000  Biso   1.000  H
  H26      1.0000 0.22610  0.37270  0.57330  Biso   1.000  H
  C27      1.0000 0.14160  0.41020  0.44860  Biso   1.000  C
  H27      1.0000 0.09920  0.38420  0.50560  Biso   1.000  H
  H28      1.0000 0.13660  0.35460  0.41170  Biso   1.000  H
  O34      1.0000 0.16530  0.56080  0.37710  Biso   1.000  O
  C28      1.0000 0.10820  0.46880  0.38610  Biso   1.000  C
  O35      1.0000 0.60470  0.58130  0.64990  Biso   1.000  O
  O36      1.0000 0.23280  0.76030  0.47740  Biso   1.000  O
  O37      1.0000 0.20200  0.61570  0.59290  Biso   1.000  O
  O38      1.0000 0.06010  0.60030  0.65140  Biso   1.000  O
  C29      1.0000 0.13560  0.63800  0.59690  Biso   1.000  C
  C30      1.0000 0.14490  0.72170  0.53300  Biso   1.000  C
  H29      1.0000 0.08780  0.69710  0.49000  Biso   1.000  H
  H30      1.0000 0.14660  0.77390  0.57330  Biso   1.000  H
  C31      1.0000 0.26860  0.85840  0.44860  Biso   1.000  C
  H31      1.0000 0.28500  0.90080  0.50560  Biso   1.000  H
  H32      1.0000 0.21800  0.86340  0.41170  Biso   1.000  H
  O39      1.0000 0.39550  0.83470  0.37710  Biso   1.000  O
  C32      1.0000 0.36060  0.89180  0.38610  Biso   1.000  C
  O40      1.0000 0.97660  0.39530  0.64990  Biso   1.000  O
  O41      1.0000 0.52750  0.76720  0.47740  Biso   1.000  O
  O42      1.0000 0.41370  0.79800  0.59290  Biso   1.000  O
  O43      1.0000 0.54020  0.93990  0.65140  Biso   1.000  O
  C33      1.0000 0.50240  0.86440  0.59690  Biso   1.000  C
  C34      1.0000 0.57680  0.85510  0.53300  Biso   1.000  C
  H33      1.0000 0.60930  0.91220  0.49000  Biso   1.000  H
  H34      1.0000 0.62730  0.85340  0.57330  Biso   1.000  H
  C35      1.0000 0.58980  0.73140  0.44860  Biso   1.000  C
  H35      1.0000 0.61580  0.71500  0.50560  Biso   1.000  H
  H36      1.0000 0.64540  0.78200  0.41170  Biso   1.000  H
  O44      1.0000 0.43920  0.60450  0.37710  Biso   1.000  O
  C36      1.0000 0.53120  0.63940  0.38610  Biso   1.000  C
  O45      1.0000 0.41870  0.02340  0.64990  Biso   1.000  O
  O46      1.0000 0.23970  0.47250  0.02260  Biso   1.000  O
  O47      1.0000 0.38430  0.58630  0.90710  Biso   1.000  O
  O48      1.0000 0.39970  0.45980  0.84860  Biso   1.000  O
  C37      1.0000 0.36200  0.49760  0.90310  Biso   1.000  C
  C38      1.0000 0.27830  0.42320  0.96700  Biso   1.000  C
  H37      1.0000 0.30290  0.39070  0.01000  Biso   1.000  H
  H38      1.0000 0.22610  0.37270  0.92670  Biso   1.000  H
  C39      1.0000 0.14160  0.41020  0.05140  Biso   1.000  C
  H39      1.0000 0.09920  0.38420  0.99440  Biso   1.000  H
  H40      1.0000 0.13660  0.35460  0.08830  Biso   1.000  H
  O49      1.0000 0.16530  0.56080  0.12290  Biso   1.000  O
  C40      1.0000 0.10820  0.46880  0.11390  Biso   1.000  C
  O50      1.0000 0.60470  0.58130  0.85010  Biso   1.000  O
  O51      1.0000 0.23280  0.76030  0.02260  Biso   1.000  O
  O52      1.0000 0.20200  0.61570  0.90710  Biso   1.000  O
  O53      1.0000 0.06010  0.60030  0.84860  Biso   1.000  O
  C41      1.0000 0.13560  0.63800  0.90310  Biso   1.000  C
  C42      1.0000 0.14490  0.72170  0.96700  Biso   1.000  C
  H41      1.0000 0.08780  0.69710  0.01000  Biso   1.000  H
  H42      1.0000 0.14660  0.77390  0.92670  Biso   1.000  H
  C43      1.0000 0.26860  0.85840  0.05140  Biso   1.000  C
  H43      1.0000 0.28500  0.90080  0.99440  Biso   1.000  H
  H44      1.0000 0.21800  0.86340  0.08830  Biso   1.000  H
  O54      1.0000 0.39550  0.83470  0.12290  Biso   1.000  O
  C44      1.0000 0.36060  0.89180  0.11390  Biso   1.000  C
  O55      1.0000 0.97660  0.39530  0.85010  Biso   1.000  O
  O56      1.0000 0.52750  0.76720  0.02260  Biso   1.000  O
  O57      1.0000 0.41370  0.79800  0.90710  Biso   1.000  O
  O58      1.0000 0.54020  0.93990  0.84860  Biso   1.000  O
  C45      1.0000 0.50240  0.86440  0.90310  Biso   1.000  C
  C46      1.0000 0.57680  0.85510  0.96700  Biso   1.000  C
  H45      1.0000 0.60930  0.91220  0.01000  Biso   1.000  H
  H46      1.0000 0.62730  0.85340  0.92670  Biso   1.000  H
  C47      1.0000 0.58980  0.73140  0.05140  Biso   1.000  C
  H47      1.0000 0.61580  0.71500  0.99440  Biso   1.000  H
  H48      1.0000 0.64540  0.78200  0.08830  Biso   1.000  H
  O59      1.0000 0.43920  0.60450  0.12290  Biso   1.000  O
  C48      1.0000 0.53120  0.63940  0.11390  Biso   1.000  C
  O60      1.0000 0.41870  0.02340  0.85010  Biso   1.000  O
  La1      1.0000 0.66667  0.33333  0.53937  Biso   1.000  La
  La2      1.0000 0.66667  0.33333  0.96063  Biso   1.000  La
  La3      1.0000 0.33333  0.66667  0.46063  Biso   1.000  La
  La4      1.0000 0.33333  0.66667  0.03937  Biso   1.000  La
  Cu1      1.0000 0.52863  0.50200  0.25000  Biso   1.000  Cu
  Cu2      1.0000 0.49800  0.02663  0.25000  Biso   1.000  Cu
  Cu3      1.0000 0.97337  0.47137  0.25000  Biso   1.000  Cu
  Cu4      1.0000 0.50200  0.52863  0.75000  Biso   1.000  Cu
  Cu5      1.0000 0.02663  0.49800  0.75000  Biso   1.000  Cu
  Cu6      1.0000 0.47137  0.97337  0.75000  Biso   1.000  Cu
  O61      1.0000 0.67400  0.32900  0.75000  Biso   1.000  O
  O62      1.0000 0.67100  0.34500  0.75000  Biso   1.000  O
  O63      1.0000 0.65500  0.32600  0.75000  Biso   1.000  O
  O64      1.0000 0.32900  0.67400  0.25000  Biso   1.000  O
  O65      1.0000 0.34500  0.67100  0.25000  Biso   1.000  O
  O66      1.0000 0.32600  0.65500  0.25000  Biso   1.000  O
