data_image0
_cell_length_a       7.0187
_cell_length_b       7.0187
_cell_length_c       7.5098
_cell_angle_alpha    90
_cell_angle_beta     90
_cell_angle_gamma    90

_symmetry_space_group_name_H-M    "P 1"
_symmetry_int_tables_number       1

loop_
  _symmetry_equiv_pos_as_xyz
  'x, y, z'

loop_
  _atom_site_label
  _atom_site_occupancy
  _atom_site_fract_x
  _atom_site_fract_y
  _atom_site_fract_z
  _atom_site_thermal_displace_type
  _atom_site_B_iso_or_equiv
  _atom_site_type_symbol
  C1       1.0000 0.90081  0.45410  0.64790  Biso   1.000  C
  H1       1.0000 0.81560  0.41730  0.76670  Biso   1.000  H
  C2       1.0000 0.09919  0.54590  0.64790  Biso   1.000  C
  H2       1.0000 0.18440  0.58270  0.76670  Biso   1.000  H
  C3       1.0000 0.54590  0.90081  0.64790  Biso   1.000  C
  H3       1.0000 0.58270  0.81560  0.76670  Biso   1.000  H
  C4       1.0000 0.45410  0.09919  0.64790  Biso   1.000  C
  H4       1.0000 0.41730  0.18440  0.76670  Biso   1.000  H
  C5       1.0000 0.09919  0.45410  0.35210  Biso   1.000  C
  H5       1.0000 0.18440  0.41730  0.23330  Biso   1.000  H
  C6       1.0000 0.90081  0.54590  0.35210  Biso   1.000  C
  H6       1.0000 0.81560  0.58270  0.23330  Biso   1.000  H
  C7       1.0000 0.45410  0.90081  0.35210  Biso   1.000  C
  H7       1.0000 0.41730  0.81560  0.23330  Biso   1.000  H
  C8       1.0000 0.54590  0.09919  0.35210  Biso   1.000  C
  H8       1.0000 0.58270  0.18440  0.23330  Biso   1.000  H
  C9       1.0000 0.09919  0.54590  0.35210  Biso   1.000  C
  H9       1.0000 0.18440  0.58270  0.23330  Biso   1.000  H
  C10      1.0000 0.90081  0.45410  0.35210  Biso   1.000  C
  H10      1.0000 0.81560  0.41730  0.23330  Biso   1.000  H
  C11      1.0000 0.45410  0.09919  0.35210  Biso   1.000  C
  H11      1.0000 0.41730  0.18440  0.23330  Biso   1.000  H
  C12      1.0000 0.54590  0.90081  0.35210  Biso   1.000  C
  H12      1.0000 0.58270  0.81560  0.23330  Biso   1.000  H
  C13      1.0000 0.90081  0.54590  0.64790  Biso   1.000  C
  H13      1.0000 0.81560  0.58270  0.76670  Biso   1.000  H
  C14      1.0000 0.09919  0.45410  0.64790  Biso   1.000  C
  H14      1.0000 0.18440  0.41730  0.76670  Biso   1.000  H
  C15      1.0000 0.54590  0.09919  0.64790  Biso   1.000  C
  H15      1.0000 0.58270  0.18440  0.76670  Biso   1.000  H
  C16      1.0000 0.45410  0.90081  0.64790  Biso   1.000  C
  H16      1.0000 0.41730  0.81560  0.76670  Biso   1.000  H
  Ni1      1.0000 0.50000  0.50000  0.50000  Biso   1.000  Ni
  Si1      1.0000 0.50000  0.50000  0.00000  Biso   1.000  Si
  F1       1.0000 0.50000  0.50000  0.76340  Biso   1.000  F
  F2       1.0000 0.50000  0.50000  0.23660  Biso   1.000  F
  F3       1.0000 0.66400  0.66400  0.00000  Biso   1.000  F
  F4       1.0000 0.33600  0.33600  0.00000  Biso   1.000  F
  F5       1.0000 0.33600  0.66400  0.00000  Biso   1.000  F
  F6       1.0000 0.66400  0.33600  0.00000  Biso   1.000  F
  N1       1.0000 0.80450  0.50000  0.50000  Biso   1.000  N
  N2       1.0000 0.19550  0.50000  0.50000  Biso   1.000  N
  N3       1.0000 0.50000  0.80450  0.50000  Biso   1.000  N
  N4       1.0000 0.50000  0.19550  0.50000  Biso   1.000  N
