data_image0
_cell_length_a       34.542
_cell_length_b       9.5651
_cell_length_c       18.011
_cell_angle_alpha    90
_cell_angle_beta     97.71
_cell_angle_gamma    90

_symmetry_space_group_name_H-M    "P 1"
_symmetry_int_tables_number       1

loop_
  _symmetry_equiv_pos_as_xyz
  'x, y, z'

loop_
  _atom_site_label
  _atom_site_occupancy
  _atom_site_fract_x
  _atom_site_fract_y
  _atom_site_fract_z
  _atom_site_thermal_displace_type
  _atom_site_B_iso_or_equiv
  _atom_site_type_symbol
  Co1      1.0000 0.34891  0.31770  0.52585  Biso   1.000  Co
  C1       1.0000 0.48440  0.31650  0.31320  Biso   1.000  C
  B1       1.0000 0.47670  0.37800  0.22480  Biso   1.000  B
  H1       1.0000 0.46100  0.47780  0.20790  Biso   1.000  H
  B2       1.0000 0.45250  0.23230  0.25150  Biso   1.000  B
  H2       1.0000 0.42020  0.23250  0.25290  Biso   1.000  H
  B3       1.0000 0.48300  0.14100  0.31770  Biso   1.000  B
  H3       1.0000 0.47170  0.08010  0.36330  Biso   1.000  H
  B4       1.0000 0.47660  0.08470  0.22480  Biso   1.000  B
  H4       1.0000 0.46070  0.98540  0.20740  Biso   1.000  H
  B5       1.0000 0.47260  0.23650  0.16750  Biso   1.000  B
  H5       1.0000 0.45410  0.24070  0.11140  Biso   1.000  H
  C2       1.0000 0.47040  0.41240  0.37190  Biso   1.000  C
  H6       1.0000 0.49270  0.47570  0.39010  Biso   1.000  H
  O1       1.0000 0.44110  0.49570  0.33580  Biso   1.000  O
  H7       1.0000 0.43310  0.55060  0.36690  Biso   1.000  H
  C3       1.0000 0.45840  0.34180  0.43990  Biso   1.000  C
  C4       1.0000 0.48530  0.29810  0.49770  Biso   1.000  C
  H8       1.0000 0.51230  0.29930  0.49250  Biso   1.000  H
  C5       1.0000 0.47370  0.25320  0.56200  Biso   1.000  C
  H9       1.0000 0.49240  0.21990  0.60150  Biso   1.000  H
  C6       1.0000 0.43450  0.25550  0.57060  Biso   1.000  C
  H10      1.0000 0.42660  0.22820  0.61700  Biso   1.000  H
  N1       1.0000 0.40775  0.29560  0.51450  Biso   1.000  N
  C7       1.0000 0.41971  0.33740  0.45180  Biso   1.000  C
  H11      1.0000 0.40050  0.36650  0.41210  Biso   1.000  H
  O2       1.0000 0.33792  0.21360  0.42810  Biso   1.000  O
  C8       1.0000 0.30625  0.18280  0.38840  Biso   1.000  C
  O3       1.0000 0.27280  0.20560  0.40400  Biso   1.000  O
  C9       1.0000 0.30913  0.10880  0.31650  Biso   1.000  C
  C10      1.0000 0.34455  0.06300  0.29850  Biso   1.000  C
  H12      1.0000 0.36770  0.07900  0.33240  Biso   1.000  H
  C11      1.0000 0.34683  0.99400  0.23170  Biso   1.000  C
  H13      1.0000 0.37140  0.96200  0.22020  Biso   1.000  H
  C12      1.0000 0.31326  0.97140  0.18150  Biso   1.000  C
  C13      1.0000 0.27793  0.01910  0.19860  Biso   1.000  C
  H14      1.0000 0.25490  0.00590  0.16400  Biso   1.000  H
  C14      1.0000 0.27578  0.08660  0.26640  Biso   1.000  C
  H15      1.0000 0.25120  0.11760  0.27830  Biso   1.000  H
  C15      1.0000 0.31466  0.89510  0.10930  Biso   1.000  C
  O4       1.0000 0.34686  0.83700  0.10120  Biso   1.000  O
  O5       1.0000 0.28473  0.89200  0.06420  Biso   1.000  O
  O6       1.0000 0.29265  0.40150  0.53240  Biso   1.000  O
  C16      1.0000 0.30063  0.51310  0.49960  Biso   1.000  C
  O7       1.0000 0.33213  0.52080  0.47210  Biso   1.000  O
  C17      1.0000 0.27408  0.63470  0.49930  Biso   1.000  C
  C18      1.0000 0.24443  0.63450  0.54360  Biso   1.000  C
  H16      1.0000 0.24070  0.55500  0.57340  Biso   1.000  H
  C19      1.0000 0.22041  0.74780  0.54490  Biso   1.000  C
  H17      1.0000 0.20010  0.74700  0.57560  Biso   1.000  H
  Co2      1.0000 0.84891  0.81770  0.52585  Biso   1.000  Co
  C20      1.0000 0.98440  0.81650  0.31320  Biso   1.000  C
  B6       1.0000 0.97670  0.87800  0.22480  Biso   1.000  B
  H18      1.0000 0.96100  0.97780  0.20790  Biso   1.000  H
  B7       1.0000 0.95250  0.73230  0.25150  Biso   1.000  B
  H19      1.0000 0.92020  0.73250  0.25290  Biso   1.000  H
  B8       1.0000 0.98300  0.64100  0.31770  Biso   1.000  B
  H20      1.0000 0.97170  0.58010  0.36330  Biso   1.000  H
  B9       1.0000 0.97660  0.58470  0.22480  Biso   1.000  B
  H21      1.0000 0.96070  0.48540  0.20740  Biso   1.000  H
  B10      1.0000 0.97260  0.73650  0.16750  Biso   1.000  B
  H22      1.0000 0.95410  0.74070  0.11140  Biso   1.000  H
  C21      1.0000 0.97040  0.91240  0.37190  Biso   1.000  C
  H23      1.0000 0.99270  0.97570  0.39010  Biso   1.000  H
  O8       1.0000 0.94110  0.99570  0.33580  Biso   1.000  O
  H24      1.0000 0.93310  0.05060  0.36690  Biso   1.000  H
  C22      1.0000 0.95840  0.84180  0.43990  Biso   1.000  C
  C23      1.0000 0.98530  0.79810  0.49770  Biso   1.000  C
  H25      1.0000 0.01230  0.79930  0.49250  Biso   1.000  H
  C24      1.0000 0.97370  0.75320  0.56200  Biso   1.000  C
  H26      1.0000 0.99240  0.71990  0.60150  Biso   1.000  H
  C25      1.0000 0.93450  0.75550  0.57060  Biso   1.000  C
  H27      1.0000 0.92660  0.72820  0.61700  Biso   1.000  H
  N2       1.0000 0.90775  0.79560  0.51450  Biso   1.000  N
  C26      1.0000 0.91971  0.83740  0.45180  Biso   1.000  C
  H28      1.0000 0.90050  0.86650  0.41210  Biso   1.000  H
  O9       1.0000 0.83792  0.71360  0.42810  Biso   1.000  O
  C27      1.0000 0.80625  0.68280  0.38840  Biso   1.000  C
  O10      1.0000 0.77280  0.70560  0.40400  Biso   1.000  O
  C28      1.0000 0.80913  0.60880  0.31650  Biso   1.000  C
  C29      1.0000 0.84455  0.56300  0.29850  Biso   1.000  C
  H29      1.0000 0.86770  0.57900  0.33240  Biso   1.000  H
  C30      1.0000 0.84683  0.49400  0.23170  Biso   1.000  C
  H30      1.0000 0.87140  0.46200  0.22020  Biso   1.000  H
  C31      1.0000 0.81326  0.47140  0.18150  Biso   1.000  C
  C32      1.0000 0.77793  0.51910  0.19860  Biso   1.000  C
  H31      1.0000 0.75490  0.50590  0.16400  Biso   1.000  H
  C33      1.0000 0.77578  0.58660  0.26640  Biso   1.000  C
  H32      1.0000 0.75120  0.61760  0.27830  Biso   1.000  H
  C34      1.0000 0.81466  0.39510  0.10930  Biso   1.000  C
  O11      1.0000 0.84686  0.33700  0.10120  Biso   1.000  O
  O12      1.0000 0.78473  0.39200  0.06420  Biso   1.000  O
  O13      1.0000 0.79265  0.90150  0.53240  Biso   1.000  O
  C35      1.0000 0.80063  0.01310  0.49960  Biso   1.000  C
  O14      1.0000 0.83213  0.02080  0.47210  Biso   1.000  O
  C36      1.0000 0.77408  0.13470  0.49930  Biso   1.000  C
  C37      1.0000 0.74443  0.13450  0.54360  Biso   1.000  C
  H33      1.0000 0.74070  0.05500  0.57340  Biso   1.000  H
  C38      1.0000 0.72041  0.24780  0.54490  Biso   1.000  C
  H34      1.0000 0.70010  0.24700  0.57560  Biso   1.000  H
  Co3      1.0000 0.65108  0.31770  0.97415  Biso   1.000  Co
  C39      1.0000 0.51560  0.31650  0.18680  Biso   1.000  C
  B11      1.0000 0.52330  0.37800  0.27520  Biso   1.000  B
  H35      1.0000 0.53900  0.47780  0.29210  Biso   1.000  H
  B12      1.0000 0.54750  0.23230  0.24850  Biso   1.000  B
  H36      1.0000 0.57980  0.23250  0.24710  Biso   1.000  H
  B13      1.0000 0.51700  0.14100  0.18230  Biso   1.000  B
  H37      1.0000 0.52830  0.08010  0.13670  Biso   1.000  H
  B14      1.0000 0.52340  0.08470  0.27520  Biso   1.000  B
  H38      1.0000 0.53930  0.98540  0.29260  Biso   1.000  H
  B15      1.0000 0.52740  0.23650  0.33250  Biso   1.000  B
  H39      1.0000 0.54590  0.24070  0.38860  Biso   1.000  H
  C40      1.0000 0.52960  0.41240  0.12810  Biso   1.000  C
  H40      1.0000 0.50730  0.47570  0.10990  Biso   1.000  H
  O15      1.0000 0.55890  0.49570  0.16420  Biso   1.000  O
  H41      1.0000 0.56690  0.55060  0.13310  Biso   1.000  H
  C41      1.0000 0.54160  0.34180  0.06010  Biso   1.000  C
  C42      1.0000 0.51470  0.29810  0.00230  Biso   1.000  C
  H42      1.0000 0.48770  0.29930  0.00750  Biso   1.000  H
  C43      1.0000 0.52630  0.25320  0.93800  Biso   1.000  C
  H43      1.0000 0.50760  0.21990  0.89850  Biso   1.000  H
  C44      1.0000 0.56550  0.25550  0.92940  Biso   1.000  C
  H44      1.0000 0.57340  0.22820  0.88300  Biso   1.000  H
  N3       1.0000 0.59225  0.29560  0.98550  Biso   1.000  N
  C45      1.0000 0.58029  0.33740  0.04820  Biso   1.000  C
  H45      1.0000 0.59950  0.36650  0.08790  Biso   1.000  H
  O16      1.0000 0.66208  0.21360  0.07190  Biso   1.000  O
  C46      1.0000 0.69375  0.18280  0.11160  Biso   1.000  C
  O17      1.0000 0.72720  0.20560  0.09600  Biso   1.000  O
  C47      1.0000 0.69087  0.10880  0.18350  Biso   1.000  C
  C48      1.0000 0.65545  0.06300  0.20150  Biso   1.000  C
  H46      1.0000 0.63230  0.07900  0.16760  Biso   1.000  H
  C49      1.0000 0.65317  0.99400  0.26830  Biso   1.000  C
  H47      1.0000 0.62860  0.96200  0.27980  Biso   1.000  H
  C50      1.0000 0.68674  0.97140  0.31850  Biso   1.000  C
  C51      1.0000 0.72207  0.01910  0.30140  Biso   1.000  C
  H48      1.0000 0.74510  0.00590  0.33600  Biso   1.000  H
  C52      1.0000 0.72422  0.08660  0.23360  Biso   1.000  C
  H49      1.0000 0.74880  0.11760  0.22170  Biso   1.000  H
  C53      1.0000 0.68534  0.89510  0.39070  Biso   1.000  C
  O18      1.0000 0.65314  0.83700  0.39880  Biso   1.000  O
  O19      1.0000 0.71527  0.89200  0.43580  Biso   1.000  O
  O20      1.0000 0.70735  0.40150  0.96760  Biso   1.000  O
  C54      1.0000 0.69937  0.51310  0.00040  Biso   1.000  C
  O21      1.0000 0.66787  0.52080  0.02790  Biso   1.000  O
  C55      1.0000 0.72592  0.63470  0.00070  Biso   1.000  C
  C56      1.0000 0.75557  0.63450  0.95640  Biso   1.000  C
  H50      1.0000 0.75930  0.55500  0.92660  Biso   1.000  H
  C57      1.0000 0.77959  0.74780  0.95510  Biso   1.000  C
  H51      1.0000 0.79990  0.74700  0.92440  Biso   1.000  H
  Co4      1.0000 0.15109  0.81770  0.97415  Biso   1.000  Co
  C58      1.0000 0.01560  0.81650  0.18680  Biso   1.000  C
  B16      1.0000 0.02330  0.87800  0.27520  Biso   1.000  B
  H52      1.0000 0.03900  0.97780  0.29210  Biso   1.000  H
  B17      1.0000 0.04750  0.73230  0.24850  Biso   1.000  B
  H53      1.0000 0.07980  0.73250  0.24710  Biso   1.000  H
  B18      1.0000 0.01700  0.64100  0.18230  Biso   1.000  B
  H54      1.0000 0.02830  0.58010  0.13670  Biso   1.000  H
  B19      1.0000 0.02340  0.58470  0.27520  Biso   1.000  B
  H55      1.0000 0.03930  0.48540  0.29260  Biso   1.000  H
  B20      1.0000 0.02740  0.73650  0.33250  Biso   1.000  B
  H56      1.0000 0.04590  0.74070  0.38860  Biso   1.000  H
  C59      1.0000 0.02960  0.91240  0.12810  Biso   1.000  C
  H57      1.0000 0.00730  0.97570  0.10990  Biso   1.000  H
  O22      1.0000 0.05890  0.99570  0.16420  Biso   1.000  O
  H58      1.0000 0.06690  0.05060  0.13310  Biso   1.000  H
  C60      1.0000 0.04160  0.84180  0.06010  Biso   1.000  C
  C61      1.0000 0.01470  0.79810  0.00230  Biso   1.000  C
  H59      1.0000 0.98770  0.79930  0.00750  Biso   1.000  H
  C62      1.0000 0.02630  0.75320  0.93800  Biso   1.000  C
  H60      1.0000 0.00760  0.71990  0.89850  Biso   1.000  H
  C63      1.0000 0.06550  0.75550  0.92940  Biso   1.000  C
  H61      1.0000 0.07340  0.72820  0.88300  Biso   1.000  H
  N4       1.0000 0.09225  0.79560  0.98550  Biso   1.000  N
  C64      1.0000 0.08029  0.83740  0.04820  Biso   1.000  C
  H62      1.0000 0.09950  0.86650  0.08790  Biso   1.000  H
  O23      1.0000 0.16208  0.71360  0.07190  Biso   1.000  O
  C65      1.0000 0.19375  0.68280  0.11160  Biso   1.000  C
  O24      1.0000 0.22720  0.70560  0.09600  Biso   1.000  O
  C66      1.0000 0.19087  0.60880  0.18350  Biso   1.000  C
  C67      1.0000 0.15545  0.56300  0.20150  Biso   1.000  C
  H63      1.0000 0.13230  0.57900  0.16760  Biso   1.000  H
  C68      1.0000 0.15317  0.49400  0.26830  Biso   1.000  C
  H64      1.0000 0.12860  0.46200  0.27980  Biso   1.000  H
  C69      1.0000 0.18674  0.47140  0.31850  Biso   1.000  C
  C70      1.0000 0.22207  0.51910  0.30140  Biso   1.000  C
  H65      1.0000 0.24510  0.50590  0.33600  Biso   1.000  H
  C71      1.0000 0.22422  0.58660  0.23360  Biso   1.000  C
  H66      1.0000 0.24880  0.61760  0.22170  Biso   1.000  H
  C72      1.0000 0.18534  0.39510  0.39070  Biso   1.000  C
  O25      1.0000 0.15314  0.33700  0.39880  Biso   1.000  O
  O26      1.0000 0.21527  0.39200  0.43580  Biso   1.000  O
  O27      1.0000 0.20735  0.90150  0.96760  Biso   1.000  O
  C73      1.0000 0.19937  0.01310  0.00040  Biso   1.000  C
  O28      1.0000 0.16787  0.02080  0.02790  Biso   1.000  O
  C74      1.0000 0.22592  0.13470  0.00070  Biso   1.000  C
  C75      1.0000 0.25557  0.13450  0.95640  Biso   1.000  C
  H67      1.0000 0.25930  0.05500  0.92660  Biso   1.000  H
  C76      1.0000 0.27959  0.24780  0.95510  Biso   1.000  C
  H68      1.0000 0.29990  0.24700  0.92440  Biso   1.000  H
  Co5      1.0000 0.65108  0.68230  0.47415  Biso   1.000  Co
  C77      1.0000 0.51560  0.68350  0.68680  Biso   1.000  C
  B21      1.0000 0.52330  0.62200  0.77520  Biso   1.000  B
  H69      1.0000 0.53900  0.52220  0.79210  Biso   1.000  H
  B22      1.0000 0.54750  0.76770  0.74850  Biso   1.000  B
  H70      1.0000 0.57980  0.76750  0.74710  Biso   1.000  H
  B23      1.0000 0.51700  0.85900  0.68230  Biso   1.000  B
  H71      1.0000 0.52830  0.91990  0.63670  Biso   1.000  H
  B24      1.0000 0.52340  0.91530  0.77520  Biso   1.000  B
  H72      1.0000 0.53930  0.01460  0.79260  Biso   1.000  H
  B25      1.0000 0.52740  0.76350  0.83250  Biso   1.000  B
  H73      1.0000 0.54590  0.75930  0.88860  Biso   1.000  H
  C78      1.0000 0.52960  0.58760  0.62810  Biso   1.000  C
  H74      1.0000 0.50730  0.52430  0.60990  Biso   1.000  H
  O29      1.0000 0.55890  0.50430  0.66420  Biso   1.000  O
  H75      1.0000 0.56690  0.44940  0.63310  Biso   1.000  H
  C79      1.0000 0.54160  0.65820  0.56010  Biso   1.000  C
  C80      1.0000 0.51470  0.70190  0.50230  Biso   1.000  C
  H76      1.0000 0.48770  0.70070  0.50750  Biso   1.000  H
  C81      1.0000 0.52630  0.74680  0.43800  Biso   1.000  C
  H77      1.0000 0.50760  0.78010  0.39850  Biso   1.000  H
  C82      1.0000 0.56550  0.74450  0.42940  Biso   1.000  C
  H78      1.0000 0.57340  0.77180  0.38300  Biso   1.000  H
  N5       1.0000 0.59225  0.70440  0.48550  Biso   1.000  N
  C83      1.0000 0.58029  0.66260  0.54820  Biso   1.000  C
  H79      1.0000 0.59950  0.63350  0.58790  Biso   1.000  H
  O30      1.0000 0.66208  0.78640  0.57190  Biso   1.000  O
  C84      1.0000 0.69375  0.81720  0.61160  Biso   1.000  C
  O31      1.0000 0.72720  0.79440  0.59600  Biso   1.000  O
  C85      1.0000 0.69087  0.89120  0.68350  Biso   1.000  C
  C86      1.0000 0.65545  0.93700  0.70150  Biso   1.000  C
  H80      1.0000 0.63230  0.92100  0.66760  Biso   1.000  H
  C87      1.0000 0.65317  0.00600  0.76830  Biso   1.000  C
  H81      1.0000 0.62860  0.03800  0.77980  Biso   1.000  H
  C88      1.0000 0.68674  0.02860  0.81850  Biso   1.000  C
  C89      1.0000 0.72207  0.98090  0.80140  Biso   1.000  C
  H82      1.0000 0.74510  0.99410  0.83600  Biso   1.000  H
  C90      1.0000 0.72422  0.91340  0.73360  Biso   1.000  C
  H83      1.0000 0.74880  0.88240  0.72170  Biso   1.000  H
  C91      1.0000 0.68534  0.10490  0.89070  Biso   1.000  C
  O32      1.0000 0.65314  0.16300  0.89880  Biso   1.000  O
  O33      1.0000 0.71527  0.10800  0.93580  Biso   1.000  O
  O34      1.0000 0.70735  0.59850  0.46760  Biso   1.000  O
  C92      1.0000 0.69937  0.48690  0.50040  Biso   1.000  C
  O35      1.0000 0.66787  0.47920  0.52790  Biso   1.000  O
  C93      1.0000 0.72592  0.36530  0.50070  Biso   1.000  C
  C94      1.0000 0.75557  0.36550  0.45640  Biso   1.000  C
  H84      1.0000 0.75930  0.44500  0.42660  Biso   1.000  H
  C95      1.0000 0.77959  0.25220  0.45510  Biso   1.000  C
  H85      1.0000 0.79990  0.25300  0.42440  Biso   1.000  H
  Co6      1.0000 0.15109  0.18230  0.47415  Biso   1.000  Co
  C96      1.0000 0.01560  0.18350  0.68680  Biso   1.000  C
  B26      1.0000 0.02330  0.12200  0.77520  Biso   1.000  B
  H86      1.0000 0.03900  0.02220  0.79210  Biso   1.000  H
  B27      1.0000 0.04750  0.26770  0.74850  Biso   1.000  B
  H87      1.0000 0.07980  0.26750  0.74710  Biso   1.000  H
  B28      1.0000 0.01700  0.35900  0.68230  Biso   1.000  B
  H88      1.0000 0.02830  0.41990  0.63670  Biso   1.000  H
  B29      1.0000 0.02340  0.41530  0.77520  Biso   1.000  B
  H89      1.0000 0.03930  0.51460  0.79260  Biso   1.000  H
  B30      1.0000 0.02740  0.26350  0.83250  Biso   1.000  B
  H90      1.0000 0.04590  0.25930  0.88860  Biso   1.000  H
  C97      1.0000 0.02960  0.08760  0.62810  Biso   1.000  C
  H91      1.0000 0.00730  0.02430  0.60990  Biso   1.000  H
  O36      1.0000 0.05890  0.00430  0.66420  Biso   1.000  O
  H92      1.0000 0.06690  0.94940  0.63310  Biso   1.000  H
  C98      1.0000 0.04160  0.15820  0.56010  Biso   1.000  C
  C99      1.0000 0.01470  0.20190  0.50230  Biso   1.000  C
  H93      1.0000 0.98770  0.20070  0.50750  Biso   1.000  H
  C100     1.0000 0.02630  0.24680  0.43800  Biso   1.000  C
  H94      1.0000 0.00760  0.28010  0.39850  Biso   1.000  H
  C101     1.0000 0.06550  0.24450  0.42940  Biso   1.000  C
  H95      1.0000 0.07340  0.27180  0.38300  Biso   1.000  H
  N6       1.0000 0.09225  0.20440  0.48550  Biso   1.000  N
  C102     1.0000 0.08029  0.16260  0.54820  Biso   1.000  C
  H96      1.0000 0.09950  0.13350  0.58790  Biso   1.000  H
  O37      1.0000 0.16208  0.28640  0.57190  Biso   1.000  O
  C103     1.0000 0.19375  0.31720  0.61160  Biso   1.000  C
  O38      1.0000 0.22720  0.29440  0.59600  Biso   1.000  O
  C104     1.0000 0.19087  0.39120  0.68350  Biso   1.000  C
  C105     1.0000 0.15545  0.43700  0.70150  Biso   1.000  C
  H97      1.0000 0.13230  0.42100  0.66760  Biso   1.000  H
  C106     1.0000 0.15317  0.50600  0.76830  Biso   1.000  C
  H98      1.0000 0.12860  0.53800  0.77980  Biso   1.000  H
  C107     1.0000 0.18674  0.52860  0.81850  Biso   1.000  C
  C108     1.0000 0.22207  0.48090  0.80140  Biso   1.000  C
  H99      1.0000 0.24510  0.49410  0.83600  Biso   1.000  H
  C109     1.0000 0.22422  0.41340  0.73360  Biso   1.000  C
  H100     1.0000 0.24880  0.38240  0.72170  Biso   1.000  H
  C110     1.0000 0.18534  0.60490  0.89070  Biso   1.000  C
  O39      1.0000 0.15314  0.66300  0.89880  Biso   1.000  O
  O40      1.0000 0.21527  0.60800  0.93580  Biso   1.000  O
  O41      1.0000 0.20735  0.09850  0.46760  Biso   1.000  O
  C111     1.0000 0.19937  0.98690  0.50040  Biso   1.000  C
  O42      1.0000 0.16787  0.97920  0.52790  Biso   1.000  O
  C112     1.0000 0.22592  0.86530  0.50070  Biso   1.000  C
  C113     1.0000 0.25557  0.86550  0.45640  Biso   1.000  C
  H101     1.0000 0.25930  0.94500  0.42660  Biso   1.000  H
  C114     1.0000 0.27959  0.75220  0.45510  Biso   1.000  C
  H102     1.0000 0.29990  0.75300  0.42440  Biso   1.000  H
  Co7      1.0000 0.34891  0.68230  0.02585  Biso   1.000  Co
  C115     1.0000 0.48440  0.68350  0.81320  Biso   1.000  C
  B31      1.0000 0.47670  0.62200  0.72480  Biso   1.000  B
  H103     1.0000 0.46100  0.52220  0.70790  Biso   1.000  H
  B32      1.0000 0.45250  0.76770  0.75150  Biso   1.000  B
  H104     1.0000 0.42020  0.76750  0.75290  Biso   1.000  H
  B33      1.0000 0.48300  0.85900  0.81770  Biso   1.000  B
  H105     1.0000 0.47170  0.91990  0.86330  Biso   1.000  H
  B34      1.0000 0.47660  0.91530  0.72480  Biso   1.000  B
  H106     1.0000 0.46070  0.01460  0.70740  Biso   1.000  H
  B35      1.0000 0.47260  0.76350  0.66750  Biso   1.000  B
  H107     1.0000 0.45410  0.75930  0.61140  Biso   1.000  H
  C116     1.0000 0.47040  0.58760  0.87190  Biso   1.000  C
  H108     1.0000 0.49270  0.52430  0.89010  Biso   1.000  H
  O43      1.0000 0.44110  0.50430  0.83580  Biso   1.000  O
  H109     1.0000 0.43310  0.44940  0.86690  Biso   1.000  H
  C117     1.0000 0.45840  0.65820  0.93990  Biso   1.000  C
  C118     1.0000 0.48530  0.70190  0.99770  Biso   1.000  C
  H110     1.0000 0.51230  0.70070  0.99250  Biso   1.000  H
  C119     1.0000 0.47370  0.74680  0.06200  Biso   1.000  C
  H111     1.0000 0.49240  0.78010  0.10150  Biso   1.000  H
  C120     1.0000 0.43450  0.74450  0.07060  Biso   1.000  C
  H112     1.0000 0.42660  0.77180  0.11700  Biso   1.000  H
  N7       1.0000 0.40775  0.70440  0.01450  Biso   1.000  N
  C121     1.0000 0.41971  0.66260  0.95180  Biso   1.000  C
  H113     1.0000 0.40050  0.63350  0.91210  Biso   1.000  H
  O44      1.0000 0.33792  0.78640  0.92810  Biso   1.000  O
  C122     1.0000 0.30625  0.81720  0.88840  Biso   1.000  C
  O45      1.0000 0.27280  0.79440  0.90400  Biso   1.000  O
  C123     1.0000 0.30913  0.89120  0.81650  Biso   1.000  C
  C124     1.0000 0.34455  0.93700  0.79850  Biso   1.000  C
  H114     1.0000 0.36770  0.92100  0.83240  Biso   1.000  H
  C125     1.0000 0.34683  0.00600  0.73170  Biso   1.000  C
  H115     1.0000 0.37140  0.03800  0.72020  Biso   1.000  H
  C126     1.0000 0.31326  0.02860  0.68150  Biso   1.000  C
  C127     1.0000 0.27793  0.98090  0.69860  Biso   1.000  C
  H116     1.0000 0.25490  0.99410  0.66400  Biso   1.000  H
  C128     1.0000 0.27578  0.91340  0.76640  Biso   1.000  C
  H117     1.0000 0.25120  0.88240  0.77830  Biso   1.000  H
  C129     1.0000 0.31466  0.10490  0.60930  Biso   1.000  C
  O46      1.0000 0.34686  0.16300  0.60120  Biso   1.000  O
  O47      1.0000 0.28473  0.10800  0.56420  Biso   1.000  O
  O48      1.0000 0.29265  0.59850  0.03240  Biso   1.000  O
  C130     1.0000 0.30063  0.48690  0.99960  Biso   1.000  C
  O49      1.0000 0.33213  0.47920  0.97210  Biso   1.000  O
  C131     1.0000 0.27408  0.36530  0.99930  Biso   1.000  C
  C132     1.0000 0.24443  0.36550  0.04360  Biso   1.000  C
  H118     1.0000 0.24070  0.44500  0.07340  Biso   1.000  H
  C133     1.0000 0.22041  0.25220  0.04490  Biso   1.000  C
  H119     1.0000 0.20010  0.25300  0.07560  Biso   1.000  H
  Co8      1.0000 0.84891  0.18230  0.02585  Biso   1.000  Co
  C134     1.0000 0.98440  0.18350  0.81320  Biso   1.000  C
  B36      1.0000 0.97670  0.12200  0.72480  Biso   1.000  B
  H120     1.0000 0.96100  0.02220  0.70790  Biso   1.000  H
  B37      1.0000 0.95250  0.26770  0.75150  Biso   1.000  B
  H121     1.0000 0.92020  0.26750  0.75290  Biso   1.000  H
  B38      1.0000 0.98300  0.35900  0.81770  Biso   1.000  B
  H122     1.0000 0.97170  0.41990  0.86330  Biso   1.000  H
  B39      1.0000 0.97660  0.41530  0.72480  Biso   1.000  B
  H123     1.0000 0.96070  0.51460  0.70740  Biso   1.000  H
  B40      1.0000 0.97260  0.26350  0.66750  Biso   1.000  B
  H124     1.0000 0.95410  0.25930  0.61140  Biso   1.000  H
  C135     1.0000 0.97040  0.08760  0.87190  Biso   1.000  C
  H125     1.0000 0.99270  0.02430  0.89010  Biso   1.000  H
  O50      1.0000 0.94110  0.00430  0.83580  Biso   1.000  O
  H126     1.0000 0.93310  0.94940  0.86690  Biso   1.000  H
  C136     1.0000 0.95840  0.15820  0.93990  Biso   1.000  C
  C137     1.0000 0.98530  0.20190  0.99770  Biso   1.000  C
  H127     1.0000 0.01230  0.20070  0.99250  Biso   1.000  H
  C138     1.0000 0.97370  0.24680  0.06200  Biso   1.000  C
  H128     1.0000 0.99240  0.28010  0.10150  Biso   1.000  H
  C139     1.0000 0.93450  0.24450  0.07060  Biso   1.000  C
  H129     1.0000 0.92660  0.27180  0.11700  Biso   1.000  H
  N8       1.0000 0.90775  0.20440  0.01450  Biso   1.000  N
  C140     1.0000 0.91971  0.16260  0.95180  Biso   1.000  C
  H130     1.0000 0.90050  0.13350  0.91210  Biso   1.000  H
  O51      1.0000 0.83792  0.28640  0.92810  Biso   1.000  O
  C141     1.0000 0.80625  0.31720  0.88840  Biso   1.000  C
  O52      1.0000 0.77280  0.29440  0.90400  Biso   1.000  O
  C142     1.0000 0.80913  0.39120  0.81650  Biso   1.000  C
  C143     1.0000 0.84455  0.43700  0.79850  Biso   1.000  C
  H131     1.0000 0.86770  0.42100  0.83240  Biso   1.000  H
  C144     1.0000 0.84683  0.50600  0.73170  Biso   1.000  C
  H132     1.0000 0.87140  0.53800  0.72020  Biso   1.000  H
  C145     1.0000 0.81326  0.52860  0.68150  Biso   1.000  C
  C146     1.0000 0.77793  0.48090  0.69860  Biso   1.000  C
  H133     1.0000 0.75490  0.49410  0.66400  Biso   1.000  H
  C147     1.0000 0.77578  0.41340  0.76640  Biso   1.000  C
  H134     1.0000 0.75120  0.38240  0.77830  Biso   1.000  H
  C148     1.0000 0.81466  0.60490  0.60930  Biso   1.000  C
  O53      1.0000 0.84686  0.66300  0.60120  Biso   1.000  O
  O54      1.0000 0.78473  0.60800  0.56420  Biso   1.000  O
  O55      1.0000 0.79265  0.09850  0.03240  Biso   1.000  O
  C149     1.0000 0.80063  0.98690  0.99960  Biso   1.000  C
  O56      1.0000 0.83213  0.97920  0.97210  Biso   1.000  O
  C150     1.0000 0.77408  0.86530  0.99930  Biso   1.000  C
  C151     1.0000 0.74443  0.86550  0.04360  Biso   1.000  C
  H135     1.0000 0.74070  0.94500  0.07340  Biso   1.000  H
  C152     1.0000 0.72041  0.75220  0.04490  Biso   1.000  C
  H136     1.0000 0.70010  0.75300  0.07560  Biso   1.000  H
  Co9      1.0000 0.25000  0.25000  0.50000  Biso   1.000  Co
  Co10     1.0000 0.75000  0.25000  0.00000  Biso   1.000  Co
  Co11     1.0000 0.75000  0.75000  0.50000  Biso   1.000  Co
  Co12     1.0000 0.25000  0.75000  0.00000  Biso   1.000  Co
