data_image0
_cell_length_a       18.5945
_cell_length_b       8.08
_cell_length_c       30.2904
_cell_angle_alpha    90
_cell_angle_beta     90.819
_cell_angle_gamma    90

_symmetry_space_group_name_H-M    "P 1"
_symmetry_int_tables_number       1

loop_
  _symmetry_equiv_pos_as_xyz
  'x, y, z'

loop_
  _atom_site_label
  _atom_site_occupancy
  _atom_site_fract_x
  _atom_site_fract_y
  _atom_site_fract_z
  _atom_site_thermal_displace_type
  _atom_site_B_iso_or_equiv
  _atom_site_type_symbol
  Zn1      1.0000 0.86381  0.03114  0.55825  Biso   1.000  Zn
  O1       1.0000 0.75790  0.59920  0.54400  Biso   1.000  O
  C1       1.0000 0.96650  0.80970  0.77330  Biso   1.000  C
  Zn2      1.0000 0.80317  0.38567  0.52373  Biso   1.000  Zn
  O2       1.0000 0.85800  0.17640  0.50170  Biso   1.000  O
  B1       1.0000 0.95550  0.83300  0.83000  Biso   1.000  B
  H1       1.0000 0.91030  0.77900  0.84930  Biso   1.000  H
  Zn3      1.0000 0.66786  0.63735  0.51592  Biso   1.000  Zn
  B2       1.0000 0.94080  0.00820  0.79380  Biso   1.000  B
  H2       1.0000 0.88680  0.06780  0.78930  Biso   1.000  H
  Zn4      1.0000 0.94865  0.22368  0.47341  Biso   1.000  Zn
  B3       1.0000 0.00160  0.98790  0.74930  Biso   1.000  B
  H3       1.0000 0.98560  0.03230  0.71550  Biso   1.000  H
  B4       1.0000 0.05340  0.80860  0.75720  Biso   1.000  B
  H4       1.0000 0.07320  0.73730  0.72810  Biso   1.000  H
  B5       1.0000 0.02590  0.70840  0.80610  Biso   1.000  B
  H5       1.0000 0.02680  0.57060  0.81010  Biso   1.000  H
  B6       1.0000 0.99330  0.02620  0.84410  Biso   1.000  B
  H6       1.0000 0.97340  0.09820  0.87310  Biso   1.000  H
  B7       1.0000 0.02480  0.12490  0.79330  Biso   1.000  B
  H7       1.0000 0.02620  0.26240  0.78880  Biso   1.000  H
  B8       1.0000 0.08860  0.00600  0.77140  Biso   1.000  B
  H8       1.0000 0.13200  0.06670  0.75190  Biso   1.000  H
  B9       1.0000 0.10730  0.82430  0.80600  Biso   1.000  B
  H9       1.0000 0.16150  0.76480  0.80960  Biso   1.000  H
  C2       1.0000 0.04380  0.84450  0.84840  Biso   1.000  C
  B10      1.0000 0.08690  0.02320  0.83000  Biso   1.000  B
  H10      1.0000 0.12830  0.09150  0.85010  Biso   1.000  H
  C3       1.0000 0.90600  0.71200  0.75030  Biso   1.000  C
  H11      1.0000 0.86130  0.71940  0.76820  Biso   1.000  H
  O3       1.0000 0.92870  0.54200  0.74780  Biso   1.000  O
  H12      1.0000 0.89340  0.47920  0.74270  Biso   1.000  H
  C4       1.0000 0.89070  0.77560  0.70510  Biso   1.000  C
  C5       1.0000 0.84470  0.90100  0.69670  Biso   1.000  C
  H13      1.0000 0.81880  0.95000  0.72020  Biso   1.000  H
  C6       1.0000 0.83470  0.96030  0.65240  Biso   1.000  C
  H14      1.0000 0.79730  0.03820  0.64710  Biso   1.000  H
  N1       1.0000 0.87280  0.91530  0.61900  Biso   1.000  N
  C7       1.0000 0.92150  0.79700  0.62610  Biso   1.000  C
  H15      1.0000 0.94960  0.76150  0.60200  Biso   1.000  H
  C8       1.0000 0.93350  0.72220  0.66710  Biso   1.000  C
  H16      1.0000 0.96880  0.63800  0.67050  Biso   1.000  H
  C9       1.0000 0.06400  0.76840  0.89500  Biso   1.000  C
  H17      1.0000 0.10380  0.68640  0.89140  Biso   1.000  H
  O4       1.0000 0.00180  0.68550  0.90810  Biso   1.000  O
  H18      1.0000 0.00760  0.64960  0.93390  Biso   1.000  H
  C10      1.0000 0.08730  0.89870  0.92720  Biso   1.000  C
  C11      1.0000 0.04260  0.97830  0.95570  Biso   1.000  C
  H19      1.0000 0.99340  0.94790  0.95740  Biso   1.000  H
  C12      1.0000 0.06970  0.10140  0.98160  Biso   1.000  C
  H20      1.0000 0.03680  0.16250  0.99890  Biso   1.000  H
  N2       1.0000 0.13980  0.14320  0.98440  Biso   1.000  N
  C13      1.0000 0.18180  0.05820  0.95700  Biso   1.000  C
  H21      1.0000 0.23120  0.08840  0.95660  Biso   1.000  H
  C14      1.0000 0.16210  0.93960  0.93110  Biso   1.000  C
  H22      1.0000 0.19680  0.87990  0.91470  Biso   1.000  H
  O5       1.0000 0.75540  0.02470  0.56480  Biso   1.000  O
  C15      1.0000 0.70610  0.13470  0.55720  Biso   1.000  C
  O6       1.0000 0.71200  0.26510  0.53770  Biso   1.000  O
  C16      1.0000 0.63360  0.09510  0.57730  Biso   1.000  C
  C17      1.0000 0.62520  0.97820  0.61030  Biso   1.000  C
  H23      1.0000 0.66470  0.91160  0.61960  Biso   1.000  H
  C18      1.0000 0.56340  0.96050  0.62830  Biso   1.000  C
  H24      1.0000 0.55980  0.88420  0.65210  Biso   1.000  H
  C19      1.0000 0.50410  0.04160  0.61600  Biso   1.000  C
  C20      1.0000 0.50760  0.15190  0.58090  Biso   1.000  C
  H25      1.0000 0.46560  0.20510  0.56980  Biso   1.000  H
  C21      1.0000 0.57540  0.18250  0.56240  Biso   1.000  C
  H26      1.0000 0.58040  0.26290  0.53970  Biso   1.000  H
  C22      1.0000 0.43480  0.01400  0.64280  Biso   1.000  C
  C23      1.0000 0.43480  0.00380  0.68440  Biso   1.000  C
  H27      1.0000 0.47970  0.99970  0.69970  Biso   1.000  H
  C24      1.0000 0.36820  0.99780  0.71060  Biso   1.000  C
  C25      1.0000 0.30730  0.00760  0.68710  Biso   1.000  C
  H28      1.0000 0.26390  0.99580  0.70300  Biso   1.000  H
  C26      1.0000 0.30030  0.03350  0.64170  Biso   1.000  C
  C27      1.0000 0.36620  0.03690  0.61640  Biso   1.000  C
  H29      1.0000 0.36600  0.05250  0.58540  Biso   1.000  H
  C28      1.0000 0.37510  0.98380  0.75910  Biso   1.000  C
  C29      1.0000 0.43070  0.89580  0.77840  Biso   1.000  C
  H30      1.0000 0.46500  0.83970  0.76090  Biso   1.000  H
  C30      1.0000 0.43530  0.89110  0.82450  Biso   1.000  C
  H31      1.0000 0.47410  0.83350  0.83830  Biso   1.000  H
  C31      1.0000 0.38500  0.96790  0.85070  Biso   1.000  C
  C32      1.0000 0.32960  0.05050  0.82940  Biso   1.000  C
  H32      1.0000 0.29510  0.10530  0.84700  Biso   1.000  H
  C33      1.0000 0.32140  0.05820  0.78610  Biso   1.000  C
  H33      1.0000 0.28090  0.11180  0.77310  Biso   1.000  H
  C34      1.0000 0.38990  0.95180  0.90030  Biso   1.000  C
  O7       1.0000 0.44720  0.88770  0.91410  Biso   1.000  O
  O8       1.0000 0.33500  0.99160  0.92090  Biso   1.000  O
  C35      1.0000 0.23360  0.04350  0.61630  Biso   1.000  C
  C36      1.0000 0.17090  0.95260  0.62710  Biso   1.000  C
  H34      1.0000 0.17390  0.87340  0.65020  Biso   1.000  H
  C37      1.0000 0.10540  0.97430  0.60530  Biso   1.000  C
  H35      1.0000 0.06310  0.92140  0.61550  Biso   1.000  H
  C38      1.0000 0.10330  0.07300  0.56920  Biso   1.000  C
  C39      1.0000 0.16220  0.15760  0.55480  Biso   1.000  C
  H36      1.0000 0.15810  0.22810  0.52980  Biso   1.000  H
  C40      1.0000 0.23050  0.14010  0.57750  Biso   1.000  C
  H37      1.0000 0.27240  0.19240  0.56660  Biso   1.000  H
  C41      1.0000 0.03250  0.08600  0.54280  Biso   1.000  C
  O9       1.0000 0.03470  0.18300  0.50760  Biso   1.000  O
  O10      1.0000 0.97870  0.02350  0.55580  Biso   1.000  O
  C42      1.0000 0.73550  0.49550  0.43650  Biso   1.000  C
  O11      1.0000 0.67730  0.52190  0.45620  Biso   1.000  O
  O12      1.0000 0.79580  0.45870  0.45960  Biso   1.000  O
  C43      1.0000 0.73880  0.50260  0.39090  Biso   1.000  C
  C44      1.0000 0.68890  0.58690  0.36550  Biso   1.000  C
  H38      1.0000 0.65130  0.64400  0.37990  Biso   1.000  H
  C45      1.0000 0.69120  0.59240  0.32020  Biso   1.000  C
  H39      1.0000 0.65470  0.65250  0.30480  Biso   1.000  H
  C46      1.0000 0.74440  0.51370  0.29550  Biso   1.000  C
  C47      1.0000 0.79640  0.42540  0.32120  Biso   1.000  C
  H40      1.0000 0.83390  0.36870  0.30640  Biso   1.000  H
  C48      1.0000 0.79450  0.41890  0.36660  Biso   1.000  C
  H41      1.0000 0.83040  0.35840  0.38230  Biso   1.000  H
  C49      1.0000 0.74730  0.52230  0.24980  Biso   1.000  C
  C50      1.0000 0.68370  0.54340  0.22120  Biso   1.000  C
  H42      1.0000 0.63850  0.55340  0.23510  Biso   1.000  H
  C51      1.0000 0.68440  0.54980  0.17610  Biso   1.000  C
  C52      1.0000 0.74700  0.51930  0.15530  Biso   1.000  C
  H43      1.0000 0.74650  0.50970  0.12410  Biso   1.000  H
  C53      1.0000 0.81540  0.50060  0.17930  Biso   1.000  C
  C54      1.0000 0.81260  0.49820  0.22460  Biso   1.000  C
  H44      1.0000 0.85610  0.47940  0.24060  Biso   1.000  H
  C55      1.0000 0.61480  0.56600  0.15130  Biso   1.000  C
  C56      1.0000 0.55950  0.67030  0.16680  Biso   1.000  C
  H45      1.0000 0.56530  0.72860  0.19390  Biso   1.000  H
  C57      1.0000 0.49750  0.68570  0.14220  Biso   1.000  C
  H46      1.0000 0.46090  0.75650  0.15300  Biso   1.000  H
  C58      1.0000 0.48520  0.60650  0.10370  Biso   1.000  C
  C59      1.0000 0.53740  0.49900  0.08660  Biso   1.000  C
  H47      1.0000 0.52950  0.43890  0.06000  Biso   1.000  H
  C60      1.0000 0.60190  0.48550  0.11090  Biso   1.000  C
  H48      1.0000 0.63900  0.41780  0.09940  Biso   1.000  H
  C61      1.0000 0.41670  0.62600  0.07780  Biso   1.000  C
  O13      1.0000 0.36860  0.72360  0.09160  Biso   1.000  O
  O14      1.0000 0.40430  0.53700  0.04560  Biso   1.000  O
  C62      1.0000 0.88510  0.48680  0.15730  Biso   1.000  C
  C63      1.0000 0.88660  0.40240  0.11270  Biso   1.000  C
  H49      1.0000 0.84340  0.35880  0.10020  Biso   1.000  H
  C64      1.0000 0.94630  0.38880  0.09130  Biso   1.000  C
  H50      1.0000 0.94600  0.34170  0.06260  Biso   1.000  H
  C65      1.0000 0.01430  0.44570  0.11120  Biso   1.000  C
  C66      1.0000 0.00970  0.52210  0.15180  Biso   1.000  C
  H51      1.0000 0.05240  0.56260  0.16550  Biso   1.000  H
  C67      1.0000 0.94590  0.54150  0.17280  Biso   1.000  C
  H52      1.0000 0.94610  0.59810  0.20030  Biso   1.000  H
  C68      1.0000 0.08560  0.42530  0.08710  Biso   1.000  C
  O15      1.0000 0.07930  0.40560  0.04740  Biso   1.000  O
  O16      1.0000 0.14000  0.43990  0.11080  Biso   1.000  O
  H53      1.0000 0.92460  0.59680  0.74650  Biso   1.000  H
  O17      1.0000 0.84890  0.70000  0.77490  Biso   1.000  O
  H54      1.0000 0.83210  0.60450  0.77020  Biso   1.000  H
  Zn5      1.0000 0.36381  0.96886  0.05825  Biso   1.000  Zn
  O18      1.0000 0.25790  0.40080  0.04400  Biso   1.000  O
  C69      1.0000 0.46650  0.19030  0.27330  Biso   1.000  C
  Zn6      1.0000 0.30317  0.61433  0.02373  Biso   1.000  Zn
  O19      1.0000 0.35800  0.82360  0.00170  Biso   1.000  O
  B11      1.0000 0.45550  0.16700  0.33000  Biso   1.000  B
  H55      1.0000 0.41030  0.22100  0.34930  Biso   1.000  H
  Zn7      1.0000 0.16786  0.36265  0.01592  Biso   1.000  Zn
  B12      1.0000 0.44080  0.99180  0.29380  Biso   1.000  B
  H56      1.0000 0.38680  0.93220  0.28930  Biso   1.000  H
  Zn8      1.0000 0.44865  0.77632  0.97341  Biso   1.000  Zn
  B13      1.0000 0.50160  0.01210  0.24930  Biso   1.000  B
  H57      1.0000 0.48560  0.96770  0.21550  Biso   1.000  H
  B14      1.0000 0.55340  0.19140  0.25720  Biso   1.000  B
  H58      1.0000 0.57320  0.26270  0.22810  Biso   1.000  H
  B15      1.0000 0.52590  0.29160  0.30610  Biso   1.000  B
  H59      1.0000 0.52680  0.42940  0.31010  Biso   1.000  H
  B16      1.0000 0.49330  0.97380  0.34410  Biso   1.000  B
  H60      1.0000 0.47340  0.90180  0.37310  Biso   1.000  H
  B17      1.0000 0.52480  0.87510  0.29330  Biso   1.000  B
  H61      1.0000 0.52620  0.73760  0.28880  Biso   1.000  H
  B18      1.0000 0.58860  0.99400  0.27140  Biso   1.000  B
  H62      1.0000 0.63200  0.93330  0.25190  Biso   1.000  H
  B19      1.0000 0.60730  0.17570  0.30600  Biso   1.000  B
  H63      1.0000 0.66150  0.23520  0.30960  Biso   1.000  H
  C70      1.0000 0.54380  0.15550  0.34840  Biso   1.000  C
  B20      1.0000 0.58690  0.97680  0.33000  Biso   1.000  B
  H64      1.0000 0.62830  0.90850  0.35010  Biso   1.000  H
  C71      1.0000 0.40600  0.28800  0.25030  Biso   1.000  C
  H65      1.0000 0.36130  0.28060  0.26820  Biso   1.000  H
  O20      1.0000 0.42870  0.45800  0.24780  Biso   1.000  O
  H66      1.0000 0.39340  0.52080  0.24270  Biso   1.000  H
  C72      1.0000 0.39070  0.22440  0.20510  Biso   1.000  C
  C73      1.0000 0.34470  0.09900  0.19670  Biso   1.000  C
  H67      1.0000 0.31880  0.05000  0.22020  Biso   1.000  H
  C74      1.0000 0.33470  0.03970  0.15240  Biso   1.000  C
  H68      1.0000 0.29730  0.96180  0.14710  Biso   1.000  H
  N3       1.0000 0.37280  0.08470  0.11900  Biso   1.000  N
  C75      1.0000 0.42150  0.20300  0.12610  Biso   1.000  C
  H69      1.0000 0.44960  0.23850  0.10200  Biso   1.000  H
  C76      1.0000 0.43350  0.27780  0.16710  Biso   1.000  C
  H70      1.0000 0.46880  0.36200  0.17050  Biso   1.000  H
  C77      1.0000 0.56400  0.23160  0.39500  Biso   1.000  C
  H71      1.0000 0.60380  0.31360  0.39140  Biso   1.000  H
  O21      1.0000 0.50180  0.31450  0.40810  Biso   1.000  O
  H72      1.0000 0.50760  0.35040  0.43390  Biso   1.000  H
  C78      1.0000 0.58730  0.10130  0.42720  Biso   1.000  C
  C79      1.0000 0.54260  0.02170  0.45570  Biso   1.000  C
  H73      1.0000 0.49340  0.05210  0.45740  Biso   1.000  H
  C80      1.0000 0.56970  0.89860  0.48160  Biso   1.000  C
  H74      1.0000 0.53680  0.83750  0.49890  Biso   1.000  H
  N4       1.0000 0.63980  0.85680  0.48440  Biso   1.000  N
  C81      1.0000 0.68180  0.94180  0.45700  Biso   1.000  C
  H75      1.0000 0.73120  0.91160  0.45660  Biso   1.000  H
  C82      1.0000 0.66210  0.06040  0.43110  Biso   1.000  C
  H76      1.0000 0.69680  0.12010  0.41470  Biso   1.000  H
  O22      1.0000 0.25540  0.97530  0.06480  Biso   1.000  O
  C83      1.0000 0.20610  0.86530  0.05720  Biso   1.000  C
  O23      1.0000 0.21200  0.73490  0.03770  Biso   1.000  O
  C84      1.0000 0.13360  0.90490  0.07730  Biso   1.000  C
  C85      1.0000 0.12520  0.02180  0.11030  Biso   1.000  C
  H77      1.0000 0.16470  0.08840  0.11960  Biso   1.000  H
  C86      1.0000 0.06340  0.03950  0.12830  Biso   1.000  C
  H78      1.0000 0.05980  0.11580  0.15210  Biso   1.000  H
  C87      1.0000 0.00410  0.95840  0.11600  Biso   1.000  C
  C88      1.0000 0.00760  0.84810  0.08090  Biso   1.000  C
  H79      1.0000 0.96560  0.79490  0.06980  Biso   1.000  H
  C89      1.0000 0.07540  0.81750  0.06240  Biso   1.000  C
  H80      1.0000 0.08040  0.73710  0.03970  Biso   1.000  H
  C90      1.0000 0.93480  0.98600  0.14280  Biso   1.000  C
  C91      1.0000 0.93480  0.99620  0.18440  Biso   1.000  C
  H81      1.0000 0.97970  0.00030  0.19970  Biso   1.000  H
  C92      1.0000 0.86820  0.00220  0.21060  Biso   1.000  C
  C93      1.0000 0.80730  0.99240  0.18710  Biso   1.000  C
  H82      1.0000 0.76390  0.00420  0.20300  Biso   1.000  H
  C94      1.0000 0.80030  0.96650  0.14170  Biso   1.000  C
  C95      1.0000 0.86620  0.96310  0.11640  Biso   1.000  C
  H83      1.0000 0.86600  0.94750  0.08540  Biso   1.000  H
  C96      1.0000 0.87510  0.01620  0.25910  Biso   1.000  C
  C97      1.0000 0.93070  0.10420  0.27840  Biso   1.000  C
  H84      1.0000 0.96500  0.16030  0.26090  Biso   1.000  H
  C98      1.0000 0.93530  0.10890  0.32450  Biso   1.000  C
  H85      1.0000 0.97410  0.16650  0.33830  Biso   1.000  H
  C99      1.0000 0.88500  0.03210  0.35070  Biso   1.000  C
  C100     1.0000 0.82960  0.94950  0.32940  Biso   1.000  C
  H86      1.0000 0.79510  0.89470  0.34700  Biso   1.000  H
  C101     1.0000 0.82140  0.94180  0.28610  Biso   1.000  C
  H87      1.0000 0.78090  0.88820  0.27310  Biso   1.000  H
  C102     1.0000 0.88990  0.04820  0.40030  Biso   1.000  C
  O24      1.0000 0.94720  0.11230  0.41410  Biso   1.000  O
  O25      1.0000 0.83500  0.00840  0.42090  Biso   1.000  O
  C103     1.0000 0.73360  0.95650  0.11630  Biso   1.000  C
  C104     1.0000 0.67090  0.04740  0.12710  Biso   1.000  C
  H88      1.0000 0.67390  0.12660  0.15020  Biso   1.000  H
  C105     1.0000 0.60540  0.02570  0.10530  Biso   1.000  C
  H89      1.0000 0.56310  0.07860  0.11550  Biso   1.000  H
  C106     1.0000 0.60330  0.92700  0.06920  Biso   1.000  C
  C107     1.0000 0.66220  0.84240  0.05480  Biso   1.000  C
  H90      1.0000 0.65810  0.77190  0.02980  Biso   1.000  H
  C108     1.0000 0.73050  0.85990  0.07750  Biso   1.000  C
  H91      1.0000 0.77240  0.80760  0.06660  Biso   1.000  H
  C109     1.0000 0.53250  0.91400  0.04280  Biso   1.000  C
  O26      1.0000 0.53470  0.81700  0.00760  Biso   1.000  O
  O27      1.0000 0.47870  0.97650  0.05580  Biso   1.000  O
  C110     1.0000 0.23550  0.50450  0.93650  Biso   1.000  C
  O28      1.0000 0.17730  0.47810  0.95620  Biso   1.000  O
  O29      1.0000 0.29580  0.54130  0.95960  Biso   1.000  O
  C111     1.0000 0.23880  0.49740  0.89090  Biso   1.000  C
  C112     1.0000 0.18890  0.41310  0.86550  Biso   1.000  C
  H92      1.0000 0.15130  0.35600  0.87990  Biso   1.000  H
  C113     1.0000 0.19120  0.40760  0.82020  Biso   1.000  C
  H93      1.0000 0.15470  0.34750  0.80480  Biso   1.000  H
  C114     1.0000 0.24440  0.48630  0.79550  Biso   1.000  C
  C115     1.0000 0.29640  0.57460  0.82120  Biso   1.000  C
  H94      1.0000 0.33390  0.63130  0.80640  Biso   1.000  H
  C116     1.0000 0.29450  0.58110  0.86660  Biso   1.000  C
  H95      1.0000 0.33040  0.64160  0.88230  Biso   1.000  H
  C117     1.0000 0.24730  0.47770  0.74980  Biso   1.000  C
  C118     1.0000 0.18370  0.45660  0.72120  Biso   1.000  C
  H96      1.0000 0.13850  0.44660  0.73510  Biso   1.000  H
  C119     1.0000 0.18440  0.45020  0.67610  Biso   1.000  C
  C120     1.0000 0.24700  0.48070  0.65530  Biso   1.000  C
  H97      1.0000 0.24650  0.49030  0.62410  Biso   1.000  H
  C121     1.0000 0.31540  0.49940  0.67930  Biso   1.000  C
  C122     1.0000 0.31260  0.50180  0.72460  Biso   1.000  C
  H98      1.0000 0.35610  0.52060  0.74060  Biso   1.000  H
  C123     1.0000 0.11480  0.43400  0.65130  Biso   1.000  C
  C124     1.0000 0.05950  0.32970  0.66680  Biso   1.000  C
  H99      1.0000 0.06530  0.27140  0.69390  Biso   1.000  H
  C125     1.0000 0.99750  0.31430  0.64220  Biso   1.000  C
  H100     1.0000 0.96090  0.24350  0.65300  Biso   1.000  H
  C126     1.0000 0.98520  0.39350  0.60370  Biso   1.000  C
  C127     1.0000 0.03740  0.50100  0.58660  Biso   1.000  C
  H101     1.0000 0.02950  0.56110  0.56000  Biso   1.000  H
  C128     1.0000 0.10190  0.51450  0.61090  Biso   1.000  C
  H102     1.0000 0.13900  0.58220  0.59940  Biso   1.000  H
  C129     1.0000 0.91670  0.37400  0.57780  Biso   1.000  C
  O30      1.0000 0.86860  0.27640  0.59160  Biso   1.000  O
  O31      1.0000 0.90430  0.46300  0.54560  Biso   1.000  O
  C130     1.0000 0.38510  0.51320  0.65730  Biso   1.000  C
  C131     1.0000 0.38660  0.59760  0.61270  Biso   1.000  C
  H103     1.0000 0.34340  0.64120  0.60020  Biso   1.000  H
  C132     1.0000 0.44630  0.61120  0.59130  Biso   1.000  C
  H104     1.0000 0.44600  0.65830  0.56260  Biso   1.000  H
  C133     1.0000 0.51430  0.55430  0.61120  Biso   1.000  C
  C134     1.0000 0.50970  0.47790  0.65180  Biso   1.000  C
  H105     1.0000 0.55240  0.43740  0.66550  Biso   1.000  H
  C135     1.0000 0.44590  0.45850  0.67280  Biso   1.000  C
  H106     1.0000 0.44610  0.40190  0.70030  Biso   1.000  H
  C136     1.0000 0.58560  0.57470  0.58710  Biso   1.000  C
  O32      1.0000 0.57930  0.59440  0.54740  Biso   1.000  O
  O33      1.0000 0.64000  0.56010  0.61080  Biso   1.000  O
  H107     1.0000 0.42460  0.40320  0.24650  Biso   1.000  H
  O34      1.0000 0.34890  0.30000  0.27490  Biso   1.000  O
  H108     1.0000 0.33210  0.39550  0.27020  Biso   1.000  H
