data_image0
_cell_length_a       14.9235
_cell_length_b       15.1203
_cell_length_c       15.9793
_cell_angle_alpha    67.399
_cell_angle_beta     68.016
_cell_angle_gamma    70.67

_symmetry_space_group_name_H-M    "P 1"
_symmetry_int_tables_number       1

loop_
  _symmetry_equiv_pos_as_xyz
  'x, y, z'

loop_
  _atom_site_label
  _atom_site_occupancy
  _atom_site_fract_x
  _atom_site_fract_y
  _atom_site_fract_z
  _atom_site_thermal_displace_type
  _atom_site_B_iso_or_equiv
  _atom_site_type_symbol
  Co1      1.0000 0.24835  0.93250  0.98581  Biso   1.000  Co
  C1       1.0000 0.67304  0.51426  0.13259  Biso   1.000  C
  B1       1.0000 0.63950  0.63350  0.06930  Biso   1.000  B
  H1       1.0000 0.56820  0.66610  0.04990  Biso   1.000  H
  B2       1.0000 0.73520  0.55100  0.01340  Biso   1.000  B
  H2       1.0000 0.72720  0.52810  0.95820  Biso   1.000  H
  B3       1.0000 0.79970  0.46830  0.09660  Biso   1.000  B
  H3       1.0000 0.83460  0.39060  0.09550  Biso   1.000  H
  B4       1.0000 0.74170  0.49900  0.20490  Biso   1.000  B
  H4       1.0000 0.73820  0.44150  0.27520  Biso   1.000  H
  B5       1.0000 0.64250  0.60257  0.18740  Biso   1.000  B
  H5       1.0000 0.57340  0.61500  0.24580  Biso   1.000  H
  B6       1.0000 0.75030  0.67080  0.99230  Biso   1.000  B
  H6       1.0000 0.75260  0.72890  0.92250  Biso   1.000  H
  B7       1.0000 0.85040  0.56760  0.00870  Biso   1.000  B
  H7       1.0000 0.91900  0.55650  0.94960  Biso   1.000  H
  B8       1.0000 0.85320  0.53490  0.12790  Biso   1.000  B
  H8       1.0000 0.92440  0.50160  0.14750  Biso   1.000  H
  B9       1.0000 0.75690  0.61780  0.18410  Biso   1.000  B
  H9       1.0000 0.76380  0.64060  0.24000  Biso   1.000  H
  C2       1.0000 0.69591  0.69317  0.10019  Biso   1.000  C
  B10      1.0000 0.82350  0.65990  0.06330  Biso   1.000  B
  H10      1.0000 0.87420  0.71070  0.03990  Biso   1.000  H
  C3       1.0000 0.65055  0.80196  0.09999  Biso   1.000  C
  H11      1.0000 0.69950  0.84270  0.05420  Biso   1.000  H
  O1       1.0000 0.63147  0.80816  0.19191  Biso   1.000  O
  H12      1.0000 0.65810  0.85110  0.18810  Biso   1.000  H
  C4       1.0000 0.55548  0.84153  0.07081  Biso   1.000  C
  C5       1.0000 0.55686  0.88094  0.97624  Biso   1.000  C
  H13      1.0000 0.61740  0.88800  0.92800  Biso   1.000  H
  C6       1.0000 0.46822  0.90979  0.95350  Biso   1.000  C
  H14      1.0000 0.46960  0.93560  0.88870  Biso   1.000  H
  N1       1.0000 0.38052  0.90273  0.01925  Biso   1.000  N
  C7       1.0000 0.37963  0.86938  0.11057  Biso   1.000  C
  H15      1.0000 0.31770  0.86730  0.15770  Biso   1.000  H
  C8       1.0000 0.46474  0.83793  0.13898  Biso   1.000  C
  H16      1.0000 0.46110  0.81420  0.20430  Biso   1.000  H
  C9       1.0000 0.59740  0.44900  0.16920  Biso   1.000  C
  H17      1.0000 0.58490  0.42300  0.23940  Biso   1.000  H
  O2       1.0000 0.50680  0.50440  0.15320  Biso   1.000  O
  H18      1.0000 0.46220  0.47340  0.18900  Biso   1.000  H
  C10      1.0000 0.63514  0.35950  0.13320  Biso   1.000  C
  C11      1.0000 0.61010  0.35916  0.05810  Biso   1.000  C
  H19      1.0000 0.57060  0.41610  0.02600  Biso   1.000  H
  C12      1.0000 0.64340  0.27437  0.03030  Biso   1.000  C
  H20      1.0000 0.62620  0.27550  0.97830  Biso   1.000  H
  N2       1.0000 0.69836  0.19126  0.07292  Biso   1.000  N
  C13      1.0000 0.72320  0.19279  0.14464  Biso   1.000  C
  H21      1.0000 0.76380  0.13530  0.17480  Biso   1.000  H
  C14      1.0000 0.69290  0.27385  0.17710  Biso   1.000  C
  H22      1.0000 0.71160  0.27080  0.22900  Biso   1.000  H
  O3       1.0000 0.18830  0.83769  0.10999  Biso   1.000  O
  C15      1.0000 0.11082  0.81144  0.12114  Biso   1.000  C
  O4       1.0000 0.04751  0.85879  0.07727  Biso   1.000  O
  C16      1.0000 0.09628  0.71338  0.19091  Biso   1.000  C
  C17      1.0000 0.16040  0.65782  0.24678  Biso   1.000  C
  H23      1.0000 0.21120  0.68430  0.24440  Biso   1.000  H
  C18      1.0000 0.15031  0.56422  0.30568  Biso   1.000  C
  H24      1.0000 0.19390  0.52700  0.34390  Biso   1.000  H
  C19      1.0000 0.07646  0.52431  0.30920  Biso   1.000  C
  C20      1.0000 0.01083  0.58186  0.25513  Biso   1.000  C
  H25      1.0000 0.95900  0.55630  0.25850  Biso   1.000  H
  C21      1.0000 0.02030  0.67566  0.19678  Biso   1.000  C
  H26      1.0000 0.97490  0.71410  0.16080  Biso   1.000  H
  C22      1.0000 0.07343  0.41974  0.36037  Biso   1.000  C
  C23      1.0000 0.05944  0.36491  0.31485  Biso   1.000  C
  H27      1.0000 0.04850  0.39660  0.25430  Biso   1.000  H
  C24      1.0000 0.06111  0.26472  0.35609  Biso   1.000  C
  C25      1.0000 0.07649  0.21960  0.44593  Biso   1.000  C
  H28      1.0000 0.07650  0.15180  0.47570  Biso   1.000  H
  C26      1.0000 0.09187  0.27269  0.49242  Biso   1.000  C
  C27      1.0000 0.08990  0.37293  0.44927  Biso   1.000  C
  H29      1.0000 0.09980  0.40950  0.48070  Biso   1.000  H
  C28      1.0000 0.05783  0.20826  0.29945  Biso   1.000  C
  C29      1.0000 0.00535  0.25158  0.23220  Biso   1.000  C
  H30      1.0000 0.96230  0.31440  0.22950  Biso   1.000  H
  C30      1.0000 0.01515  0.20403  0.16916  Biso   1.000  C
  H31      1.0000 0.97640  0.23290  0.12590  Biso   1.000  H
  C31      1.0000 0.08144  0.11432  0.16920  Biso   1.000  C
  C32      1.0000 0.12911  0.06777  0.23970  Biso   1.000  C
  H32      1.0000 0.17160  0.00460  0.24260  Biso   1.000  H
  C33      1.0000 0.11498  0.11301  0.30570  Biso   1.000  C
  H33      1.0000 0.14460  0.07880  0.35590  Biso   1.000  H
  C34      1.0000 0.10160  0.06804  0.09387  Biso   1.000  C
  O5       1.0000 0.02751  0.06158  0.07916  Biso   1.000  O
  O6       1.0000 0.19187  0.03990  0.05245  Biso   1.000  O
  C35      1.0000 0.11472  0.22065  0.58466  Biso   1.000  C
  C36      1.0000 0.06361  0.14969  0.65347  Biso   1.000  C
  H34      1.0000 0.00980  0.13840  0.64370  Biso   1.000  H
  C37      1.0000 0.09086  0.09547  0.73617  Biso   1.000  C
  H35      1.0000 0.05580  0.04720  0.78260  Biso   1.000  H
  C38      1.0000 0.16955  0.11189  0.75103  Biso   1.000  C
  C39      1.0000 0.22045  0.18313  0.68304  Biso   1.000  C
  H36      1.0000 0.27400  0.19470  0.69300  Biso   1.000  H
  C40      1.0000 0.19267  0.23734  0.60038  Biso   1.000  C
  H37      1.0000 0.22720  0.28620  0.55430  Biso   1.000  H
  C41      1.0000 0.20049  0.04973  0.83784  Biso   1.000  C
  O7       1.0000 0.28370  0.04445  0.84524  Biso   1.000  O
  O8       1.0000 0.14508  0.99490  0.90486  Biso   1.000  O
  H38      1.0000 0.53930  0.49040  0.14480  Biso   1.000  H
  O9       1.0000 0.56440  0.42760  0.26520  Biso   1.000  O
  H39      1.0000 0.51760  0.39880  0.28610  Biso   1.000  H
  Co2      1.0000 0.75165  0.06750  0.01419  Biso   1.000  Co
  C42      1.0000 0.32696  0.48574  0.86741  Biso   1.000  C
  B11      1.0000 0.36050  0.36650  0.93070  Biso   1.000  B
  H40      1.0000 0.43180  0.33390  0.95010  Biso   1.000  H
  B12      1.0000 0.26480  0.44900  0.98660  Biso   1.000  B
  H41      1.0000 0.27280  0.47190  0.04180  Biso   1.000  H
  B13      1.0000 0.20030  0.53170  0.90340  Biso   1.000  B
  H42      1.0000 0.16540  0.60940  0.90450  Biso   1.000  H
  B14      1.0000 0.25830  0.50100  0.79510  Biso   1.000  B
  H43      1.0000 0.26180  0.55850  0.72480  Biso   1.000  H
  B15      1.0000 0.35750  0.39743  0.81260  Biso   1.000  B
  H44      1.0000 0.42660  0.38500  0.75420  Biso   1.000  H
  B16      1.0000 0.24970  0.32920  0.00770  Biso   1.000  B
  H45      1.0000 0.24740  0.27110  0.07750  Biso   1.000  H
  B17      1.0000 0.14960  0.43240  0.99130  Biso   1.000  B
  H46      1.0000 0.08100  0.44350  0.05040  Biso   1.000  H
  B18      1.0000 0.14680  0.46510  0.87210  Biso   1.000  B
  H47      1.0000 0.07560  0.49840  0.85250  Biso   1.000  H
  B19      1.0000 0.24310  0.38220  0.81590  Biso   1.000  B
  H48      1.0000 0.23620  0.35940  0.76000  Biso   1.000  H
  C43      1.0000 0.30409  0.30683  0.89981  Biso   1.000  C
  B20      1.0000 0.17650  0.34010  0.93670  Biso   1.000  B
  H49      1.0000 0.12580  0.28930  0.96010  Biso   1.000  H
  C44      1.0000 0.34945  0.19804  0.90001  Biso   1.000  C
  H50      1.0000 0.30050  0.15730  0.94580  Biso   1.000  H
  O10      1.0000 0.36853  0.19184  0.80809  Biso   1.000  O
  H51      1.0000 0.34190  0.14890  0.81190  Biso   1.000  H
  C45      1.0000 0.44452  0.15847  0.92919  Biso   1.000  C
  C46      1.0000 0.44314  0.11906  0.02376  Biso   1.000  C
  H52      1.0000 0.38260  0.11200  0.07200  Biso   1.000  H
  C47      1.0000 0.53178  0.09021  0.04650  Biso   1.000  C
  H53      1.0000 0.53040  0.06440  0.11130  Biso   1.000  H
  N3       1.0000 0.61948  0.09727  0.98075  Biso   1.000  N
  C48      1.0000 0.62037  0.13062  0.88943  Biso   1.000  C
  H54      1.0000 0.68230  0.13270  0.84230  Biso   1.000  H
  C49      1.0000 0.53526  0.16207  0.86102  Biso   1.000  C
  H55      1.0000 0.53890  0.18580  0.79570  Biso   1.000  H
  C50      1.0000 0.40260  0.55100  0.83080  Biso   1.000  C
  H56      1.0000 0.41510  0.57700  0.76060  Biso   1.000  H
  O11      1.0000 0.49320  0.49560  0.84680  Biso   1.000  O
  H57      1.0000 0.53780  0.52660  0.81100  Biso   1.000  H
  C51      1.0000 0.36486  0.64050  0.86680  Biso   1.000  C
  C52      1.0000 0.38990  0.64084  0.94190  Biso   1.000  C
  H58      1.0000 0.42940  0.58390  0.97400  Biso   1.000  H
  C53      1.0000 0.35660  0.72563  0.96970  Biso   1.000  C
  H59      1.0000 0.37380  0.72450  0.02170  Biso   1.000  H
  N4       1.0000 0.30164  0.80874  0.92708  Biso   1.000  N
  C54      1.0000 0.27680  0.80721  0.85536  Biso   1.000  C
  H60      1.0000 0.23620  0.86470  0.82520  Biso   1.000  H
  C55      1.0000 0.30710  0.72615  0.82290  Biso   1.000  C
  H61      1.0000 0.28840  0.72920  0.77100  Biso   1.000  H
  O12      1.0000 0.81170  0.16231  0.89001  Biso   1.000  O
  C56      1.0000 0.88918  0.18856  0.87886  Biso   1.000  C
  O13      1.0000 0.95249  0.14121  0.92273  Biso   1.000  O
  C57      1.0000 0.90372  0.28662  0.80909  Biso   1.000  C
  C58      1.0000 0.83960  0.34218  0.75322  Biso   1.000  C
  H62      1.0000 0.78880  0.31570  0.75560  Biso   1.000  H
  C59      1.0000 0.84969  0.43578  0.69432  Biso   1.000  C
  H63      1.0000 0.80610  0.47300  0.65610  Biso   1.000  H
  C60      1.0000 0.92354  0.47569  0.69080  Biso   1.000  C
  C61      1.0000 0.98917  0.41814  0.74487  Biso   1.000  C
  H64      1.0000 0.04100  0.44370  0.74150  Biso   1.000  H
  C62      1.0000 0.97970  0.32434  0.80322  Biso   1.000  C
  H65      1.0000 0.02510  0.28590  0.83920  Biso   1.000  H
  C63      1.0000 0.92657  0.58026  0.63963  Biso   1.000  C
  C64      1.0000 0.94056  0.63509  0.68515  Biso   1.000  C
  H66      1.0000 0.95150  0.60340  0.74570  Biso   1.000  H
  C65      1.0000 0.93889  0.73528  0.64391  Biso   1.000  C
  C66      1.0000 0.92351  0.78040  0.55407  Biso   1.000  C
  H67      1.0000 0.92350  0.84820  0.52430  Biso   1.000  H
  C67      1.0000 0.90813  0.72731  0.50758  Biso   1.000  C
  C68      1.0000 0.91010  0.62707  0.55073  Biso   1.000  C
  H68      1.0000 0.90020  0.59050  0.51930  Biso   1.000  H
  C69      1.0000 0.94217  0.79174  0.70055  Biso   1.000  C
  C70      1.0000 0.99465  0.74842  0.76780  Biso   1.000  C
  H69      1.0000 0.03770  0.68560  0.77050  Biso   1.000  H
  C71      1.0000 0.98485  0.79597  0.83084  Biso   1.000  C
  H70      1.0000 0.02360  0.76710  0.87410  Biso   1.000  H
  C72      1.0000 0.91856  0.88568  0.83080  Biso   1.000  C
  C73      1.0000 0.87089  0.93223  0.76030  Biso   1.000  C
  H71      1.0000 0.82840  0.99540  0.75740  Biso   1.000  H
  C74      1.0000 0.88502  0.88699  0.69430  Biso   1.000  C
  H72      1.0000 0.85540  0.92120  0.64410  Biso   1.000  H
  C75      1.0000 0.89840  0.93196  0.90613  Biso   1.000  C
  O14      1.0000 0.97249  0.93842  0.92084  Biso   1.000  O
  O15      1.0000 0.80813  0.96010  0.94755  Biso   1.000  O
  C76      1.0000 0.88528  0.77935  0.41534  Biso   1.000  C
  C77      1.0000 0.93639  0.85031  0.34653  Biso   1.000  C
  H73      1.0000 0.99020  0.86160  0.35630  Biso   1.000  H
  C78      1.0000 0.90914  0.90453  0.26383  Biso   1.000  C
  H74      1.0000 0.94420  0.95280  0.21740  Biso   1.000  H
  C79      1.0000 0.83045  0.88811  0.24897  Biso   1.000  C
  C80      1.0000 0.77955  0.81687  0.31696  Biso   1.000  C
  H75      1.0000 0.72600  0.80530  0.30700  Biso   1.000  H
  C81      1.0000 0.80733  0.76266  0.39962  Biso   1.000  C
  H76      1.0000 0.77280  0.71380  0.44570  Biso   1.000  H
  C82      1.0000 0.79951  0.95027  0.16216  Biso   1.000  C
  O16      1.0000 0.71630  0.95555  0.15476  Biso   1.000  O
  O17      1.0000 0.85492  0.00510  0.09514  Biso   1.000  O
  H77      1.0000 0.46070  0.50960  0.85520  Biso   1.000  H
  O18      1.0000 0.43560  0.57240  0.73480  Biso   1.000  O
  H78      1.0000 0.48240  0.60120  0.71390  Biso   1.000  H
  Co3      1.0000 0.00000  0.00000  0.00000  Biso   1.000  Co
