data_image0
_cell_length_a       14.7228
_cell_length_b       15.2375
_cell_length_c       15.7764
_cell_angle_alpha    67.526
_cell_angle_beta     65.847
_cell_angle_gamma    70.866

_symmetry_space_group_name_H-M    "P 1"
_symmetry_int_tables_number       1

loop_
  _symmetry_equiv_pos_as_xyz
  'x, y, z'

loop_
  _atom_site_label
  _atom_site_occupancy
  _atom_site_fract_x
  _atom_site_fract_y
  _atom_site_fract_z
  _atom_site_thermal_displace_type
  _atom_site_B_iso_or_equiv
  _atom_site_type_symbol
  C1       1.0000 0.69630  0.18955  0.10150  Biso   1.000  C
  Co1      1.0000 0.25376  0.43110  0.97986  Biso   1.000  Co
  O1       1.0000 0.49740  0.01308  0.13920  Biso   1.000  O
  H1       1.0000 0.44890  0.98380  0.17080  Biso   1.000  H
  B1       1.0000 0.63370  0.10193  0.18850  Biso   1.000  B
  H2       1.0000 0.56040  0.11620  0.24740  Biso   1.000  H
  B2       1.0000 0.74983  0.11138  0.18926  Biso   1.000  B
  H3       1.0000 0.75390  0.13210  0.24830  Biso   1.000  H
  B3       1.0000 0.82664  0.15150  0.06655  Biso   1.000  B
  H4       1.0000 0.88140  0.19890  0.04480  Biso   1.000  H
  B4       1.0000 0.75736  0.16669  0.99074  Biso   1.000  B
  H5       1.0000 0.76610  0.22430  0.91940  Biso   1.000  H
  B5       1.0000 0.63906  0.13420  0.06622  Biso   1.000  B
  H6       1.0000 0.56900  0.16930  0.04460  Biso   1.000  H
  B6       1.0000 0.72875  0.99624  0.20796  Biso   1.000  B
  H7       1.0000 0.71810  0.93930  0.27980  Biso   1.000  H
  B7       1.0000 0.84825  0.02721  0.13282  Biso   1.000  B
  H8       1.0000 0.91780  0.99110  0.15530  Biso   1.000  H
  B8       1.0000 0.85394  0.06181  0.00908  Biso   1.000  B
  H9       1.0000 0.92700  0.04910  0.94940  Biso   1.000  H
  B9       1.0000 0.73667  0.05112  0.00952  Biso   1.000  B
  H10      1.0000 0.73140  0.03050  0.95100  Biso   1.000  H
  C2       1.0000 0.66551  0.01584  0.12996  Biso   1.000  C
  B10      1.0000 0.79398  0.96549  0.09682  Biso   1.000  B
  H11      1.0000 0.82700  0.88840  0.09540  Biso   1.000  H
  C3       1.0000 0.65361  0.29725  0.10210  Biso   1.000  C
  H12      1.0000 0.70660  0.33600  0.05530  Biso   1.000  H
  O2       1.0000 0.63141  0.30298  0.19610  Biso   1.000  O
  H13      1.0000 0.65190  0.35040  0.19190  Biso   1.000  H
  C4       1.0000 0.55877  0.33885  0.07211  Biso   1.000  C
  C5       1.0000 0.46298  0.33529  0.14119  Biso   1.000  C
  H14      1.0000 0.45530  0.31210  0.20830  Biso   1.000  H
  C6       1.0000 0.37905  0.36581  0.11117  Biso   1.000  C
  H15      1.0000 0.31400  0.36210  0.15900  Biso   1.000  H
  N1       1.0000 0.38519  0.40065  0.01705  Biso   1.000  N
  C7       1.0000 0.47699  0.40908  0.95098  Biso   1.000  C
  H16      1.0000 0.48200  0.43670  0.88450  Biso   1.000  H
  C8       1.0000 0.56522  0.37946  0.97490  Biso   1.000  C
  H17      1.0000 0.62900  0.38670  0.92580  Biso   1.000  H
  C9       1.0000 0.58487  0.95476  0.16402  Biso   1.000  C
  H18      1.0000 0.56320  0.93240  0.23650  Biso   1.000  H
  C10      1.0000 0.62440  0.86399  0.13073  Biso   1.000  C
  C11      1.0000 0.66790  0.77749  0.18547  Biso   1.000  C
  H19      1.0000 0.67580  0.77480  0.24330  Biso   1.000  H
  C12      1.0000 0.69981  0.69505  0.15521  Biso   1.000  C
  H20      1.0000 0.72980  0.63650  0.19340  Biso   1.000  H
  N2       1.0000 0.69043  0.69372  0.07475  Biso   1.000  N
  C13      1.0000 0.64813  0.77793  0.02249  Biso   1.000  C
  H21      1.0000 0.64080  0.77880  0.96500  Biso   1.000  H
  C14      1.0000 0.61469  0.86322  0.04757  Biso   1.000  C
  H22      1.0000 0.58530  0.92090  0.00800  Biso   1.000  H
  O3       1.0000 0.19910  0.54169  0.04097  Biso   1.000  O
  C15      1.0000 0.10753  0.56853  0.08914  Biso   1.000  C
  O4       1.0000 0.02987  0.55862  0.08246  Biso   1.000  O
  C16      1.0000 0.09274  0.61697  0.16194  Biso   1.000  C
  C17      1.0000 0.01219  0.69466  0.17849  Biso   1.000  C
  H23      1.0000 0.96220  0.71400  0.14790  Biso   1.000  H
  C18      1.0000 0.00504  0.74391  0.23993  Biso   1.000  C
  H24      1.0000 0.95140  0.79840  0.24920  Biso   1.000  H
  C19      1.0000 0.07584  0.71422  0.28813  Biso   1.000  C
  C20      1.0000 0.15334  0.63315  0.27500  Biso   1.000  C
  H25      1.0000 0.19980  0.61000  0.31020  Biso   1.000  H
  C21      1.0000 0.16284  0.58632  0.21096  Biso   1.000  C
  H26      1.0000 0.21750  0.53290  0.20040  Biso   1.000  H
  C22      1.0000 0.07360  0.77040  0.34800  Biso   1.000  C
  C23      1.0000 0.06146  0.87092  0.31164  Biso   1.000  C
  H27      1.0000 0.04830  0.90280  0.25180  Biso   1.000  H
  C24      1.0000 0.06830  0.92585  0.36159  Biso   1.000  C
  C25      1.0000 0.08578  0.87851  0.45038  Biso   1.000  C
  H28      1.0000 0.08970  0.91520  0.48540  Biso   1.000  H
  C26      1.0000 0.09758  0.77754  0.48840  Biso   1.000  C
  C27      1.0000 0.09167  0.72463  0.43634  Biso   1.000  C
  H29      1.0000 0.10010  0.65610  0.46160  Biso   1.000  H
  C28      1.0000 0.12157  0.72403  0.57990  Biso   1.000  C
  C29      1.0000 0.07722  0.64498  0.64449  Biso   1.000  C
  H30      1.0000 0.02740  0.62930  0.63210  Biso   1.000  H
  C30      1.0000 0.10464  0.58898  0.72635  Biso   1.000  C
  H31      1.0000 0.07300  0.53600  0.77010  Biso   1.000  H
  C31      1.0000 0.17889  0.61060  0.74448  Biso   1.000  C
  C32      1.0000 0.22264  0.69013  0.68132  Biso   1.000  C
  H32      1.0000 0.27290  0.70550  0.69350  Biso   1.000  H
  C33      1.0000 0.19306  0.74699  0.60064  Biso   1.000  C
  H33      1.0000 0.22180  0.80220  0.55900  Biso   1.000  H
  C34      1.0000 0.21059  0.54630  0.82983  Biso   1.000  C
  O5       1.0000 0.15237  0.49167  0.89884  Biso   1.000  O
  O6       1.0000 0.29652  0.54042  0.83439  Biso   1.000  O
  C35      1.0000 0.06634  0.03093  0.31229  Biso   1.000  C
  C36      1.0000 0.13258  0.07645  0.31521  Biso   1.000  C
  H34      1.0000 0.17040  0.04380  0.35890  Biso   1.000  H
  C37      1.0000 0.14377  0.16889  0.25496  Biso   1.000  C
  H35      1.0000 0.19090  0.19840  0.25610  Biso   1.000  H
  C38      1.0000 0.08660  0.21901  0.19276  Biso   1.000  C
  C39      1.0000 0.01503  0.17698  0.19452  Biso   1.000  C
  H36      1.0000 0.97240  0.21230  0.15560  Biso   1.000  H
  C40      1.0000 0.00573  0.08363  0.25301  Biso   1.000  C
  H37      1.0000 0.95740  0.05490  0.25290  Biso   1.000  H
  C41      1.0000 0.10384  0.31567  0.12138  Biso   1.000  C
  O7       1.0000 0.18199  0.34264  0.10957  Biso   1.000  O
  O8       1.0000 0.04096  0.36126  0.07695  Biso   1.000  O
  H38      1.0000 0.53010  0.99650  0.13550  Biso   1.000  H
  O9       1.0000 0.54430  0.93730  0.25850  Biso   1.000  O
  H39      1.0000 0.50180  0.90200  0.27960  Biso   1.000  H
  C42      1.0000 0.30370  0.81045  0.89850  Biso   1.000  C
  Co2      1.0000 0.74624  0.56890  0.02014  Biso   1.000  Co
  O10      1.0000 0.50260  0.98692  0.86080  Biso   1.000  O
  H40      1.0000 0.55110  0.01620  0.82920  Biso   1.000  H
  B11      1.0000 0.36630  0.89807  0.81150  Biso   1.000  B
  H41      1.0000 0.43960  0.88380  0.75260  Biso   1.000  H
  B12      1.0000 0.25017  0.88862  0.81074  Biso   1.000  B
  H42      1.0000 0.24610  0.86790  0.75170  Biso   1.000  H
  B13      1.0000 0.17336  0.84850  0.93345  Biso   1.000  B
  H43      1.0000 0.11860  0.80110  0.95520  Biso   1.000  H
  B14      1.0000 0.24264  0.83331  0.00926  Biso   1.000  B
  H44      1.0000 0.23390  0.77570  0.08060  Biso   1.000  H
  B15      1.0000 0.36094  0.86580  0.93378  Biso   1.000  B
  H45      1.0000 0.43100  0.83070  0.95540  Biso   1.000  H
  B16      1.0000 0.27125  0.00376  0.79204  Biso   1.000  B
  H46      1.0000 0.28190  0.06070  0.72020  Biso   1.000  H
  B17      1.0000 0.15175  0.97279  0.86718  Biso   1.000  B
  H47      1.0000 0.08220  0.00890  0.84470  Biso   1.000  H
  B18      1.0000 0.14606  0.93819  0.99092  Biso   1.000  B
  H48      1.0000 0.07300  0.95090  0.05060  Biso   1.000  H
  B19      1.0000 0.26333  0.94888  0.99048  Biso   1.000  B
  H49      1.0000 0.26860  0.96950  0.04900  Biso   1.000  H
  C43      1.0000 0.33449  0.98416  0.87004  Biso   1.000  C
  B20      1.0000 0.20602  0.03451  0.90318  Biso   1.000  B
  H50      1.0000 0.17300  0.11160  0.90460  Biso   1.000  H
  C44      1.0000 0.34639  0.70275  0.89790  Biso   1.000  C
  H51      1.0000 0.29340  0.66400  0.94470  Biso   1.000  H
  O11      1.0000 0.36859  0.69702  0.80390  Biso   1.000  O
  H52      1.0000 0.34810  0.64960  0.80810  Biso   1.000  H
  C45      1.0000 0.44123  0.66115  0.92789  Biso   1.000  C
  C46      1.0000 0.53702  0.66471  0.85881  Biso   1.000  C
  H53      1.0000 0.54470  0.68790  0.79170  Biso   1.000  H
  C47      1.0000 0.62095  0.63419  0.88883  Biso   1.000  C
  H54      1.0000 0.68600  0.63790  0.84100  Biso   1.000  H
  N3       1.0000 0.61481  0.59935  0.98295  Biso   1.000  N
  C48      1.0000 0.52301  0.59092  0.04902  Biso   1.000  C
  H55      1.0000 0.51800  0.56330  0.11550  Biso   1.000  H
  C49      1.0000 0.43478  0.62054  0.02510  Biso   1.000  C
  H56      1.0000 0.37100  0.61330  0.07420  Biso   1.000  H
  C50      1.0000 0.41513  0.04524  0.83598  Biso   1.000  C
  H57      1.0000 0.43680  0.06760  0.76350  Biso   1.000  H
  C51      1.0000 0.37560  0.13601  0.86927  Biso   1.000  C
  C52      1.0000 0.33210  0.22251  0.81453  Biso   1.000  C
  H58      1.0000 0.32420  0.22520  0.75670  Biso   1.000  H
  C53      1.0000 0.30019  0.30495  0.84479  Biso   1.000  C
  H59      1.0000 0.27020  0.36350  0.80660  Biso   1.000  H
  N4       1.0000 0.30957  0.30628  0.92525  Biso   1.000  N
  C54      1.0000 0.35187  0.22207  0.97751  Biso   1.000  C
  H60      1.0000 0.35920  0.22120  0.03500  Biso   1.000  H
  C55      1.0000 0.38531  0.13678  0.95243  Biso   1.000  C
  H61      1.0000 0.41470  0.07910  0.99200  Biso   1.000  H
  O12      1.0000 0.80090  0.45831  0.95903  Biso   1.000  O
  C56      1.0000 0.89247  0.43147  0.91086  Biso   1.000  C
  O13      1.0000 0.97013  0.44138  0.91754  Biso   1.000  O
  C57      1.0000 0.90726  0.38303  0.83806  Biso   1.000  C
  C58      1.0000 0.98781  0.30534  0.82151  Biso   1.000  C
  H62      1.0000 0.03780  0.28600  0.85210  Biso   1.000  H
  C59      1.0000 0.99496  0.25609  0.76007  Biso   1.000  C
  H63      1.0000 0.04860  0.20160  0.75080  Biso   1.000  H
  C60      1.0000 0.92416  0.28578  0.71187  Biso   1.000  C
  C61      1.0000 0.84666  0.36685  0.72500  Biso   1.000  C
  H64      1.0000 0.80020  0.39000  0.68980  Biso   1.000  H
  C62      1.0000 0.83716  0.41368  0.78904  Biso   1.000  C
  H65      1.0000 0.78250  0.46710  0.79960  Biso   1.000  H
  C63      1.0000 0.92640  0.22960  0.65200  Biso   1.000  C
  C64      1.0000 0.93854  0.12908  0.68836  Biso   1.000  C
  H66      1.0000 0.95170  0.09720  0.74820  Biso   1.000  H
  C65      1.0000 0.93170  0.07415  0.63841  Biso   1.000  C
  C66      1.0000 0.91422  0.12149  0.54962  Biso   1.000  C
  H67      1.0000 0.91030  0.08480  0.51460  Biso   1.000  H
  C67      1.0000 0.90242  0.22246  0.51160  Biso   1.000  C
  C68      1.0000 0.90833  0.27537  0.56366  Biso   1.000  C
  H68      1.0000 0.89990  0.34390  0.53840  Biso   1.000  H
  C69      1.0000 0.87843  0.27597  0.42010  Biso   1.000  C
  C70      1.0000 0.92278  0.35502  0.35551  Biso   1.000  C
  H69      1.0000 0.97260  0.37070  0.36790  Biso   1.000  H
  C71      1.0000 0.89536  0.41102  0.27365  Biso   1.000  C
  H70      1.0000 0.92700  0.46400  0.22990  Biso   1.000  H
  C72      1.0000 0.82111  0.38940  0.25552  Biso   1.000  C
  C73      1.0000 0.77736  0.30987  0.31868  Biso   1.000  C
  H71      1.0000 0.72710  0.29450  0.30650  Biso   1.000  H
  C74      1.0000 0.80694  0.25301  0.39936  Biso   1.000  C
  H72      1.0000 0.77820  0.19780  0.44100  Biso   1.000  H
  C75      1.0000 0.78941  0.45370  0.17017  Biso   1.000  C
  O14      1.0000 0.84763  0.50833  0.10116  Biso   1.000  O
  O15      1.0000 0.70348  0.45958  0.16561  Biso   1.000  O
  C76      1.0000 0.93366  0.96907  0.68771  Biso   1.000  C
  C77      1.0000 0.86742  0.92355  0.68479  Biso   1.000  C
  H73      1.0000 0.82960  0.95620  0.64110  Biso   1.000  H
  C78      1.0000 0.85623  0.83111  0.74504  Biso   1.000  C
  H74      1.0000 0.80910  0.80160  0.74390  Biso   1.000  H
  C79      1.0000 0.91340  0.78099  0.80724  Biso   1.000  C
  C80      1.0000 0.98497  0.82302  0.80548  Biso   1.000  C
  H75      1.0000 0.02760  0.78770  0.84440  Biso   1.000  H
  C81      1.0000 0.99427  0.91637  0.74699  Biso   1.000  C
  H76      1.0000 0.04260  0.94510  0.74710  Biso   1.000  H
  C82      1.0000 0.89616  0.68433  0.87862  Biso   1.000  C
  O16      1.0000 0.81801  0.65736  0.89043  Biso   1.000  O
  O17      1.0000 0.95904  0.63874  0.92305  Biso   1.000  O
  H77      1.0000 0.46990  0.00350  0.86450  Biso   1.000  H
  O18      1.0000 0.45570  0.06270  0.74150  Biso   1.000  O
  H78      1.0000 0.49820  0.09800  0.72040  Biso   1.000  H
  Co3      1.0000 0.00000  0.50000  0.00000  Biso   1.000  Co
