data_image0
_cell_length_a       14.7141
_cell_length_b       15.3016
_cell_length_c       15.8557
_cell_angle_alpha    67.095
_cell_angle_beta     66.061
_cell_angle_gamma    70.802

_symmetry_space_group_name_H-M    "P 1"
_symmetry_int_tables_number       1

loop_
  _symmetry_equiv_pos_as_xyz
  'x, y, z'

loop_
  _atom_site_label
  _atom_site_occupancy
  _atom_site_fract_x
  _atom_site_fract_y
  _atom_site_fract_z
  _atom_site_thermal_displace_type
  _atom_site_B_iso_or_equiv
  _atom_site_type_symbol
  Co1      1.0000 0.25454  0.93032  0.98084  Biso   1.000  Co
  O1       1.0000 0.18356  0.84139  0.10991  Biso   1.000  O
  O2       1.0000 0.04059  0.86127  0.07908  Biso   1.000  O
  O3       1.0000 0.29624  0.03958  0.83570  Biso   1.000  O
  O4       1.0000 0.15207  0.99056  0.90020  Biso   1.000  O
  O5       1.0000 0.20005  0.04014  0.04226  Biso   1.000  O
  O6       1.0000 0.03050  0.05930  0.08087  Biso   1.000  O
  O7       1.0000 0.63917  0.80173  0.19011  Biso   1.000  O
  H1       1.0000 0.65570  0.85210  0.18370  Biso   1.000  H
  C1       1.0000 0.10502  0.81437  0.12222  Biso   1.000  C
  N1       1.0000 0.68943  0.19397  0.07381  Biso   1.000  N
  N2       1.0000 0.38711  0.90070  0.01609  Biso   1.000  N
  C2       1.0000 0.17850  0.10905  0.74507  Biso   1.000  C
  C3       1.0000 0.20998  0.04507  0.83146  Biso   1.000  C
  C4       1.0000 0.09331  0.11518  0.16191  Biso   1.000  C
  C5       1.0000 0.22343  0.18754  0.68104  Biso   1.000  C
  H2       1.0000 0.27400  0.20260  0.69290  Biso   1.000  H
  C6       1.0000 0.12230  0.22103  0.57942  Biso   1.000  C
  C7       1.0000 0.07681  0.21145  0.28784  Biso   1.000  C
  C8       1.0000 0.16131  0.08188  0.21409  Biso   1.000  C
  H3       1.0000 0.21420  0.02690  0.20610  Biso   1.000  H
  C9       1.0000 0.10848  0.06749  0.08902  Biso   1.000  C
  C10      1.0000 0.10370  0.08745  0.72776  Biso   1.000  C
  H4       1.0000 0.07140  0.03520  0.77230  Biso   1.000  H
  C11      1.0000 0.01454  0.19443  0.17582  Biso   1.000  C
  H5       1.0000 0.96570  0.21530  0.14350  Biso   1.000  H
  C12      1.0000 0.07519  0.26748  0.34670  Biso   1.000  C
  C13      1.0000 0.15204  0.12867  0.27748  Biso   1.000  C
  H6       1.0000 0.19730  0.10410  0.31420  Biso   1.000  H
  C14      1.0000 0.07668  0.14268  0.64519  Biso   1.000  C
  H7       1.0000 0.02660  0.12710  0.63310  Biso   1.000  H
  C15      1.0000 0.56295  0.83692  0.06889  Biso   1.000  C
  C16      1.0000 0.08901  0.71679  0.19220  Biso   1.000  C
  C17      1.0000 0.09202  0.22137  0.43593  Biso   1.000  C
  H8       1.0000 0.09870  0.15310  0.46230  Biso   1.000  H
  C18      1.0000 0.00739  0.24306  0.23711  Biso   1.000  C
  H9       1.0000 0.95480  0.29840  0.24460  Biso   1.000  H
  C19      1.0000 0.56767  0.87930  0.97246  Biso   1.000  C
  H10      1.0000 0.63090  0.88710  0.92310  Biso   1.000  H
  C20      1.0000 0.46790  0.83255  0.13863  Biso   1.000  C
  H11      1.0000 0.46160  0.80820  0.20530  Biso   1.000  H
  C21      1.0000 0.09922  0.27427  0.48714  Biso   1.000  C
  C22      1.0000 0.07208  0.42226  0.35874  Biso   1.000  C
  C23      1.0000 0.38266  0.86409  0.10985  Biso   1.000  C
  H12      1.0000 0.31820  0.85990  0.15810  Biso   1.000  H
  C24      1.0000 0.08895  0.37493  0.44799  Biso   1.000  C
  H13      1.0000 0.09350  0.41140  0.48230  Biso   1.000  H
  C25      1.0000 0.47856  0.90999  0.94962  Biso   1.000  C
  H14      1.0000 0.48240  0.93910  0.88360  Biso   1.000  H
  C26      1.0000 0.06472  0.36789  0.30917  Biso   1.000  C
  H15      1.0000 0.05240  0.39990  0.24900  Biso   1.000  H
  C27      1.0000 0.69879  0.68596  0.10066  Biso   1.000  C
  C28      1.0000 0.01546  0.67592  0.19567  Biso   1.000  C
  H16      1.0000 0.97070  0.71260  0.15890  Biso   1.000  H
  C29      1.0000 0.65885  0.79414  0.09798  Biso   1.000  C
  H17      1.0000 0.71250  0.83150  0.04980  Biso   1.000  H
  C30      1.0000 0.07073  0.52735  0.30980  Biso   1.000  C
  C31      1.0000 0.14970  0.66481  0.25105  Biso   1.000  C
  H18      1.0000 0.19860  0.69330  0.25040  Biso   1.000  H
  C32      1.0000 0.62240  0.36237  0.13150  Biso   1.000  C
  C33      1.0000 0.00754  0.58186  0.25262  Biso   1.000  C
  H19      1.0000 0.95860  0.55380  0.25300  Biso   1.000  H
  C34      1.0000 0.19413  0.24402  0.59939  Biso   1.000  C
  H20      1.0000 0.22340  0.29870  0.55700  Biso   1.000  H
  C35      1.0000 0.64710  0.27874  0.02170  Biso   1.000  C
  H21      1.0000 0.63950  0.28050  0.96430  Biso   1.000  H
  C36      1.0000 0.13940  0.57135  0.31092  Biso   1.000  C
  H22      1.0000 0.17940  0.53740  0.35270  Biso   1.000  H
  C37      1.0000 0.61380  0.36366  0.04700  Biso   1.000  C
  H23      1.0000 0.58550  0.42210  0.00700  Biso   1.000  H
  C38      1.0000 0.66521  0.51309  0.13119  Biso   1.000  C
  C39      1.0000 0.69740  0.19347  0.15580  Biso   1.000  C
  H24      1.0000 0.72680  0.13440  0.19410  Biso   1.000  H
  C40      1.0000 0.66480  0.27510  0.18670  Biso   1.000  C
  H25      1.0000 0.67140  0.27130  0.24530  Biso   1.000  H
  C41      1.0000 0.58380  0.45253  0.16510  Biso   1.000  C
  H26      1.0000 0.56340  0.42900  0.23730  Biso   1.000  H
  O8       1.0000 0.49480  0.51150  0.14200  Biso   1.000  O
  H27      1.0000 0.44520  0.48460  0.17830  Biso   1.000  H
  B1       1.0000 0.63350  0.59989  0.18850  Biso   1.000  B
  H28      1.0000 0.56000  0.61540  0.24590  Biso   1.000  H
  B2       1.0000 0.76020  0.66150  0.99160  Biso   1.000  B
  H29      1.0000 0.77020  0.71840  0.91970  Biso   1.000  H
  B3       1.0000 0.64070  0.63101  0.06560  Biso   1.000  B
  H30      1.0000 0.57130  0.66660  0.04260  Biso   1.000  H
  B4       1.0000 0.74960  0.60795  0.19090  Biso   1.000  B
  H31      1.0000 0.75310  0.62900  0.24950  Biso   1.000  H
  B5       1.0000 0.72670  0.49350  0.21070  Biso   1.000  B
  H32      1.0000 0.71440  0.43740  0.28310  Biso   1.000  H
  B6       1.0000 0.84770  0.52230  0.13700  Biso   1.000  B
  H33      1.0000 0.91650  0.48560  0.16090  Biso   1.000  H
  B7       1.0000 0.82850  0.64590  0.06910  Biso   1.000  B
  H34      1.0000 0.88410  0.69210  0.04800  Biso   1.000  H
  B8       1.0000 0.73830  0.54660  0.01170  Biso   1.000  B
  H35      1.0000 0.73380  0.52560  0.95340  Biso   1.000  H
  B9       1.0000 0.79260  0.46130  0.10120  Biso   1.000  B
  H36      1.0000 0.82430  0.38380  0.10160  Biso   1.000  H
  B10      1.0000 0.85510  0.55610  0.01310  Biso   1.000  B
  H37      1.0000 0.92840  0.54240  0.95490  Biso   1.000  H
  H38      1.0000 0.52800  0.49490  0.13790  Biso   1.000  H
  O9       1.0000 0.54630  0.43130  0.25790  Biso   1.000  O
  H39      1.0000 0.48990  0.41610  0.27620  Biso   1.000  H
  Co2      1.0000 0.74546  0.06968  0.01916  Biso   1.000  Co
  O10      1.0000 0.81644  0.15861  0.89009  Biso   1.000  O
  O11      1.0000 0.95941  0.13873  0.92092  Biso   1.000  O
  O12      1.0000 0.70376  0.96042  0.16430  Biso   1.000  O
  O13      1.0000 0.84793  0.00944  0.09980  Biso   1.000  O
  O14      1.0000 0.79995  0.95986  0.95774  Biso   1.000  O
  O15      1.0000 0.96950  0.94070  0.91913  Biso   1.000  O
  O16      1.0000 0.36083  0.19827  0.80989  Biso   1.000  O
  H40      1.0000 0.34430  0.14790  0.81630  Biso   1.000  H
  C42      1.0000 0.89498  0.18563  0.87778  Biso   1.000  C
  N3       1.0000 0.31057  0.80603  0.92619  Biso   1.000  N
  N4       1.0000 0.61289  0.09930  0.98391  Biso   1.000  N
  C43      1.0000 0.82150  0.89095  0.25493  Biso   1.000  C
  C44      1.0000 0.79002  0.95493  0.16854  Biso   1.000  C
  C45      1.0000 0.90669  0.88482  0.83809  Biso   1.000  C
  C46      1.0000 0.77657  0.81246  0.31896  Biso   1.000  C
  H41      1.0000 0.72600  0.79740  0.30710  Biso   1.000  H
  C47      1.0000 0.87770  0.77897  0.42058  Biso   1.000  C
  C48      1.0000 0.92319  0.78855  0.71216  Biso   1.000  C
  C49      1.0000 0.83869  0.91812  0.78591  Biso   1.000  C
  H42      1.0000 0.78580  0.97310  0.79390  Biso   1.000  H
  C50      1.0000 0.89152  0.93251  0.91098  Biso   1.000  C
  C51      1.0000 0.89630  0.91255  0.27224  Biso   1.000  C
  H43      1.0000 0.92860  0.96480  0.22770  Biso   1.000  H
  C52      1.0000 0.98546  0.80557  0.82418  Biso   1.000  C
  H44      1.0000 0.03430  0.78470  0.85650  Biso   1.000  H
  C53      1.0000 0.92481  0.73252  0.65330  Biso   1.000  C
  C54      1.0000 0.84796  0.87133  0.72252  Biso   1.000  C
  H45      1.0000 0.80270  0.89590  0.68580  Biso   1.000  H
  C55      1.0000 0.92332  0.85732  0.35481  Biso   1.000  C
  H46      1.0000 0.97340  0.87290  0.36690  Biso   1.000  H
  C56      1.0000 0.43705  0.16308  0.93111  Biso   1.000  C
  C57      1.0000 0.91099  0.28321  0.80780  Biso   1.000  C
  C58      1.0000 0.90798  0.77863  0.56407  Biso   1.000  C
  H47      1.0000 0.90130  0.84690  0.53770  Biso   1.000  H
  C59      1.0000 0.99261  0.75694  0.76289  Biso   1.000  C
  H48      1.0000 0.04520  0.70160  0.75540  Biso   1.000  H
  C60      1.0000 0.43233  0.12070  0.02754  Biso   1.000  C
  H49      1.0000 0.36910  0.11290  0.07690  Biso   1.000  H
  C61      1.0000 0.53210  0.16745  0.86137  Biso   1.000  C
  H50      1.0000 0.53840  0.19180  0.79470  Biso   1.000  H
  C62      1.0000 0.90078  0.72573  0.51286  Biso   1.000  C
  C63      1.0000 0.92792  0.57774  0.64126  Biso   1.000  C
  C64      1.0000 0.61734  0.13591  0.89015  Biso   1.000  C
  H51      1.0000 0.68180  0.14010  0.84190  Biso   1.000  H
  C65      1.0000 0.91105  0.62507  0.55201  Biso   1.000  C
  H52      1.0000 0.90650  0.58860  0.51770  Biso   1.000  H
  C66      1.0000 0.52144  0.09001  0.05038  Biso   1.000  C
  H53      1.0000 0.51760  0.06090  0.11640  Biso   1.000  H
  C67      1.0000 0.93528  0.63211  0.69083  Biso   1.000  C
  H54      1.0000 0.94760  0.60010  0.75100  Biso   1.000  H
  C68      1.0000 0.30121  0.31404  0.89934  Biso   1.000  C
  C69      1.0000 0.98454  0.32408  0.80433  Biso   1.000  C
  H55      1.0000 0.02930  0.28740  0.84110  Biso   1.000  H
  C70      1.0000 0.34115  0.20586  0.90202  Biso   1.000  C
  H56      1.0000 0.28750  0.16850  0.95020  Biso   1.000  H
  C71      1.0000 0.92927  0.47265  0.69020  Biso   1.000  C
  C72      1.0000 0.85030  0.33519  0.74895  Biso   1.000  C
  H57      1.0000 0.80140  0.30670  0.74960  Biso   1.000  H
  C73      1.0000 0.37760  0.63763  0.86850  Biso   1.000  C
  C74      1.0000 0.99246  0.41814  0.74738  Biso   1.000  C
  H58      1.0000 0.04140  0.44620  0.74700  Biso   1.000  H
  C75      1.0000 0.80587  0.75598  0.40061  Biso   1.000  C
  H59      1.0000 0.77660  0.70130  0.44300  Biso   1.000  H
  C76      1.0000 0.35290  0.72126  0.97830  Biso   1.000  C
  H60      1.0000 0.36050  0.71950  0.03570  Biso   1.000  H
  C77      1.0000 0.86060  0.42865  0.68908  Biso   1.000  C
  H61      1.0000 0.82060  0.46260  0.64730  Biso   1.000  H
  C78      1.0000 0.38620  0.63634  0.95300  Biso   1.000  C
  H62      1.0000 0.41450  0.57790  0.99300  Biso   1.000  H
  C79      1.0000 0.33479  0.48691  0.86881  Biso   1.000  C
  C80      1.0000 0.30260  0.80653  0.84420  Biso   1.000  C
  H63      1.0000 0.27320  0.86560  0.80590  Biso   1.000  H
  C81      1.0000 0.33520  0.72490  0.81330  Biso   1.000  C
  H64      1.0000 0.32860  0.72870  0.75470  Biso   1.000  H
  C82      1.0000 0.41620  0.54747  0.83490  Biso   1.000  C
  H65      1.0000 0.43660  0.57100  0.76270  Biso   1.000  H
  O17      1.0000 0.50520  0.48850  0.85800  Biso   1.000  O
  H66      1.0000 0.55480  0.51540  0.82170  Biso   1.000  H
  B11      1.0000 0.36650  0.40011  0.81150  Biso   1.000  B
  H67      1.0000 0.44000  0.38460  0.75410  Biso   1.000  H
  B12      1.0000 0.23980  0.33850  0.00840  Biso   1.000  B
  H68      1.0000 0.22980  0.28160  0.08030  Biso   1.000  H
  B13      1.0000 0.35930  0.36899  0.93440  Biso   1.000  B
  H69      1.0000 0.42870  0.33340  0.95740  Biso   1.000  H
  B14      1.0000 0.25040  0.39205  0.80910  Biso   1.000  B
  H70      1.0000 0.24690  0.37100  0.75050  Biso   1.000  H
  B15      1.0000 0.27330  0.50650  0.78930  Biso   1.000  B
  H71      1.0000 0.28560  0.56260  0.71690  Biso   1.000  H
  B16      1.0000 0.15230  0.47770  0.86300  Biso   1.000  B
  H72      1.0000 0.08350  0.51440  0.83910  Biso   1.000  H
  B17      1.0000 0.17150  0.35410  0.93090  Biso   1.000  B
  H73      1.0000 0.11590  0.30790  0.95200  Biso   1.000  H
  B18      1.0000 0.26170  0.45340  0.98830  Biso   1.000  B
  H74      1.0000 0.26620  0.47440  0.04660  Biso   1.000  H
  B19      1.0000 0.20740  0.53870  0.89880  Biso   1.000  B
  H75      1.0000 0.17570  0.61620  0.89840  Biso   1.000  H
  B20      1.0000 0.14490  0.44390  0.98690  Biso   1.000  B
  H76      1.0000 0.07160  0.45760  0.04510  Biso   1.000  H
  H77      1.0000 0.47200  0.50510  0.86210  Biso   1.000  H
  O18      1.0000 0.45370  0.56870  0.74210  Biso   1.000  O
  H78      1.0000 0.51010  0.58390  0.72380  Biso   1.000  H
  Co3      1.0000 0.00000  0.00000  0.00000  Biso   1.000  Co
