data_image0
_cell_length_a       14.703
_cell_length_b       15.2876
_cell_length_c       15.7014
_cell_angle_alpha    67.499
_cell_angle_beta     64.547
_cell_angle_gamma    69.969

_symmetry_space_group_name_H-M    "P 1"
_symmetry_int_tables_number       1

loop_
  _symmetry_equiv_pos_as_xyz
  'x, y, z'

loop_
  _atom_site_label
  _atom_site_occupancy
  _atom_site_fract_x
  _atom_site_fract_y
  _atom_site_fract_z
  _atom_site_thermal_displace_type
  _atom_site_B_iso_or_equiv
  _atom_site_type_symbol
  Co1      1.0000 0.74141  0.07227  0.02417  Biso   1.000  Co
  O1       1.0000 0.84474  0.01259  0.10238  Biso   1.000  O
  O2       1.0000 0.96004  0.13849  0.92080  Biso   1.000  O
  O3       1.0000 0.70091  0.96153  0.17003  Biso   1.000  O
  O4       1.0000 0.79898  0.96172  0.96066  Biso   1.000  O
  O5       1.0000 0.97053  0.93991  0.91932  Biso   1.000  O
  O6       1.0000 0.81451  0.16121  0.89436  Biso   1.000  O
  N1       1.0000 0.32060  0.80507  0.91538  Biso   1.000  N
  N2       1.0000 0.61041  0.10311  0.98695  Biso   1.000  N
  C1       1.0000 0.78760  0.95710  0.17176  Biso   1.000  C
  O7       1.0000 0.36770  0.19393  0.80610  Biso   1.000  O
  H1       1.0000 0.34540  0.14690  0.81310  Biso   1.000  H
  C2       1.0000 0.88150  0.77798  0.41917  Biso   1.000  C
  C3       1.0000 0.92310  0.85960  0.35493  Biso   1.000  C
  H2       1.0000 0.97210  0.87630  0.36710  Biso   1.000  H
  C4       1.0000 0.89510  0.18646  0.87915  Biso   1.000  C
  C5       1.0000 0.89190  0.93243  0.91243  Biso   1.000  C
  C6       1.0000 0.90880  0.88374  0.83856  Biso   1.000  C
  C7       1.0000 0.89370  0.91569  0.27454  Biso   1.000  C
  H3       1.0000 0.92290  0.97020  0.23130  Biso   1.000  H
  C8       1.0000 0.91170  0.28318  0.80763  Biso   1.000  C
  C9       1.0000 0.90710  0.72331  0.51005  Biso   1.000  C
  C10      1.0000 0.91620  0.62318  0.54898  Biso   1.000  C
  H4       1.0000 0.91090  0.58710  0.51430  Biso   1.000  H
  C11      1.0000 0.98600  0.32339  0.80340  Biso   1.000  C
  H5       1.0000 0.02980  0.28680  0.84090  Biso   1.000  H
  C12      1.0000 0.91450  0.77584  0.56203  Biso   1.000  C
  H6       1.0000 0.90770  0.84410  0.53630  Biso   1.000  H
  C13      1.0000 0.83990  0.91614  0.78849  Biso   1.000  C
  H7       1.0000 0.78520  0.97090  0.79850  Biso   1.000  H
  C14      1.0000 0.85120  0.86831  0.72374  Biso   1.000  C
  H8       1.0000 0.80570  0.89220  0.68760  Biso   1.000  H
  C15      1.0000 0.94090  0.62957  0.68820  Biso   1.000  C
  H9       1.0000 0.95280  0.59760  0.74870  Biso   1.000  H
  C16      1.0000 0.35680  0.71900  0.97020  Biso   1.000  C
  H10      1.0000 0.36010  0.71650  0.03020  Biso   1.000  H
  C17      1.0000 0.93170  0.72940  0.65086  Biso   1.000  C
  C18      1.0000 0.82100  0.89219  0.25685  Biso   1.000  C
  C19      1.0000 0.61890  0.13590  0.89160  Biso   1.000  C
  H11      1.0000 0.68550  0.13820  0.84320  Biso   1.000  H
  C20      1.0000 0.81170  0.75350  0.39873  Biso   1.000  C
  H12      1.0000 0.78500  0.69720  0.43990  Biso   1.000  H
  C21      1.0000 0.93290  0.47069  0.68873  Biso   1.000  C
  C22      1.0000 0.99800  0.75440  0.76080  Biso   1.000  C
  H13      1.0000 0.05170  0.69870  0.75230  Biso   1.000  H
  C23      1.0000 0.78060  0.81080  0.31850  Biso   1.000  C
  H14      1.0000 0.73180  0.79420  0.30600  Biso   1.000  H
  C24      1.0000 0.98920  0.80420  0.82280  Biso   1.000  C
  H15      1.0000 0.03830  0.78380  0.85440  Biso   1.000  H
  C25      1.0000 0.99620  0.41640  0.74480  Biso   1.000  C
  H16      1.0000 0.04660  0.44350  0.74280  Biso   1.000  H
  C26      1.0000 0.92870  0.78563  0.71139  Biso   1.000  C
  C27      1.0000 0.85160  0.33510  0.74880  Biso   1.000  C
  H17      1.0000 0.80250  0.30720  0.74960  Biso   1.000  H
  C28      1.0000 0.38950  0.63380  0.94400  Biso   1.000  C
  H18      1.0000 0.41350  0.57460  0.98600  Biso   1.000  H
  C29      1.0000 0.93300  0.57524  0.63856  Biso   1.000  C
  C30      1.0000 0.43870  0.16380  0.93010  Biso   1.000  C
  C31      1.0000 0.42940  0.12500  0.02830  Biso   1.000  C
  H19      1.0000 0.36400  0.11810  0.07760  Biso   1.000  H
  C32      1.0000 0.53570  0.16610  0.86130  Biso   1.000  C
  H20      1.0000 0.54510  0.18840  0.79330  Biso   1.000  H
  C33      1.0000 0.86310  0.42730  0.68900  Biso   1.000  C
  H21      1.0000 0.82290  0.46170  0.64760  Biso   1.000  H
  C34      1.0000 0.30330  0.31430  0.89560  Biso   1.000  C
  C35      1.0000 0.32020  0.80640  0.83000  Biso   1.000  C
  H22      1.0000 0.29720  0.86680  0.78880  Biso   1.000  H
  C36      1.0000 0.34050  0.48680  0.85960  Biso   1.000  C
  C37      1.0000 0.38720  0.63520  0.85560  Biso   1.000  C
  C38      1.0000 0.34400  0.20490  0.89920  Biso   1.000  C
  H23      1.0000 0.28880  0.16890  0.94840  Biso   1.000  H
  C39      1.0000 0.51690  0.09630  0.05360  Biso   1.000  C
  H24      1.0000 0.50990  0.07080  0.12110  Biso   1.000  H
  O8       1.0000 0.51140  0.48140  0.85090  Biso   1.000  O
  H25      1.0000 0.51660  0.49940  0.89260  Biso   1.000  H
  C40      1.0000 0.42440  0.54470  0.82190  Biso   1.000  C
  H26      1.0000 0.44830  0.56500  0.74860  Biso   1.000  H
  C41      1.0000 0.35160  0.72420  0.79830  Biso   1.000  C
  H27      1.0000 0.34860  0.72890  0.73740  Biso   1.000  H
  B1       1.0000 0.37160  0.39640  0.80550  Biso   1.000  B
  H28      1.0000 0.44690  0.37730  0.74760  Biso   1.000  H
  B2       1.0000 0.36180  0.37010  0.92890  Biso   1.000  B
  H29      1.0000 0.43080  0.33420  0.95240  Biso   1.000  H
  B3       1.0000 0.25400  0.39000  0.80520  Biso   1.000  B
  H30      1.0000 0.25070  0.36660  0.74730  Biso   1.000  H
  B4       1.0000 0.23930  0.34300  0.00560  Biso   1.000  B
  H31      1.0000 0.22750  0.28820  0.07920  Biso   1.000  H
  B5       1.0000 0.26350  0.45850  0.98130  Biso   1.000  B
  H32      1.0000 0.26700  0.48200  0.03900  Biso   1.000  H
  B6       1.0000 0.21210  0.54230  0.88960  Biso   1.000  B
  H33      1.0000 0.18170  0.62090  0.88700  Biso   1.000  H
  B7       1.0000 0.27940  0.50350  0.78130  Biso   1.000  B
  H34      1.0000 0.29410  0.55670  0.70670  Biso   1.000  H
  B8       1.0000 0.17130  0.35690  0.92940  Biso   1.000  B
  H35      1.0000 0.11400  0.31180  0.95330  Biso   1.000  H
  B9       1.0000 0.15590  0.48010  0.85660  Biso   1.000  B
  H36      1.0000 0.08780  0.51790  0.83190  Biso   1.000  H
  B10      1.0000 0.14440  0.44990  0.98300  Biso   1.000  B
  H37      1.0000 0.06910  0.46670  0.04200  Biso   1.000  H
  H38      1.0000 0.48390  0.50200  0.84340  Biso   1.000  H
  O9       1.0000 0.45560  0.56930  0.71990  Biso   1.000  O
  H39      1.0000 0.51750  0.54140  0.69800  Biso   1.000  H
  Co2      1.0000 0.25859  0.92773  0.97583  Biso   1.000  Co
  O10      1.0000 0.15526  0.98741  0.89762  Biso   1.000  O
  O11      1.0000 0.03996  0.86151  0.07920  Biso   1.000  O
  O12      1.0000 0.29909  0.03847  0.82997  Biso   1.000  O
  O13      1.0000 0.20102  0.03828  0.03934  Biso   1.000  O
  O14      1.0000 0.02947  0.06009  0.08068  Biso   1.000  O
  O15      1.0000 0.18549  0.83879  0.10564  Biso   1.000  O
  N3       1.0000 0.67940  0.19493  0.08462  Biso   1.000  N
  N4       1.0000 0.38959  0.89689  0.01305  Biso   1.000  N
  C42      1.0000 0.21240  0.04290  0.82824  Biso   1.000  C
  O16      1.0000 0.63230  0.80607  0.19390  Biso   1.000  O
  H40      1.0000 0.65460  0.85310  0.18690  Biso   1.000  H
  C43      1.0000 0.11850  0.22202  0.58083  Biso   1.000  C
  C44      1.0000 0.07690  0.14040  0.64507  Biso   1.000  C
  H41      1.0000 0.02790  0.12370  0.63290  Biso   1.000  H
  C45      1.0000 0.10490  0.81354  0.12085  Biso   1.000  C
  C46      1.0000 0.10810  0.06757  0.08757  Biso   1.000  C
  C47      1.0000 0.09120  0.11626  0.16144  Biso   1.000  C
  C48      1.0000 0.10630  0.08431  0.72546  Biso   1.000  C
  H42      1.0000 0.07710  0.02980  0.76870  Biso   1.000  H
  C49      1.0000 0.08830  0.71682  0.19237  Biso   1.000  C
  C50      1.0000 0.09290  0.27669  0.48995  Biso   1.000  C
  C51      1.0000 0.08380  0.37682  0.45102  Biso   1.000  C
  H43      1.0000 0.08910  0.41290  0.48570  Biso   1.000  H
  C52      1.0000 0.01400  0.67661  0.19660  Biso   1.000  C
  H44      1.0000 0.97020  0.71320  0.15910  Biso   1.000  H
  C53      1.0000 0.08550  0.22416  0.43797  Biso   1.000  C
  H45      1.0000 0.09230  0.15590  0.46370  Biso   1.000  H
  C54      1.0000 0.16010  0.08386  0.21151  Biso   1.000  C
  H46      1.0000 0.21480  0.02910  0.20150  Biso   1.000  H
  C55      1.0000 0.14880  0.13169  0.27626  Biso   1.000  C
  H47      1.0000 0.19430  0.10780  0.31240  Biso   1.000  H
  C56      1.0000 0.05910  0.37043  0.31180  Biso   1.000  C
  H48      1.0000 0.04720  0.40240  0.25130  Biso   1.000  H
  C57      1.0000 0.64320  0.28100  0.02980  Biso   1.000  C
  H49      1.0000 0.63990  0.28350  0.96980  Biso   1.000  H
  C58      1.0000 0.06830  0.27060  0.34914  Biso   1.000  C
  C59      1.0000 0.17900  0.10781  0.74315  Biso   1.000  C
  C60      1.0000 0.38110  0.86410  0.10840  Biso   1.000  C
  H50      1.0000 0.31450  0.86180  0.15680  Biso   1.000  H
  C61      1.0000 0.18830  0.24650  0.60127  Biso   1.000  C
  H51      1.0000 0.21500  0.30280  0.56010  Biso   1.000  H
  C62      1.0000 0.06710  0.52931  0.31127  Biso   1.000  C
  C63      1.0000 0.00200  0.24560  0.23920  Biso   1.000  C
  H52      1.0000 0.94830  0.30130  0.24770  Biso   1.000  H
  C64      1.0000 0.21940  0.18920  0.68150  Biso   1.000  C
  H53      1.0000 0.26820  0.20580  0.69400  Biso   1.000  H
  C65      1.0000 0.01080  0.19580  0.17720  Biso   1.000  C
  H54      1.0000 0.96170  0.21620  0.14560  Biso   1.000  H
  C66      1.0000 0.00380  0.58360  0.25520  Biso   1.000  C
  H55      1.0000 0.95340  0.55650  0.25720  Biso   1.000  H
  C67      1.0000 0.07130  0.21437  0.28861  Biso   1.000  C
  C68      1.0000 0.14840  0.66490  0.25120  Biso   1.000  C
  H56      1.0000 0.19750  0.69280  0.25040  Biso   1.000  H
  C69      1.0000 0.61050  0.36620  0.05600  Biso   1.000  C
  H57      1.0000 0.58650  0.42540  0.01400  Biso   1.000  H
  C70      1.0000 0.06700  0.42476  0.36144  Biso   1.000  C
  C71      1.0000 0.56130  0.83620  0.06990  Biso   1.000  C
  C72      1.0000 0.57060  0.87500  0.97170  Biso   1.000  C
  H58      1.0000 0.63600  0.88190  0.92240  Biso   1.000  H
  C73      1.0000 0.46430  0.83390  0.13870  Biso   1.000  C
  H59      1.0000 0.45490  0.81160  0.20670  Biso   1.000  H
  C74      1.0000 0.13690  0.57270  0.31100  Biso   1.000  C
  H60      1.0000 0.17710  0.53830  0.35240  Biso   1.000  H
  C75      1.0000 0.69670  0.68570  0.10440  Biso   1.000  C
  C76      1.0000 0.67980  0.19360  0.17000  Biso   1.000  C
  H61      1.0000 0.70280  0.13320  0.21120  Biso   1.000  H
  C77      1.0000 0.65950  0.51320  0.14040  Biso   1.000  C
  C78      1.0000 0.61280  0.36480  0.14440  Biso   1.000  C
  C79      1.0000 0.65600  0.79510  0.10080  Biso   1.000  C
  H62      1.0000 0.71120  0.83110  0.05160  Biso   1.000  H
  C80      1.0000 0.48310  0.90370  0.94640  Biso   1.000  C
  H63      1.0000 0.49010  0.92920  0.87890  Biso   1.000  H
  O17      1.0000 0.48860  0.51860  0.14910  Biso   1.000  O
  H64      1.0000 0.48340  0.50060  0.10740  Biso   1.000  H
  C81      1.0000 0.57560  0.45530  0.17810  Biso   1.000  C
  H65      1.0000 0.55170  0.43500  0.25140  Biso   1.000  H
  C82      1.0000 0.64840  0.27580  0.20170  Biso   1.000  C
  H66      1.0000 0.65140  0.27110  0.26260  Biso   1.000  H
  B11      1.0000 0.62840  0.60360  0.19450  Biso   1.000  B
  H67      1.0000 0.55310  0.62270  0.25240  Biso   1.000  H
  B12      1.0000 0.63820  0.62990  0.07110  Biso   1.000  B
  H68      1.0000 0.56920  0.66580  0.04760  Biso   1.000  H
  B13      1.0000 0.74600  0.61000  0.19480  Biso   1.000  B
  H69      1.0000 0.74930  0.63340  0.25270  Biso   1.000  H
  B14      1.0000 0.76070  0.65700  0.99440  Biso   1.000  B
  H70      1.0000 0.77250  0.71180  0.92080  Biso   1.000  H
  B15      1.0000 0.73650  0.54150  0.01870  Biso   1.000  B
  H71      1.0000 0.73300  0.51800  0.96100  Biso   1.000  H
  B16      1.0000 0.78790  0.45770  0.11040  Biso   1.000  B
  H72      1.0000 0.81830  0.37910  0.11300  Biso   1.000  H
  B17      1.0000 0.72060  0.49650  0.21870  Biso   1.000  B
  H73      1.0000 0.70590  0.44330  0.29330  Biso   1.000  H
  B18      1.0000 0.82870  0.64310  0.07060  Biso   1.000  B
  H74      1.0000 0.88600  0.68820  0.04670  Biso   1.000  H
  B19      1.0000 0.84410  0.51990  0.14340  Biso   1.000  B
  H75      1.0000 0.91220  0.48210  0.16810  Biso   1.000  H
  B20      1.0000 0.85560  0.55010  0.01700  Biso   1.000  B
  H76      1.0000 0.93090  0.53330  0.95800  Biso   1.000  H
  H77      1.0000 0.51610  0.49800  0.15660  Biso   1.000  H
  O18      1.0000 0.54440  0.43070  0.28010  Biso   1.000  O
  H78      1.0000 0.48250  0.45860  0.30200  Biso   1.000  H
  Co3      1.0000 0.00000  0.00000  0.00000  Biso   1.000  Co
