data_image0
_cell_length_a       11.6364
_cell_length_b       15.585
_cell_length_c       18.823
_cell_angle_alpha    86.423
_cell_angle_beta     82.869
_cell_angle_gamma    89.722

_symmetry_space_group_name_H-M    "P 1"
_symmetry_int_tables_number       1

loop_
  _symmetry_equiv_pos_as_xyz
  'x, y, z'

loop_
  _atom_site_label
  _atom_site_occupancy
  _atom_site_fract_x
  _atom_site_fract_y
  _atom_site_fract_z
  _atom_site_thermal_displace_type
  _atom_site_B_iso_or_equiv
  _atom_site_type_symbol
  Zn1      1.0000 0.54991  0.74924  0.92986  Biso   1.000  Zn
  C1       1.0000 0.42320  0.71630  0.30840  Biso   1.000  C
  Zn2      1.0000 0.57990  0.75647  0.77332  Biso   1.000  Zn
  B1       1.0000 0.45920  0.75950  0.38510  Biso   1.000  B
  H1       1.0000 0.44610  0.82780  0.39940  Biso   1.000  H
  B2       1.0000 0.56400  0.73070  0.31380  Biso   1.000  B
  H2       1.0000 0.61880  0.78060  0.28030  Biso   1.000  H
  B3       1.0000 0.51760  0.63750  0.27670  Biso   1.000  B
  H3       1.0000 0.54140  0.62460  0.21880  Biso   1.000  H
  B4       1.0000 0.38200  0.61290  0.32180  Biso   1.000  B
  H4       1.0000 0.31440  0.58390  0.29320  Biso   1.000  H
  B5       1.0000 0.34360  0.68900  0.38850  Biso   1.000  B
  H5       1.0000 0.25270  0.71080  0.40410  Biso   1.000  H
  C2       1.0000 0.57370  0.70020  0.40250  Biso   1.000  C
  B6       1.0000 0.61930  0.62750  0.33860  Biso   1.000  B
  H6       1.0000 0.71150  0.60870  0.32260  Biso   1.000  H
  B7       1.0000 0.50350  0.55480  0.34430  Biso   1.000  B
  H7       1.0000 0.51790  0.48600  0.33180  Biso   1.000  H
  B8       1.0000 0.39650  0.58310  0.41240  Biso   1.000  B
  H8       1.0000 0.33910  0.53330  0.44420  Biso   1.000  H
  B9       1.0000 0.44500  0.67310  0.45110  Biso   1.000  B
  H9       1.0000 0.42150  0.68280  0.50960  Biso   1.000  H
  B10      1.0000 0.54370  0.59470  0.42400  Biso   1.000  B
  H10      1.0000 0.58670  0.55430  0.46430  Biso   1.000  H
  C3       1.0000 0.36290  0.78280  0.25730  Biso   1.000  C
  H11      1.0000 0.37500  0.84310  0.27030  Biso   1.000  H
  O1       1.0000 0.24570  0.76330  0.26460  Biso   1.000  O
  H12      1.0000 0.23600  0.71080  0.27670  Biso   1.000  H
  C4       1.0000 0.41260  0.77150  0.17920  Biso   1.000  C
  C5       1.0000 0.48910  0.83040  0.14420  Biso   1.000  C
  H13      1.0000 0.51380  0.87770  0.16800  Biso   1.000  H
  C6       1.0000 0.52970  0.81970  0.07360  Biso   1.000  C
  H14      1.0000 0.58190  0.86160  0.04920  Biso   1.000  H
  N1       1.0000 0.49990  0.75360  0.03682  Biso   1.000  N
  C7       1.0000 0.42340  0.69710  0.07040  Biso   1.000  C
  H15      1.0000 0.39890  0.65110  0.04500  Biso   1.000  H
  C8       1.0000 0.37800  0.70370  0.14230  Biso   1.000  C
  H16      1.0000 0.32420  0.66220  0.16550  Biso   1.000  H
  C9       1.0000 0.67560  0.74230  0.43500  Biso   1.000  C
  H17      1.0000 0.74670  0.70670  0.42450  Biso   1.000  H
  O2       1.0000 0.69690  0.82510  0.40220  Biso   1.000  O
  H18      1.0000 0.69640  0.82360  0.35770  Biso   1.000  H
  C10      1.0000 0.64840  0.74650  0.51630  Biso   1.000  C
  C11      1.0000 0.59550  0.81460  0.54660  Biso   1.000  C
  H19      1.0000 0.57100  0.86150  0.51760  Biso   1.000  H
  C12      1.0000 0.57720  0.81530  0.62050  Biso   1.000  C
  H20      1.0000 0.54010  0.86420  0.64060  Biso   1.000  H
  N2       1.0000 0.60740  0.75350  0.66490  Biso   1.000  N
  C13      1.0000 0.66180  0.68640  0.63400  Biso   1.000  C
  H21      1.0000 0.68600  0.64020  0.66400  Biso   1.000  H
  C14      1.0000 0.68360  0.68210  0.56080  Biso   1.000  C
  H22      1.0000 0.72350  0.63390  0.54120  Biso   1.000  H
  O3       1.0000 0.46290  0.64198  0.91232  Biso   1.000  O
  C15      1.0000 0.42110  0.62880  0.85470  Biso   1.000  C
  O4       1.0000 0.44080  0.67483  0.79698  Biso   1.000  O
  C16      1.0000 0.34490  0.55200  0.85590  Biso   1.000  C
  C17      1.0000 0.34830  0.48510  0.90840  Biso   1.000  C
  H23      1.0000 0.39860  0.48850  0.94420  Biso   1.000  H
  C18      1.0000 0.27800  0.41380  0.90810  Biso   1.000  C
  H24      1.0000 0.28260  0.36740  0.94280  Biso   1.000  H
  C19      1.0000 0.20050  0.40890  0.85760  Biso   1.000  C
  C20      1.0000 0.19770  0.47630  0.80550  Biso   1.000  C
  H25      1.0000 0.14510  0.47430  0.77090  Biso   1.000  H
  C21      1.0000 0.27090  0.54580  0.80410  Biso   1.000  C
  H26      1.0000 0.27060  0.59010  0.76710  Biso   1.000  H
  C22      1.0000 0.12890  0.33030  0.85660  Biso   1.000  C
  C23      1.0000 0.18310  0.25070  0.85420  Biso   1.000  C
  H27      1.0000 0.26460  0.24860  0.85440  Biso   1.000  H
  C24      1.0000 0.12400  0.17400  0.85150  Biso   1.000  C
  C25      1.0000 0.19160  0.09280  0.84860  Biso   1.000  C
  C26      1.0000 0.25700  0.07200  0.78490  Biso   1.000  C
  H28      1.0000 0.25390  0.10830  0.74270  Biso   1.000  H
  C27      1.0000 0.32660  0.99920  0.78170  Biso   1.000  C
  H29      1.0000 0.36960  0.98560  0.73760  Biso   1.000  H
  C28      1.0000 0.33300  0.94680  0.84320  Biso   1.000  C
  C29      1.0000 0.26620  0.96550  0.90620  Biso   1.000  C
  H30      1.0000 0.26820  0.92850  0.94810  Biso   1.000  H
  C30      1.0000 0.19620  0.03810  0.90890  Biso   1.000  C
  H31      1.0000 0.15090  0.05030  0.95260  Biso   1.000  H
  C31      1.0000 0.41310  0.87120  0.84200  Biso   1.000  C
  O5       1.0000 0.47480  0.85924  0.78310  Biso   1.000  O
  O6       1.0000 0.41440  0.82481  0.89887  Biso   1.000  O
  C32      1.0000 0.00180  0.17630  0.85290  Biso   1.000  C
  C33      1.0000 0.93060  0.09830  0.85200  Biso   1.000  C
  C34      1.0000 0.95550  0.03620  0.80210  Biso   1.000  C
  H32      1.0000 0.02310  0.04230  0.76820  Biso   1.000  H
  C35      1.0000 0.88400  0.96640  0.80100  Biso   1.000  C
  H33      1.0000 0.90160  0.92610  0.76540  Biso   1.000  H
  C36      1.0000 0.78610  0.95360  0.85130  Biso   1.000  C
  C37      1.0000 0.75970  0.01620  0.90110  Biso   1.000  C
  H34      1.0000 0.69300  0.00970  0.93560  Biso   1.000  H
  C38      1.0000 0.83000  0.08720  0.90030  Biso   1.000  C
  H35      1.0000 0.80930  0.12980  0.93350  Biso   1.000  H
  C39      1.0000 0.70870  0.87760  0.85180  Biso   1.000  C
  O7       1.0000 0.71060  0.83861  0.79478  Biso   1.000  O
  O8       1.0000 0.64730  0.85682  0.91006  Biso   1.000  O
  C40      1.0000 0.94770  0.25610  0.85450  Biso   1.000  C
  H36      1.0000 0.86620  0.25830  0.85430  Biso   1.000  H
  C41      1.0000 0.00780  0.33300  0.85650  Biso   1.000  C
  C42      1.0000 0.94030  0.41430  0.85720  Biso   1.000  C
  C43      1.0000 0.87660  0.43630  0.80130  Biso   1.000  C
  H37      1.0000 0.88010  0.40070  0.76190  Biso   1.000  H
  C44      1.0000 0.80860  0.50830  0.80160  Biso   1.000  C
  H38      1.0000 0.76700  0.52220  0.76210  Biso   1.000  H
  C45      1.0000 0.79920  0.56140  0.85850  Biso   1.000  C
  C46      1.0000 0.86410  0.54020  0.91500  Biso   1.000  C
  H39      1.0000 0.86010  0.57570  0.95450  Biso   1.000  H
  C47      1.0000 0.93410  0.46790  0.91380  Biso   1.000  C
  H40      1.0000 0.97840  0.45490  0.95220  Biso   1.000  H
  C48      1.0000 0.72110  0.63790  0.85940  Biso   1.000  C
  O9       1.0000 0.68140  0.65708  0.80059  Biso   1.000  O
  O10      1.0000 0.69840  0.67608  0.91623  Biso   1.000  O
  H41      1.0000 0.27730  0.77260  0.26370  Biso   1.000  H
  O11      1.0000 0.38860  0.87650  0.27380  Biso   1.000  O
  H42      1.0000 0.40080  0.90700  0.23520  Biso   1.000  H
  Zn3      1.0000 0.45009  0.25076  0.07014  Biso   1.000  Zn
  C49      1.0000 0.57680  0.28370  0.69160  Biso   1.000  C
  Zn4      1.0000 0.42010  0.24353  0.22668  Biso   1.000  Zn
  B11      1.0000 0.54080  0.24050  0.61490  Biso   1.000  B
  H43      1.0000 0.55390  0.17220  0.60060  Biso   1.000  H
  B12      1.0000 0.43600  0.26930  0.68620  Biso   1.000  B
  H44      1.0000 0.38120  0.21940  0.71970  Biso   1.000  H
  B13      1.0000 0.48240  0.36250  0.72330  Biso   1.000  B
  H45      1.0000 0.45860  0.37540  0.78120  Biso   1.000  H
  B14      1.0000 0.61800  0.38710  0.67820  Biso   1.000  B
  H46      1.0000 0.68560  0.41610  0.70680  Biso   1.000  H
  B15      1.0000 0.65640  0.31100  0.61150  Biso   1.000  B
  H47      1.0000 0.74730  0.28920  0.59590  Biso   1.000  H
  C50      1.0000 0.42630  0.29980  0.59750  Biso   1.000  C
  B16      1.0000 0.38070  0.37250  0.66140  Biso   1.000  B
  H48      1.0000 0.28850  0.39130  0.67740  Biso   1.000  H
  B17      1.0000 0.49650  0.44520  0.65570  Biso   1.000  B
  H49      1.0000 0.48210  0.51400  0.66820  Biso   1.000  H
  B18      1.0000 0.60350  0.41690  0.58760  Biso   1.000  B
  H50      1.0000 0.66090  0.46670  0.55580  Biso   1.000  H
  B19      1.0000 0.55500  0.32690  0.54890  Biso   1.000  B
  H51      1.0000 0.57850  0.31720  0.49040  Biso   1.000  H
  B20      1.0000 0.45630  0.40530  0.57600  Biso   1.000  B
  H52      1.0000 0.41330  0.44570  0.53570  Biso   1.000  H
  C51      1.0000 0.63710  0.21720  0.74270  Biso   1.000  C
  H53      1.0000 0.62500  0.15690  0.72970  Biso   1.000  H
  O12      1.0000 0.75430  0.23670  0.73540  Biso   1.000  O
  H54      1.0000 0.76400  0.28920  0.72330  Biso   1.000  H
  C52      1.0000 0.58740  0.22850  0.82080  Biso   1.000  C
  C53      1.0000 0.51090  0.16960  0.85580  Biso   1.000  C
  H55      1.0000 0.48620  0.12230  0.83200  Biso   1.000  H
  C54      1.0000 0.47030  0.18030  0.92640  Biso   1.000  C
  H56      1.0000 0.41810  0.13840  0.95080  Biso   1.000  H
  N3       1.0000 0.50010  0.24640  0.96318  Biso   1.000  N
  C55      1.0000 0.57660  0.30290  0.92960  Biso   1.000  C
  H57      1.0000 0.60110  0.34890  0.95500  Biso   1.000  H
  C56      1.0000 0.62200  0.29630  0.85770  Biso   1.000  C
  H58      1.0000 0.67580  0.33780  0.83450  Biso   1.000  H
  C57      1.0000 0.32440  0.25770  0.56500  Biso   1.000  C
  H59      1.0000 0.25330  0.29330  0.57550  Biso   1.000  H
  O13      1.0000 0.30310  0.17490  0.59780  Biso   1.000  O
  H60      1.0000 0.30360  0.17640  0.64230  Biso   1.000  H
  C58      1.0000 0.35160  0.25350  0.48370  Biso   1.000  C
  C59      1.0000 0.40450  0.18540  0.45340  Biso   1.000  C
  H61      1.0000 0.42900  0.13850  0.48240  Biso   1.000  H
  C60      1.0000 0.42280  0.18470  0.37950  Biso   1.000  C
  H62      1.0000 0.45990  0.13580  0.35940  Biso   1.000  H
  N4       1.0000 0.39260  0.24650  0.33510  Biso   1.000  N
  C61      1.0000 0.33820  0.31360  0.36600  Biso   1.000  C
  H63      1.0000 0.31400  0.35980  0.33600  Biso   1.000  H
  C62      1.0000 0.31640  0.31790  0.43920  Biso   1.000  C
  H64      1.0000 0.27650  0.36610  0.45880  Biso   1.000  H
  O14      1.0000 0.53710  0.35802  0.08768  Biso   1.000  O
  C63      1.0000 0.57890  0.37120  0.14530  Biso   1.000  C
  O15      1.0000 0.55920  0.32517  0.20302  Biso   1.000  O
  C64      1.0000 0.65510  0.44800  0.14410  Biso   1.000  C
  C65      1.0000 0.65170  0.51490  0.09160  Biso   1.000  C
  H65      1.0000 0.60140  0.51150  0.05580  Biso   1.000  H
  C66      1.0000 0.72200  0.58620  0.09190  Biso   1.000  C
  H66      1.0000 0.71740  0.63260  0.05720  Biso   1.000  H
  C67      1.0000 0.79950  0.59110  0.14240  Biso   1.000  C
  C68      1.0000 0.80230  0.52370  0.19450  Biso   1.000  C
  H67      1.0000 0.85490  0.52570  0.22910  Biso   1.000  H
  C69      1.0000 0.72910  0.45420  0.19590  Biso   1.000  C
  H68      1.0000 0.72940  0.40990  0.23290  Biso   1.000  H
  C70      1.0000 0.87110  0.66970  0.14340  Biso   1.000  C
  C71      1.0000 0.81690  0.74930  0.14580  Biso   1.000  C
  H69      1.0000 0.73540  0.75140  0.14560  Biso   1.000  H
  C72      1.0000 0.87600  0.82600  0.14850  Biso   1.000  C
  C73      1.0000 0.80840  0.90720  0.15140  Biso   1.000  C
  C74      1.0000 0.74300  0.92800  0.21510  Biso   1.000  C
  H70      1.0000 0.74610  0.89170  0.25730  Biso   1.000  H
  C75      1.0000 0.67340  0.00080  0.21830  Biso   1.000  C
  H71      1.0000 0.63040  0.01440  0.26240  Biso   1.000  H
  C76      1.0000 0.66700  0.05320  0.15680  Biso   1.000  C
  C77      1.0000 0.73380  0.03450  0.09380  Biso   1.000  C
  H72      1.0000 0.73180  0.07150  0.05190  Biso   1.000  H
  C78      1.0000 0.80380  0.96190  0.09110  Biso   1.000  C
  H73      1.0000 0.84910  0.94970  0.04740  Biso   1.000  H
  C79      1.0000 0.58690  0.12880  0.15800  Biso   1.000  C
  O16      1.0000 0.52520  0.14076  0.21690  Biso   1.000  O
  O17      1.0000 0.58560  0.17519  0.10113  Biso   1.000  O
  C80      1.0000 0.99820  0.82370  0.14710  Biso   1.000  C
  C81      1.0000 0.06940  0.90170  0.14800  Biso   1.000  C
  C82      1.0000 0.04450  0.96380  0.19790  Biso   1.000  C
  H74      1.0000 0.97690  0.95770  0.23180  Biso   1.000  H
  C83      1.0000 0.11600  0.03360  0.19900  Biso   1.000  C
  H75      1.0000 0.09840  0.07390  0.23460  Biso   1.000  H
  C84      1.0000 0.21390  0.04640  0.14870  Biso   1.000  C
  C85      1.0000 0.24030  0.98380  0.09890  Biso   1.000  C
  H76      1.0000 0.30700  0.99030  0.06440  Biso   1.000  H
  C86      1.0000 0.17000  0.91280  0.09970  Biso   1.000  C
  H77      1.0000 0.19070  0.87020  0.06650  Biso   1.000  H
  C87      1.0000 0.29130  0.12240  0.14820  Biso   1.000  C
  O18      1.0000 0.28940  0.16139  0.20522  Biso   1.000  O
  O19      1.0000 0.35270  0.14318  0.08994  Biso   1.000  O
  C88      1.0000 0.05230  0.74390  0.14550  Biso   1.000  C
  H78      1.0000 0.13380  0.74170  0.14570  Biso   1.000  H
  C89      1.0000 0.99220  0.66700  0.14350  Biso   1.000  C
  C90      1.0000 0.05970  0.58570  0.14280  Biso   1.000  C
  C91      1.0000 0.12340  0.56370  0.19870  Biso   1.000  C
  H79      1.0000 0.11990  0.59930  0.23810  Biso   1.000  H
  C92      1.0000 0.19140  0.49170  0.19840  Biso   1.000  C
  H80      1.0000 0.23300  0.47780  0.23790  Biso   1.000  H
  C93      1.0000 0.20080  0.43860  0.14150  Biso   1.000  C
  C94      1.0000 0.13590  0.45980  0.08500  Biso   1.000  C
  H81      1.0000 0.13990  0.42430  0.04550  Biso   1.000  H
  C95      1.0000 0.06590  0.53210  0.08620  Biso   1.000  C
  H82      1.0000 0.02160  0.54510  0.04780  Biso   1.000  H
  C96      1.0000 0.27890  0.36210  0.14060  Biso   1.000  C
  O20      1.0000 0.31860  0.34292  0.19941  Biso   1.000  O
  O21      1.0000 0.30160  0.32392  0.08377  Biso   1.000  O
  H83      1.0000 0.72270  0.22740  0.73630  Biso   1.000  H
  O22      1.0000 0.61140  0.12350  0.72620  Biso   1.000  O
  H84      1.0000 0.59920  0.09300  0.76480  Biso   1.000  H
