data_image0
_cell_length_a       26.9695
_cell_length_b       14.7086
_cell_length_c       9.9706
_cell_angle_alpha    90
_cell_angle_beta     98.081
_cell_angle_gamma    90

_symmetry_space_group_name_H-M    "P 1"
_symmetry_int_tables_number       1

loop_
  _symmetry_equiv_pos_as_xyz
  'x, y, z'

loop_
  _atom_site_label
  _atom_site_occupancy
  _atom_site_fract_x
  _atom_site_fract_y
  _atom_site_fract_z
  _atom_site_thermal_displace_type
  _atom_site_B_iso_or_equiv
  _atom_site_type_symbol
  C1       1.0000 0.04429  0.48230  0.27190  Biso   1.000  C
  C2       1.0000 0.08486  0.49700  0.18510  Biso   1.000  C
  C3       1.0000 0.12879  0.54180  0.23670  Biso   1.000  C
  H1       1.0000 0.13230  0.56560  0.32400  Biso   1.000  H
  C4       1.0000 0.16719  0.55150  0.16050  Biso   1.000  C
  H2       1.0000 0.19650  0.58160  0.19560  Biso   1.000  H
  C5       1.0000 0.16180  0.51620  0.03270  Biso   1.000  C
  C6       1.0000 0.11839  0.47350  0.97730  Biso   1.000  C
  H3       1.0000 0.11500  0.45080  0.88950  Biso   1.000  H
  C7       1.0000 0.07973  0.46490  0.05480  Biso   1.000  C
  H4       1.0000 0.05000  0.43710  0.01780  Biso   1.000  H
  C8       1.0000 0.24843  0.51610  0.00000  Biso   1.000  C
  C9       1.0000 0.26517  0.45690  0.10280  Biso   1.000  C
  H5       1.0000 0.24240  0.42410  0.14560  Biso   1.000  H
  C10      1.0000 0.31599  0.44600  0.14260  Biso   1.000  C
  H6       1.0000 0.32720  0.40630  0.21300  Biso   1.000  H
  C11      1.0000 0.35006  0.49310  0.07960  Biso   1.000  C
  C12      1.0000 0.40521  0.47860  0.11930  Biso   1.000  C
  C13      1.0000 0.33272  0.55150  0.97690  Biso   1.000  C
  H7       1.0000 0.35560  0.58320  0.93300  Biso   1.000  H
  C14      1.0000 0.28195  0.56480  0.93640  Biso   1.000  C
  H8       1.0000 0.27080  0.60580  0.86770  Biso   1.000  H
  C15      1.0000 0.56897  0.91610  0.71570  Biso   1.000  C
  H9       1.0000 0.59530  0.94940  0.68940  Biso   1.000  H
  C16      1.0000 0.49720  0.86030  0.72250  Biso   1.000  C
  H10      1.0000 0.46330  0.84750  0.70080  Biso   1.000  H
  C17      1.0000 0.52721  0.82510  0.82870  Biso   1.000  C
  H11      1.0000 0.51820  0.78420  0.89240  Biso   1.000  H
  C18      1.0000 0.61864  0.84230  0.91110  Biso   1.000  C
  C19      1.0000 0.62361  0.76540  0.98720  Biso   1.000  C
  H12      1.0000 0.59650  0.72630  0.98720  Biso   1.000  H
  C20      1.0000 0.66884  0.74530  0.06460  Biso   1.000  C
  H13      1.0000 0.67130  0.69320  0.11790  Biso   1.000  H
  C21      1.0000 0.71036  0.79960  0.06570  Biso   1.000  C
  C22      1.0000 0.70318  0.87870  0.99240  Biso   1.000  C
  H14      1.0000 0.72980  0.91910  0.99390  Biso   1.000  H
  C23      1.0000 0.65812  0.90030  0.91700  Biso   1.000  C
  H15      1.0000 0.65460  0.95490  0.86970  Biso   1.000  H
  C24      1.0000 0.76011  0.77400  0.13680  Biso   1.000  C
  C25      1.0000 0.76709  0.68600  0.18640  Biso   1.000  C
  H16      1.0000 0.74020  0.64610  0.18230  Biso   1.000  H
  C26      1.0000 0.81498  0.65820  0.24240  Biso   1.000  C
  H17      1.0000 0.82020  0.59870  0.27290  Biso   1.000  H
  C27      1.0000 0.85664  0.72130  0.25340  Biso   1.000  C
  C28      1.0000 0.84623  0.80650  0.20730  Biso   1.000  C
  H18      1.0000 0.87200  0.84900  0.21380  Biso   1.000  H
  C29      1.0000 0.79882  0.83280  0.15080  Biso   1.000  C
  H19      1.0000 0.79340  0.89250  0.12170  Biso   1.000  H
  C30      1.0000 0.91878  0.62171  0.38878  Biso   1.000  C
  H20      1.0000 0.89580  0.58750  0.42870  Biso   1.000  H
  N1       1.0000 0.96719  0.60713  0.40742  Biso   1.000  N
  C31      1.0000 0.95063  0.72415  0.26711  Biso   1.000  C
  H21      1.0000 0.95430  0.77240  0.20900  Biso   1.000  H
  N2       1.0000 0.52333  0.91728  0.65130  Biso   1.000  N
  N3       1.0000 0.57350  0.86137  0.82430  Biso   1.000  N
  N4       1.0000 0.90629  0.69250  0.30460  Biso   1.000  N
  C32      1.0000 0.98715  0.67190  0.33030  Biso   1.000  C
  H22      1.0000 0.02100  0.67820  0.32330  Biso   1.000  H
  O1       1.0000 0.00482  0.44356  0.22060  Biso   1.000  O
  O2       1.0000 0.05372  0.50993  0.39320  Biso   1.000  O
  O3       1.0000 0.43161  0.51012  0.03570  Biso   1.000  O
  O4       1.0000 0.42014  0.43750  0.22440  Biso   1.000  O
  O5       1.0000 0.19830  0.52700  0.94770  Biso   1.000  O
  C33      1.0000 0.22760  0.23750  0.23770  Biso   1.000  C
  C34      1.0000 0.18050  0.21570  0.17420  Biso   1.000  C
  C35      1.0000 0.14810  0.26710  0.36410  Biso   1.000  C
  C36      1.0000 0.19610  0.29100  0.42100  Biso   1.000  C
  H23      1.0000 0.25400  0.22600  0.18940  Biso   1.000  H
  H24      1.0000 0.17500  0.19770  0.08390  Biso   1.000  H
  H25      1.0000 0.12030  0.28200  0.40540  Biso   1.000  H
  H26      1.0000 0.19970  0.32080  0.50410  Biso   1.000  H
  C37      1.0000 0.95571  0.98230  0.22810  Biso   1.000  C
  C38      1.0000 0.91514  0.99700  0.31490  Biso   1.000  C
  C39      1.0000 0.87121  0.04180  0.26330  Biso   1.000  C
  H27      1.0000 0.86770  0.06560  0.17600  Biso   1.000  H
  C40      1.0000 0.83281  0.05150  0.33950  Biso   1.000  C
  H28      1.0000 0.80350  0.08160  0.30440  Biso   1.000  H
  C41      1.0000 0.83820  0.01620  0.46730  Biso   1.000  C
  C42      1.0000 0.88161  0.97350  0.52270  Biso   1.000  C
  H29      1.0000 0.88500  0.95080  0.61050  Biso   1.000  H
  C43      1.0000 0.92027  0.96490  0.44520  Biso   1.000  C
  H30      1.0000 0.95000  0.93710  0.48220  Biso   1.000  H
  C44      1.0000 0.75157  0.01610  0.50000  Biso   1.000  C
  C45      1.0000 0.73483  0.95690  0.39720  Biso   1.000  C
  H31      1.0000 0.75760  0.92410  0.35440  Biso   1.000  H
  C46      1.0000 0.68401  0.94600  0.35740  Biso   1.000  C
  H32      1.0000 0.67280  0.90630  0.28700  Biso   1.000  H
  C47      1.0000 0.64994  0.99310  0.42040  Biso   1.000  C
  C48      1.0000 0.59479  0.97860  0.38070  Biso   1.000  C
  C49      1.0000 0.66728  0.05150  0.52310  Biso   1.000  C
  H33      1.0000 0.64440  0.08320  0.56700  Biso   1.000  H
  C50      1.0000 0.71805  0.06480  0.56360  Biso   1.000  C
  H34      1.0000 0.72920  0.10580  0.63230  Biso   1.000  H
  C51      1.0000 0.43103  0.41610  0.78430  Biso   1.000  C
  H35      1.0000 0.40470  0.44940  0.81060  Biso   1.000  H
  C52      1.0000 0.50280  0.36030  0.77750  Biso   1.000  C
  H36      1.0000 0.53670  0.34750  0.79920  Biso   1.000  H
  C53      1.0000 0.47279  0.32510  0.67130  Biso   1.000  C
  H37      1.0000 0.48180  0.28420  0.60760  Biso   1.000  H
  C54      1.0000 0.38136  0.34230  0.58890  Biso   1.000  C
  C55      1.0000 0.37639  0.26540  0.51280  Biso   1.000  C
  H38      1.0000 0.40350  0.22630  0.51280  Biso   1.000  H
  C56      1.0000 0.33116  0.24530  0.43540  Biso   1.000  C
  H39      1.0000 0.32870  0.19320  0.38210  Biso   1.000  H
  C57      1.0000 0.28964  0.29960  0.43430  Biso   1.000  C
  C58      1.0000 0.29682  0.37870  0.50760  Biso   1.000  C
  H40      1.0000 0.27020  0.41910  0.50610  Biso   1.000  H
  C59      1.0000 0.34188  0.40030  0.58300  Biso   1.000  C
  H41      1.0000 0.34540  0.45490  0.63030  Biso   1.000  H
  C60      1.0000 0.23989  0.27400  0.36320  Biso   1.000  C
  C61      1.0000 0.23291  0.18600  0.31360  Biso   1.000  C
  H42      1.0000 0.25980  0.14610  0.31770  Biso   1.000  H
  C62      1.0000 0.18502  0.15820  0.25760  Biso   1.000  C
  H43      1.0000 0.17980  0.09870  0.22710  Biso   1.000  H
  C63      1.0000 0.14336  0.22130  0.24660  Biso   1.000  C
  C64      1.0000 0.15377  0.30650  0.29270  Biso   1.000  C
  H44      1.0000 0.12800  0.34900  0.28620  Biso   1.000  H
  C65      1.0000 0.20118  0.33280  0.34920  Biso   1.000  C
  H45      1.0000 0.20660  0.39250  0.37830  Biso   1.000  H
  C66      1.0000 0.08122  0.12171  0.11122  Biso   1.000  C
  H46      1.0000 0.10420  0.08750  0.07130  Biso   1.000  H
  N5       1.0000 0.03281  0.10713  0.09258  Biso   1.000  N
  C67      1.0000 0.04937  0.22415  0.23289  Biso   1.000  C
  H47      1.0000 0.04570  0.27240  0.29100  Biso   1.000  H
  N6       1.0000 0.47667  0.41728  0.84870  Biso   1.000  N
  N7       1.0000 0.42650  0.36137  0.67570  Biso   1.000  N
  N8       1.0000 0.09371  0.19250  0.19540  Biso   1.000  N
  C68      1.0000 0.01285  0.17190  0.16970  Biso   1.000  C
  H48      1.0000 0.97900  0.17820  0.17670  Biso   1.000  H
  O6       1.0000 0.99518  0.94356  0.27940  Biso   1.000  O
  O7       1.0000 0.94628  0.00993  0.10680  Biso   1.000  O
  O8       1.0000 0.56839  0.01012  0.46430  Biso   1.000  O
  O9       1.0000 0.57986  0.93750  0.27560  Biso   1.000  O
  O10      1.0000 0.80170  0.02700  0.55230  Biso   1.000  O
  C69      1.0000 0.77240  0.73750  0.26230  Biso   1.000  C
  C70      1.0000 0.81950  0.71570  0.32580  Biso   1.000  C
  C71      1.0000 0.85190  0.76710  0.13590  Biso   1.000  C
  C72      1.0000 0.80390  0.79100  0.07900  Biso   1.000  C
  H49      1.0000 0.74600  0.72600  0.31060  Biso   1.000  H
  H50      1.0000 0.82500  0.69770  0.41610  Biso   1.000  H
  H51      1.0000 0.87970  0.78200  0.09460  Biso   1.000  H
  H52      1.0000 0.80030  0.82080  0.99590  Biso   1.000  H
  C73      1.0000 0.95571  0.51770  0.72810  Biso   1.000  C
  C74      1.0000 0.91514  0.50300  0.81490  Biso   1.000  C
  C75      1.0000 0.87121  0.45820  0.76330  Biso   1.000  C
  H53      1.0000 0.86770  0.43440  0.67600  Biso   1.000  H
  C76      1.0000 0.83281  0.44850  0.83950  Biso   1.000  C
  H54      1.0000 0.80350  0.41840  0.80440  Biso   1.000  H
  C77      1.0000 0.83820  0.48380  0.96730  Biso   1.000  C
  C78      1.0000 0.88161  0.52650  0.02270  Biso   1.000  C
  H55      1.0000 0.88500  0.54920  0.11050  Biso   1.000  H
  C79      1.0000 0.92027  0.53510  0.94520  Biso   1.000  C
  H56      1.0000 0.95000  0.56290  0.98220  Biso   1.000  H
  C80      1.0000 0.75157  0.48390  0.00000  Biso   1.000  C
  C81      1.0000 0.73483  0.54310  0.89720  Biso   1.000  C
  H57      1.0000 0.75760  0.57590  0.85440  Biso   1.000  H
  C82      1.0000 0.68401  0.55400  0.85740  Biso   1.000  C
  H58      1.0000 0.67280  0.59370  0.78700  Biso   1.000  H
  C83      1.0000 0.64994  0.50690  0.92040  Biso   1.000  C
  C84      1.0000 0.59479  0.52140  0.88070  Biso   1.000  C
  C85      1.0000 0.66728  0.44850  0.02310  Biso   1.000  C
  H59      1.0000 0.64440  0.41680  0.06700  Biso   1.000  H
  C86      1.0000 0.71805  0.43520  0.06360  Biso   1.000  C
  H60      1.0000 0.72920  0.39420  0.13230  Biso   1.000  H
  C87      1.0000 0.43103  0.08390  0.28430  Biso   1.000  C
  H61      1.0000 0.40470  0.05060  0.31060  Biso   1.000  H
  C88      1.0000 0.50280  0.13970  0.27750  Biso   1.000  C
  H62      1.0000 0.53670  0.15250  0.29920  Biso   1.000  H
  C89      1.0000 0.47279  0.17490  0.17130  Biso   1.000  C
  H63      1.0000 0.48180  0.21580  0.10760  Biso   1.000  H
  C90      1.0000 0.38136  0.15770  0.08890  Biso   1.000  C
  C91      1.0000 0.37639  0.23460  0.01280  Biso   1.000  C
  H64      1.0000 0.40350  0.27370  0.01280  Biso   1.000  H
  C92      1.0000 0.33116  0.25470  0.93540  Biso   1.000  C
  H65      1.0000 0.32870  0.30680  0.88210  Biso   1.000  H
  C93      1.0000 0.28964  0.20040  0.93430  Biso   1.000  C
  C94      1.0000 0.29682  0.12130  0.00760  Biso   1.000  C
  H66      1.0000 0.27020  0.08090  0.00610  Biso   1.000  H
  C95      1.0000 0.34188  0.09970  0.08300  Biso   1.000  C
  H67      1.0000 0.34540  0.04510  0.13030  Biso   1.000  H
  C96      1.0000 0.23989  0.22600  0.86320  Biso   1.000  C
  C97      1.0000 0.23291  0.31400  0.81360  Biso   1.000  C
  H68      1.0000 0.25980  0.35390  0.81770  Biso   1.000  H
  C98      1.0000 0.18502  0.34180  0.75760  Biso   1.000  C
  H69      1.0000 0.17980  0.40130  0.72710  Biso   1.000  H
  C99      1.0000 0.14336  0.27870  0.74660  Biso   1.000  C
  C100     1.0000 0.15377  0.19350  0.79270  Biso   1.000  C
  H70      1.0000 0.12800  0.15100  0.78620  Biso   1.000  H
  C101     1.0000 0.20118  0.16720  0.84920  Biso   1.000  C
  H71      1.0000 0.20660  0.10750  0.87830  Biso   1.000  H
  C102     1.0000 0.08122  0.37829  0.61122  Biso   1.000  C
  H72      1.0000 0.10420  0.41250  0.57130  Biso   1.000  H
  N9       1.0000 0.03281  0.39287  0.59258  Biso   1.000  N
  C103     1.0000 0.04937  0.27585  0.73289  Biso   1.000  C
  H73      1.0000 0.04570  0.22760  0.79100  Biso   1.000  H
  N10      1.0000 0.47667  0.08272  0.34870  Biso   1.000  N
  N11      1.0000 0.42650  0.13863  0.17570  Biso   1.000  N
  N12      1.0000 0.09371  0.30750  0.69540  Biso   1.000  N
  C104     1.0000 0.01285  0.32810  0.66970  Biso   1.000  C
  H74      1.0000 0.97900  0.32180  0.67670  Biso   1.000  H
  O11      1.0000 0.99518  0.55644  0.77940  Biso   1.000  O
  O12      1.0000 0.94628  0.49007  0.60680  Biso   1.000  O
  O13      1.0000 0.56839  0.48988  0.96430  Biso   1.000  O
  O14      1.0000 0.57986  0.56250  0.77560  Biso   1.000  O
  O15      1.0000 0.80170  0.47300  0.05230  Biso   1.000  O
  C105     1.0000 0.77240  0.76250  0.76230  Biso   1.000  C
  C106     1.0000 0.81950  0.78430  0.82580  Biso   1.000  C
  C107     1.0000 0.85190  0.73290  0.63590  Biso   1.000  C
  C108     1.0000 0.80390  0.70900  0.57900  Biso   1.000  C
  H75      1.0000 0.74600  0.77400  0.81060  Biso   1.000  H
  H76      1.0000 0.82500  0.80230  0.91610  Biso   1.000  H
  H77      1.0000 0.87970  0.71800  0.59460  Biso   1.000  H
  H78      1.0000 0.80030  0.67920  0.49590  Biso   1.000  H
  C109     1.0000 0.04429  0.01770  0.77190  Biso   1.000  C
  C110     1.0000 0.08486  0.00300  0.68510  Biso   1.000  C
  C111     1.0000 0.12879  0.95820  0.73670  Biso   1.000  C
  H79      1.0000 0.13230  0.93440  0.82400  Biso   1.000  H
  C112     1.0000 0.16719  0.94850  0.66050  Biso   1.000  C
  H80      1.0000 0.19650  0.91840  0.69560  Biso   1.000  H
  C113     1.0000 0.16180  0.98380  0.53270  Biso   1.000  C
  C114     1.0000 0.11839  0.02650  0.47730  Biso   1.000  C
  H81      1.0000 0.11500  0.04920  0.38950  Biso   1.000  H
  C115     1.0000 0.07973  0.03510  0.55480  Biso   1.000  C
  H82      1.0000 0.05000  0.06290  0.51780  Biso   1.000  H
  C116     1.0000 0.24843  0.98390  0.50000  Biso   1.000  C
  C117     1.0000 0.26517  0.04310  0.60280  Biso   1.000  C
  H83      1.0000 0.24240  0.07590  0.64560  Biso   1.000  H
  C118     1.0000 0.31599  0.05400  0.64260  Biso   1.000  C
  H84      1.0000 0.32720  0.09370  0.71300  Biso   1.000  H
  C119     1.0000 0.35006  0.00690  0.57960  Biso   1.000  C
  C120     1.0000 0.40521  0.02140  0.61930  Biso   1.000  C
  C121     1.0000 0.33272  0.94850  0.47690  Biso   1.000  C
  H85      1.0000 0.35560  0.91680  0.43300  Biso   1.000  H
  C122     1.0000 0.28195  0.93520  0.43640  Biso   1.000  C
  H86      1.0000 0.27080  0.89420  0.36770  Biso   1.000  H
  C123     1.0000 0.56897  0.58390  0.21570  Biso   1.000  C
  H87      1.0000 0.59530  0.55060  0.18940  Biso   1.000  H
  C124     1.0000 0.49720  0.63970  0.22250  Biso   1.000  C
  H88      1.0000 0.46330  0.65250  0.20080  Biso   1.000  H
  C125     1.0000 0.52721  0.67490  0.32870  Biso   1.000  C
  H89      1.0000 0.51820  0.71580  0.39240  Biso   1.000  H
  C126     1.0000 0.61864  0.65770  0.41110  Biso   1.000  C
  C127     1.0000 0.62361  0.73460  0.48720  Biso   1.000  C
  H90      1.0000 0.59650  0.77370  0.48720  Biso   1.000  H
  C128     1.0000 0.66884  0.75470  0.56460  Biso   1.000  C
  H91      1.0000 0.67130  0.80680  0.61790  Biso   1.000  H
  C129     1.0000 0.71036  0.70040  0.56570  Biso   1.000  C
  C130     1.0000 0.70318  0.62130  0.49240  Biso   1.000  C
  H92      1.0000 0.72980  0.58090  0.49390  Biso   1.000  H
  C131     1.0000 0.65812  0.59970  0.41700  Biso   1.000  C
  H93      1.0000 0.65460  0.54510  0.36970  Biso   1.000  H
  C132     1.0000 0.76011  0.72600  0.63680  Biso   1.000  C
  C133     1.0000 0.76709  0.81400  0.68640  Biso   1.000  C
  H94      1.0000 0.74020  0.85390  0.68230  Biso   1.000  H
  C134     1.0000 0.81498  0.84180  0.74240  Biso   1.000  C
  H95      1.0000 0.82020  0.90130  0.77290  Biso   1.000  H
  C135     1.0000 0.85664  0.77870  0.75340  Biso   1.000  C
  C136     1.0000 0.84623  0.69350  0.70730  Biso   1.000  C
  H96      1.0000 0.87200  0.65100  0.71380  Biso   1.000  H
  C137     1.0000 0.79882  0.66720  0.65080  Biso   1.000  C
  H97      1.0000 0.79340  0.60750  0.62170  Biso   1.000  H
  C138     1.0000 0.91878  0.87829  0.88878  Biso   1.000  C
  H98      1.0000 0.89580  0.91250  0.92870  Biso   1.000  H
  N13      1.0000 0.96719  0.89287  0.90742  Biso   1.000  N
  C139     1.0000 0.95063  0.77585  0.76711  Biso   1.000  C
  H99      1.0000 0.95430  0.72760  0.70900  Biso   1.000  H
  N14      1.0000 0.52333  0.58272  0.15130  Biso   1.000  N
  N15      1.0000 0.57350  0.63863  0.32430  Biso   1.000  N
  N16      1.0000 0.90629  0.80750  0.80460  Biso   1.000  N
  C140     1.0000 0.98715  0.82810  0.83030  Biso   1.000  C
  H100     1.0000 0.02100  0.82180  0.82330  Biso   1.000  H
  O16      1.0000 0.00482  0.05644  0.72060  Biso   1.000  O
  O17      1.0000 0.05372  0.99007  0.89320  Biso   1.000  O
  O18      1.0000 0.43161  0.98988  0.53570  Biso   1.000  O
  O19      1.0000 0.42014  0.06250  0.72440  Biso   1.000  O
  O20      1.0000 0.19830  0.97300  0.44770  Biso   1.000  O
  C141     1.0000 0.22760  0.26250  0.73770  Biso   1.000  C
  C142     1.0000 0.18050  0.28430  0.67420  Biso   1.000  C
  C143     1.0000 0.14810  0.23290  0.86410  Biso   1.000  C
  C144     1.0000 0.19610  0.20900  0.92100  Biso   1.000  C
  H101     1.0000 0.25400  0.27400  0.68940  Biso   1.000  H
  H102     1.0000 0.17500  0.30230  0.58390  Biso   1.000  H
  H103     1.0000 0.12030  0.21800  0.90540  Biso   1.000  H
  H104     1.0000 0.19970  0.17920  0.00410  Biso   1.000  H
  Cu1      1.0000 0.00000  0.50000  0.50000  Biso   1.000  Cu
  Cu2      1.0000 0.00000  0.00000  0.00000  Biso   1.000  Cu
  Cu3      1.0000 0.50000  0.00000  0.50000  Biso   1.000  Cu
  Cu4      1.0000 0.50000  0.50000  0.00000  Biso   1.000  Cu
