data_image0
_cell_length_a       25.847
_cell_length_b       16.9043
_cell_length_c       13.2251
_cell_angle_alpha    90
_cell_angle_beta     105.9
_cell_angle_gamma    90

_symmetry_space_group_name_H-M    "P 1"
_symmetry_int_tables_number       1

loop_
  _symmetry_equiv_pos_as_xyz
  'x, y, z'

loop_
  _atom_site_label
  _atom_site_occupancy
  _atom_site_fract_x
  _atom_site_fract_y
  _atom_site_fract_z
  _atom_site_thermal_displace_type
  _atom_site_B_iso_or_equiv
  _atom_site_type_symbol
  O1       1.0000 0.89600  0.60350  0.14390  Biso   1.000  O
  C1       1.0000 0.06735  0.95630  0.45040  Biso   1.000  C
  C2       1.0000 0.02018  0.90070  0.42020  Biso   1.000  C
  C3       1.0000 0.02475  0.82430  0.46120  Biso   1.000  C
  H1       1.0000 0.05630  0.80790  0.50950  Biso   1.000  H
  C4       1.0000 0.98195  0.77340  0.42930  Biso   1.000  C
  C5       1.0000 0.93310  0.79480  0.35670  Biso   1.000  C
  C6       1.0000 0.92941  0.87210  0.31730  Biso   1.000  C
  C7       1.0000 0.97272  0.92390  0.34850  Biso   1.000  C
  H2       1.0000 0.96980  0.97480  0.32090  Biso   1.000  H
  C8       1.0000 0.88362  0.74470  0.33550  Biso   1.000  C
  C9       1.0000 0.86730  0.69050  0.25360  Biso   1.000  C
  C10      1.0000 0.81875  0.65080  0.23380  Biso   1.000  C
  H3       1.0000 0.80860  0.61580  0.17750  Biso   1.000  H
  C11      1.0000 0.78536  0.66350  0.29830  Biso   1.000  C
  C12      1.0000 0.80141  0.71630  0.38230  Biso   1.000  C
  H4       1.0000 0.77960  0.72430  0.42680  Biso   1.000  H
  C13      1.0000 0.84952  0.75690  0.39950  Biso   1.000  C
  C14      1.0000 0.86570  0.81270  0.49190  Biso   1.000  C
  C15      1.0000 0.73213  0.62270  0.27730  Biso   1.000  C
  C16      1.0000 0.87906  0.90040  0.23710  Biso   1.000  C
  Mn1      1.0000 0.13609  0.07142  0.35519  Biso   1.000  Mn
  N1       1.0000 0.99040  0.69300  0.47190  Biso   1.000  N
  N2       1.0000 0.90260  0.67150  0.18820  Biso   1.000  N
  O2       1.0000 0.07029  0.00753  0.38350  Biso   1.000  O
  O3       1.0000 0.10079  0.94692  0.53940  Biso   1.000  O
  O4       1.0000 0.94160  0.70760  0.19260  Biso   1.000  O
  O5       1.0000 0.02180  0.68400  0.55970  Biso   1.000  O
  O6       1.0000 0.96590  0.63850  0.42020  Biso   1.000  O
  O7       1.0000 0.71495  0.58930  0.18950  Biso   1.000  O
  O8       1.0000 0.70890  0.62320  0.34900  Biso   1.000  O
  O9       1.0000 0.85020  0.88250  0.48130  Biso   1.000  O
  O10      1.0000 0.89580  0.78720  0.57590  Biso   1.000  O
  O11      1.0000 0.86089  0.96826  0.25550  Biso   1.000  O
  O12      1.0000 0.85893  0.86020  0.15820  Biso   1.000  O
  Mn2      1.0000 0.17446  0.01080  0.61609  Biso   1.000  Mn
  O13      1.0000 0.88100  0.64010  0.09920  Biso   1.000  O
  O14      1.0000 0.39600  0.10350  0.14390  Biso   1.000  O
  C17      1.0000 0.56735  0.45630  0.45040  Biso   1.000  C
  C18      1.0000 0.52018  0.40070  0.42020  Biso   1.000  C
  C19      1.0000 0.52475  0.32430  0.46120  Biso   1.000  C
  H5       1.0000 0.55630  0.30790  0.50950  Biso   1.000  H
  C20      1.0000 0.48195  0.27340  0.42930  Biso   1.000  C
  C21      1.0000 0.43310  0.29480  0.35670  Biso   1.000  C
  C22      1.0000 0.42941  0.37210  0.31730  Biso   1.000  C
  C23      1.0000 0.47272  0.42390  0.34850  Biso   1.000  C
  H6       1.0000 0.46980  0.47480  0.32090  Biso   1.000  H
  C24      1.0000 0.38362  0.24470  0.33550  Biso   1.000  C
  C25      1.0000 0.36730  0.19050  0.25360  Biso   1.000  C
  C26      1.0000 0.31875  0.15080  0.23380  Biso   1.000  C
  H7       1.0000 0.30860  0.11580  0.17750  Biso   1.000  H
  C27      1.0000 0.28536  0.16350  0.29830  Biso   1.000  C
  C28      1.0000 0.30141  0.21630  0.38230  Biso   1.000  C
  H8       1.0000 0.27960  0.22430  0.42680  Biso   1.000  H
  C29      1.0000 0.34952  0.25690  0.39950  Biso   1.000  C
  C30      1.0000 0.36570  0.31270  0.49190  Biso   1.000  C
  C31      1.0000 0.23213  0.12270  0.27730  Biso   1.000  C
  C32      1.0000 0.37906  0.40040  0.23710  Biso   1.000  C
  Mn3      1.0000 0.63609  0.57142  0.35519  Biso   1.000  Mn
  N3       1.0000 0.49040  0.19300  0.47190  Biso   1.000  N
  N4       1.0000 0.40260  0.17150  0.18820  Biso   1.000  N
  O15      1.0000 0.57029  0.50753  0.38350  Biso   1.000  O
  O16      1.0000 0.60079  0.44692  0.53940  Biso   1.000  O
  O17      1.0000 0.44160  0.20760  0.19260  Biso   1.000  O
  O18      1.0000 0.52180  0.18400  0.55970  Biso   1.000  O
  O19      1.0000 0.46590  0.13850  0.42020  Biso   1.000  O
  O20      1.0000 0.21495  0.08930  0.18950  Biso   1.000  O
  O21      1.0000 0.20890  0.12320  0.34900  Biso   1.000  O
  O22      1.0000 0.35020  0.38250  0.48130  Biso   1.000  O
  O23      1.0000 0.39580  0.28720  0.57590  Biso   1.000  O
  O24      1.0000 0.36089  0.46826  0.25550  Biso   1.000  O
  O25      1.0000 0.35893  0.36020  0.15820  Biso   1.000  O
  Mn4      1.0000 0.67446  0.51080  0.61609  Biso   1.000  Mn
  O26      1.0000 0.38100  0.14010  0.09920  Biso   1.000  O
  O27      1.0000 0.10400  0.60350  0.35610  Biso   1.000  O
  C33      1.0000 0.93265  0.95630  0.04960  Biso   1.000  C
  C34      1.0000 0.97982  0.90070  0.07980  Biso   1.000  C
  C35      1.0000 0.97525  0.82430  0.03880  Biso   1.000  C
  H9       1.0000 0.94370  0.80790  0.99050  Biso   1.000  H
  C36      1.0000 0.01805  0.77340  0.07070  Biso   1.000  C
  C37      1.0000 0.06690  0.79480  0.14330  Biso   1.000  C
  C38      1.0000 0.07059  0.87210  0.18270  Biso   1.000  C
  C39      1.0000 0.02728  0.92390  0.15150  Biso   1.000  C
  H10      1.0000 0.03020  0.97480  0.17910  Biso   1.000  H
  C40      1.0000 0.11638  0.74470  0.16450  Biso   1.000  C
  C41      1.0000 0.13270  0.69050  0.24640  Biso   1.000  C
  C42      1.0000 0.18125  0.65080  0.26620  Biso   1.000  C
  H11      1.0000 0.19140  0.61580  0.32250  Biso   1.000  H
  C43      1.0000 0.21464  0.66350  0.20170  Biso   1.000  C
  C44      1.0000 0.19859  0.71630  0.11770  Biso   1.000  C
  H12      1.0000 0.22040  0.72430  0.07320  Biso   1.000  H
  C45      1.0000 0.15048  0.75690  0.10050  Biso   1.000  C
  C46      1.0000 0.13430  0.81270  0.00810  Biso   1.000  C
  C47      1.0000 0.26787  0.62270  0.22270  Biso   1.000  C
  C48      1.0000 0.12094  0.90040  0.26290  Biso   1.000  C
  Mn5      1.0000 0.86391  0.07142  0.14481  Biso   1.000  Mn
  N5       1.0000 0.00960  0.69300  0.02810  Biso   1.000  N
  N6       1.0000 0.09740  0.67150  0.31180  Biso   1.000  N
  O28      1.0000 0.92971  0.00753  0.11650  Biso   1.000  O
  O29      1.0000 0.89921  0.94692  0.96060  Biso   1.000  O
  O30      1.0000 0.05840  0.70760  0.30740  Biso   1.000  O
  O31      1.0000 0.97820  0.68400  0.94030  Biso   1.000  O
  O32      1.0000 0.03410  0.63850  0.07980  Biso   1.000  O
  O33      1.0000 0.28505  0.58930  0.31050  Biso   1.000  O
  O34      1.0000 0.29110  0.62320  0.15100  Biso   1.000  O
  O35      1.0000 0.14980  0.88250  0.01870  Biso   1.000  O
  O36      1.0000 0.10420  0.78720  0.92410  Biso   1.000  O
  O37      1.0000 0.13911  0.96826  0.24450  Biso   1.000  O
  O38      1.0000 0.14107  0.86020  0.34180  Biso   1.000  O
  Mn6      1.0000 0.82554  0.01080  0.88391  Biso   1.000  Mn
  O39      1.0000 0.11900  0.64010  0.40080  Biso   1.000  O
  O40      1.0000 0.60400  0.10350  0.35610  Biso   1.000  O
  C49      1.0000 0.43265  0.45630  0.04960  Biso   1.000  C
  C50      1.0000 0.47982  0.40070  0.07980  Biso   1.000  C
  C51      1.0000 0.47525  0.32430  0.03880  Biso   1.000  C
  H13      1.0000 0.44370  0.30790  0.99050  Biso   1.000  H
  C52      1.0000 0.51805  0.27340  0.07070  Biso   1.000  C
  C53      1.0000 0.56690  0.29480  0.14330  Biso   1.000  C
  C54      1.0000 0.57059  0.37210  0.18270  Biso   1.000  C
  C55      1.0000 0.52728  0.42390  0.15150  Biso   1.000  C
  H14      1.0000 0.53020  0.47480  0.17910  Biso   1.000  H
  C56      1.0000 0.61638  0.24470  0.16450  Biso   1.000  C
  C57      1.0000 0.63270  0.19050  0.24640  Biso   1.000  C
  C58      1.0000 0.68125  0.15080  0.26620  Biso   1.000  C
  H15      1.0000 0.69140  0.11580  0.32250  Biso   1.000  H
  C59      1.0000 0.71464  0.16350  0.20170  Biso   1.000  C
  C60      1.0000 0.69859  0.21630  0.11770  Biso   1.000  C
  H16      1.0000 0.72040  0.22430  0.07320  Biso   1.000  H
  C61      1.0000 0.65048  0.25690  0.10050  Biso   1.000  C
  C62      1.0000 0.63430  0.31270  0.00810  Biso   1.000  C
  C63      1.0000 0.76787  0.12270  0.22270  Biso   1.000  C
  C64      1.0000 0.62094  0.40040  0.26290  Biso   1.000  C
  Mn7      1.0000 0.36391  0.57142  0.14481  Biso   1.000  Mn
  N7       1.0000 0.50960  0.19300  0.02810  Biso   1.000  N
  N8       1.0000 0.59740  0.17150  0.31180  Biso   1.000  N
  O41      1.0000 0.42971  0.50753  0.11650  Biso   1.000  O
  O42      1.0000 0.39921  0.44692  0.96060  Biso   1.000  O
  O43      1.0000 0.55840  0.20760  0.30740  Biso   1.000  O
  O44      1.0000 0.47820  0.18400  0.94030  Biso   1.000  O
  O45      1.0000 0.53410  0.13850  0.07980  Biso   1.000  O
  O46      1.0000 0.78505  0.08930  0.31050  Biso   1.000  O
  O47      1.0000 0.79110  0.12320  0.15100  Biso   1.000  O
  O48      1.0000 0.64980  0.38250  0.01870  Biso   1.000  O
  O49      1.0000 0.60420  0.28720  0.92410  Biso   1.000  O
  O50      1.0000 0.63911  0.46826  0.24450  Biso   1.000  O
  O51      1.0000 0.64107  0.36020  0.34180  Biso   1.000  O
  Mn8      1.0000 0.32554  0.51080  0.88391  Biso   1.000  Mn
  O52      1.0000 0.61900  0.14010  0.40080  Biso   1.000  O
  O53      1.0000 0.10400  0.39650  0.85610  Biso   1.000  O
  C65      1.0000 0.93265  0.04370  0.54960  Biso   1.000  C
  C66      1.0000 0.97982  0.09930  0.57980  Biso   1.000  C
  C67      1.0000 0.97525  0.17570  0.53880  Biso   1.000  C
  H17      1.0000 0.94370  0.19210  0.49050  Biso   1.000  H
  C68      1.0000 0.01805  0.22660  0.57070  Biso   1.000  C
  C69      1.0000 0.06690  0.20520  0.64330  Biso   1.000  C
  C70      1.0000 0.07059  0.12790  0.68270  Biso   1.000  C
  C71      1.0000 0.02728  0.07610  0.65150  Biso   1.000  C
  H18      1.0000 0.03020  0.02520  0.67910  Biso   1.000  H
  C72      1.0000 0.11638  0.25530  0.66450  Biso   1.000  C
  C73      1.0000 0.13270  0.30950  0.74640  Biso   1.000  C
  C74      1.0000 0.18125  0.34920  0.76620  Biso   1.000  C
  H19      1.0000 0.19140  0.38420  0.82250  Biso   1.000  H
  C75      1.0000 0.21464  0.33650  0.70170  Biso   1.000  C
  C76      1.0000 0.19859  0.28370  0.61770  Biso   1.000  C
  H20      1.0000 0.22040  0.27570  0.57320  Biso   1.000  H
  C77      1.0000 0.15048  0.24310  0.60050  Biso   1.000  C
  C78      1.0000 0.13430  0.18730  0.50810  Biso   1.000  C
  C79      1.0000 0.26787  0.37730  0.72270  Biso   1.000  C
  C80      1.0000 0.12094  0.09960  0.76290  Biso   1.000  C
  Mn9      1.0000 0.86391  0.92858  0.64481  Biso   1.000  Mn
  N9       1.0000 0.00960  0.30700  0.52810  Biso   1.000  N
  N10      1.0000 0.09740  0.32850  0.81180  Biso   1.000  N
  O54      1.0000 0.92971  0.99247  0.61650  Biso   1.000  O
  O55      1.0000 0.89921  0.05308  0.46060  Biso   1.000  O
  O56      1.0000 0.05840  0.29240  0.80740  Biso   1.000  O
  O57      1.0000 0.97820  0.31600  0.44030  Biso   1.000  O
  O58      1.0000 0.03410  0.36150  0.57980  Biso   1.000  O
  O59      1.0000 0.28505  0.41070  0.81050  Biso   1.000  O
  O60      1.0000 0.29110  0.37680  0.65100  Biso   1.000  O
  O61      1.0000 0.14980  0.11750  0.51870  Biso   1.000  O
  O62      1.0000 0.10420  0.21280  0.42410  Biso   1.000  O
  O63      1.0000 0.13911  0.03174  0.74450  Biso   1.000  O
  O64      1.0000 0.14107  0.13980  0.84180  Biso   1.000  O
  Mn10     1.0000 0.82554  0.98920  0.38391  Biso   1.000  Mn
  O65      1.0000 0.11900  0.35990  0.90080  Biso   1.000  O
  O66      1.0000 0.60400  0.89650  0.85610  Biso   1.000  O
  C81      1.0000 0.43265  0.54370  0.54960  Biso   1.000  C
  C82      1.0000 0.47982  0.59930  0.57980  Biso   1.000  C
  C83      1.0000 0.47525  0.67570  0.53880  Biso   1.000  C
  H21      1.0000 0.44370  0.69210  0.49050  Biso   1.000  H
  C84      1.0000 0.51805  0.72660  0.57070  Biso   1.000  C
  C85      1.0000 0.56690  0.70520  0.64330  Biso   1.000  C
  C86      1.0000 0.57059  0.62790  0.68270  Biso   1.000  C
  C87      1.0000 0.52728  0.57610  0.65150  Biso   1.000  C
  H22      1.0000 0.53020  0.52520  0.67910  Biso   1.000  H
  C88      1.0000 0.61638  0.75530  0.66450  Biso   1.000  C
  C89      1.0000 0.63270  0.80950  0.74640  Biso   1.000  C
  C90      1.0000 0.68125  0.84920  0.76620  Biso   1.000  C
  H23      1.0000 0.69140  0.88420  0.82250  Biso   1.000  H
  C91      1.0000 0.71464  0.83650  0.70170  Biso   1.000  C
  C92      1.0000 0.69859  0.78370  0.61770  Biso   1.000  C
  H24      1.0000 0.72040  0.77570  0.57320  Biso   1.000  H
  C93      1.0000 0.65048  0.74310  0.60050  Biso   1.000  C
  C94      1.0000 0.63430  0.68730  0.50810  Biso   1.000  C
  C95      1.0000 0.76787  0.87730  0.72270  Biso   1.000  C
  C96      1.0000 0.62094  0.59960  0.76290  Biso   1.000  C
  Mn11     1.0000 0.36391  0.42858  0.64481  Biso   1.000  Mn
  N11      1.0000 0.50960  0.80700  0.52810  Biso   1.000  N
  N12      1.0000 0.59740  0.82850  0.81180  Biso   1.000  N
  O67      1.0000 0.42971  0.49247  0.61650  Biso   1.000  O
  O68      1.0000 0.39921  0.55308  0.46060  Biso   1.000  O
  O69      1.0000 0.55840  0.79240  0.80740  Biso   1.000  O
  O70      1.0000 0.47820  0.81600  0.44030  Biso   1.000  O
  O71      1.0000 0.53410  0.86150  0.57980  Biso   1.000  O
  O72      1.0000 0.78505  0.91070  0.81050  Biso   1.000  O
  O73      1.0000 0.79110  0.87680  0.65100  Biso   1.000  O
  O74      1.0000 0.64980  0.61750  0.51870  Biso   1.000  O
  O75      1.0000 0.60420  0.71280  0.42410  Biso   1.000  O
  O76      1.0000 0.63911  0.53174  0.74450  Biso   1.000  O
  O77      1.0000 0.64107  0.63980  0.84180  Biso   1.000  O
  Mn12     1.0000 0.32554  0.48920  0.38391  Biso   1.000  Mn
  O78      1.0000 0.61900  0.85990  0.90080  Biso   1.000  O
  O79      1.0000 0.89600  0.39650  0.64390  Biso   1.000  O
  C97      1.0000 0.06735  0.04370  0.95040  Biso   1.000  C
  C98      1.0000 0.02018  0.09930  0.92020  Biso   1.000  C
  C99      1.0000 0.02475  0.17570  0.96120  Biso   1.000  C
  H25      1.0000 0.05630  0.19210  0.00950  Biso   1.000  H
  C100     1.0000 0.98195  0.22660  0.92930  Biso   1.000  C
  C101     1.0000 0.93310  0.20520  0.85670  Biso   1.000  C
  C102     1.0000 0.92941  0.12790  0.81730  Biso   1.000  C
  C103     1.0000 0.97272  0.07610  0.84850  Biso   1.000  C
  H26      1.0000 0.96980  0.02520  0.82090  Biso   1.000  H
  C104     1.0000 0.88362  0.25530  0.83550  Biso   1.000  C
  C105     1.0000 0.86730  0.30950  0.75360  Biso   1.000  C
  C106     1.0000 0.81875  0.34920  0.73380  Biso   1.000  C
  H27      1.0000 0.80860  0.38420  0.67750  Biso   1.000  H
  C107     1.0000 0.78536  0.33650  0.79830  Biso   1.000  C
  C108     1.0000 0.80141  0.28370  0.88230  Biso   1.000  C
  H28      1.0000 0.77960  0.27570  0.92680  Biso   1.000  H
  C109     1.0000 0.84952  0.24310  0.89950  Biso   1.000  C
  C110     1.0000 0.86570  0.18730  0.99190  Biso   1.000  C
  C111     1.0000 0.73213  0.37730  0.77730  Biso   1.000  C
  C112     1.0000 0.87906  0.09960  0.73710  Biso   1.000  C
  Mn13     1.0000 0.13609  0.92858  0.85519  Biso   1.000  Mn
  N13      1.0000 0.99040  0.30700  0.97190  Biso   1.000  N
  N14      1.0000 0.90260  0.32850  0.68820  Biso   1.000  N
  O80      1.0000 0.07029  0.99247  0.88350  Biso   1.000  O
  O81      1.0000 0.10079  0.05308  0.03940  Biso   1.000  O
  O82      1.0000 0.94160  0.29240  0.69260  Biso   1.000  O
  O83      1.0000 0.02180  0.31600  0.05970  Biso   1.000  O
  O84      1.0000 0.96590  0.36150  0.92020  Biso   1.000  O
  O85      1.0000 0.71495  0.41070  0.68950  Biso   1.000  O
  O86      1.0000 0.70890  0.37680  0.84900  Biso   1.000  O
  O87      1.0000 0.85020  0.11750  0.98130  Biso   1.000  O
  O88      1.0000 0.89580  0.21280  0.07590  Biso   1.000  O
  O89      1.0000 0.86089  0.03174  0.75550  Biso   1.000  O
  O90      1.0000 0.85893  0.13980  0.65820  Biso   1.000  O
  Mn14     1.0000 0.17446  0.98920  0.11609  Biso   1.000  Mn
  O91      1.0000 0.88100  0.35990  0.59920  Biso   1.000  O
  O92      1.0000 0.39600  0.89650  0.64390  Biso   1.000  O
  C113     1.0000 0.56735  0.54370  0.95040  Biso   1.000  C
  C114     1.0000 0.52018  0.59930  0.92020  Biso   1.000  C
  C115     1.0000 0.52475  0.67570  0.96120  Biso   1.000  C
  H29      1.0000 0.55630  0.69210  0.00950  Biso   1.000  H
  C116     1.0000 0.48195  0.72660  0.92930  Biso   1.000  C
  C117     1.0000 0.43310  0.70520  0.85670  Biso   1.000  C
  C118     1.0000 0.42941  0.62790  0.81730  Biso   1.000  C
  C119     1.0000 0.47272  0.57610  0.84850  Biso   1.000  C
  H30      1.0000 0.46980  0.52520  0.82090  Biso   1.000  H
  C120     1.0000 0.38362  0.75530  0.83550  Biso   1.000  C
  C121     1.0000 0.36730  0.80950  0.75360  Biso   1.000  C
  C122     1.0000 0.31875  0.84920  0.73380  Biso   1.000  C
  H31      1.0000 0.30860  0.88420  0.67750  Biso   1.000  H
  C123     1.0000 0.28536  0.83650  0.79830  Biso   1.000  C
  C124     1.0000 0.30141  0.78370  0.88230  Biso   1.000  C
  H32      1.0000 0.27960  0.77570  0.92680  Biso   1.000  H
  C125     1.0000 0.34952  0.74310  0.89950  Biso   1.000  C
  C126     1.0000 0.36570  0.68730  0.99190  Biso   1.000  C
  C127     1.0000 0.23213  0.87730  0.77730  Biso   1.000  C
  C128     1.0000 0.37906  0.59960  0.73710  Biso   1.000  C
  Mn15     1.0000 0.63609  0.42858  0.85519  Biso   1.000  Mn
  N15      1.0000 0.49040  0.80700  0.97190  Biso   1.000  N
  N16      1.0000 0.40260  0.82850  0.68820  Biso   1.000  N
  O93      1.0000 0.57029  0.49247  0.88350  Biso   1.000  O
  O94      1.0000 0.60079  0.55308  0.03940  Biso   1.000  O
  O95      1.0000 0.44160  0.79240  0.69260  Biso   1.000  O
  O96      1.0000 0.52180  0.81600  0.05970  Biso   1.000  O
  O97      1.0000 0.46590  0.86150  0.92020  Biso   1.000  O
  O98      1.0000 0.21495  0.91070  0.68950  Biso   1.000  O
  O99      1.0000 0.20890  0.87680  0.84900  Biso   1.000  O
  O100     1.0000 0.35020  0.61750  0.98130  Biso   1.000  O
  O101     1.0000 0.39580  0.71280  0.07590  Biso   1.000  O
  O102     1.0000 0.36089  0.53174  0.75550  Biso   1.000  O
  O103     1.0000 0.35893  0.63980  0.65820  Biso   1.000  O
  Mn16     1.0000 0.67446  0.48920  0.11609  Biso   1.000  Mn
  O104     1.0000 0.38100  0.85990  0.59920  Biso   1.000  O
