data_image0
_cell_length_a       15.822
_cell_length_b       10.0614
_cell_length_c       18.6103
_cell_angle_alpha    90
_cell_angle_beta     104.292
_cell_angle_gamma    90

_symmetry_space_group_name_H-M    "P 1"
_symmetry_int_tables_number       1

loop_
  _symmetry_equiv_pos_as_xyz
  'x, y, z'

loop_
  _atom_site_label
  _atom_site_occupancy
  _atom_site_fract_x
  _atom_site_fract_y
  _atom_site_fract_z
  _atom_site_thermal_displace_type
  _atom_site_B_iso_or_equiv
  _atom_site_type_symbol
  V1       1.0000 0.16162  0.12474  0.08518  Biso   1.000  V
  V2       1.0000 0.74245  0.44856  0.78521  Biso   1.000  V
  V3       1.0000 0.19140  0.91490  0.78090  Biso   1.000  V
  P1       1.0000 0.84231  0.16633  0.83475  Biso   1.000  P
  P2       1.0000 0.20657  0.11775  0.92207  Biso   1.000  P
  O1       1.0000 0.77403  0.27390  0.83275  Biso   1.000  O
  O2       1.0000 0.83535  0.51120  0.78992  Biso   1.000  O
  O3       1.0000 0.83310  0.09580  0.76066  Biso   1.000  O
  O4       1.0000 0.20289  0.99090  0.87543  Biso   1.000  O
  O5       1.0000 0.20314  0.07060  0.99957  Biso   1.000  O
  O6       1.0000 0.83721  0.06910  0.89728  Biso   1.000  O
  O7       1.0000 0.28742  0.19850  0.92214  Biso   1.000  O
  O8       1.0000 0.20400  0.14810  0.19204  Biso   1.000  O
  C1       1.0000 0.94850  0.24250  0.85697  Biso   1.000  C
  H1       1.0000 0.95280  0.30230  0.81570  Biso   1.000  H
  H2       1.0000 0.95410  0.29810  0.90180  Biso   1.000  H
  C2       1.0000 0.11230  0.21880  0.88590  Biso   1.000  C
  H3       1.0000 0.11120  0.29150  0.92150  Biso   1.000  H
  H4       1.0000 0.11810  0.26000  0.83910  Biso   1.000  H
  C3       1.0000 0.02490  0.14490  0.87076  Biso   1.000  C
  H5       1.0000 0.01910  0.08690  0.82690  Biso   1.000  H
  H6       1.0000 0.02340  0.08790  0.91380  Biso   1.000  H
  H7       1.0000 0.21500  0.20500  0.19600  Biso   1.000  H
  V4       1.0000 0.66162  0.62474  0.08518  Biso   1.000  V
  V5       1.0000 0.24245  0.94856  0.78521  Biso   1.000  V
  V6       1.0000 0.69140  0.41490  0.78090  Biso   1.000  V
  P3       1.0000 0.34231  0.66633  0.83475  Biso   1.000  P
  P4       1.0000 0.70657  0.61775  0.92207  Biso   1.000  P
  O9       1.0000 0.27403  0.77390  0.83275  Biso   1.000  O
  O10      1.0000 0.33535  0.01120  0.78992  Biso   1.000  O
  O11      1.0000 0.33310  0.59580  0.76066  Biso   1.000  O
  O12      1.0000 0.70289  0.49090  0.87543  Biso   1.000  O
  O13      1.0000 0.70314  0.57060  0.99957  Biso   1.000  O
  O14      1.0000 0.33721  0.56910  0.89728  Biso   1.000  O
  O15      1.0000 0.78742  0.69850  0.92214  Biso   1.000  O
  O16      1.0000 0.70400  0.64810  0.19204  Biso   1.000  O
  C4       1.0000 0.44850  0.74250  0.85697  Biso   1.000  C
  H8       1.0000 0.45280  0.80230  0.81570  Biso   1.000  H
  H9       1.0000 0.45410  0.79810  0.90180  Biso   1.000  H
  C5       1.0000 0.61230  0.71880  0.88590  Biso   1.000  C
  H10      1.0000 0.61120  0.79150  0.92150  Biso   1.000  H
  H11      1.0000 0.61810  0.76000  0.83910  Biso   1.000  H
  C6       1.0000 0.52490  0.64490  0.87076  Biso   1.000  C
  H12      1.0000 0.51910  0.58690  0.82690  Biso   1.000  H
  H13      1.0000 0.52340  0.58790  0.91380  Biso   1.000  H
  H14      1.0000 0.71500  0.70500  0.19600  Biso   1.000  H
  V7       1.0000 0.83838  0.12474  0.41482  Biso   1.000  V
  V8       1.0000 0.25755  0.44856  0.71479  Biso   1.000  V
  V9       1.0000 0.80860  0.91490  0.71910  Biso   1.000  V
  P5       1.0000 0.15769  0.16633  0.66525  Biso   1.000  P
  P6       1.0000 0.79343  0.11775  0.57793  Biso   1.000  P
  O17      1.0000 0.22597  0.27390  0.66725  Biso   1.000  O
  O18      1.0000 0.16465  0.51120  0.71008  Biso   1.000  O
  O19      1.0000 0.16690  0.09580  0.73934  Biso   1.000  O
  O20      1.0000 0.79711  0.99090  0.62457  Biso   1.000  O
  O21      1.0000 0.79686  0.07060  0.50043  Biso   1.000  O
  O22      1.0000 0.16279  0.06910  0.60272  Biso   1.000  O
  O23      1.0000 0.71258  0.19850  0.57786  Biso   1.000  O
  O24      1.0000 0.79600  0.14810  0.30796  Biso   1.000  O
  C7       1.0000 0.05150  0.24250  0.64303  Biso   1.000  C
  H15      1.0000 0.04720  0.30230  0.68430  Biso   1.000  H
  H16      1.0000 0.04590  0.29810  0.59820  Biso   1.000  H
  C8       1.0000 0.88770  0.21880  0.61410  Biso   1.000  C
  H17      1.0000 0.88880  0.29150  0.57850  Biso   1.000  H
  H18      1.0000 0.88190  0.26000  0.66090  Biso   1.000  H
  C9       1.0000 0.97510  0.14490  0.62924  Biso   1.000  C
  H19      1.0000 0.98090  0.08690  0.67310  Biso   1.000  H
  H20      1.0000 0.97660  0.08790  0.58620  Biso   1.000  H
  H21      1.0000 0.78500  0.20500  0.30400  Biso   1.000  H
  V10      1.0000 0.33838  0.62474  0.41482  Biso   1.000  V
  V11      1.0000 0.75755  0.94856  0.71479  Biso   1.000  V
  V12      1.0000 0.30860  0.41490  0.71910  Biso   1.000  V
  P7       1.0000 0.65769  0.66633  0.66525  Biso   1.000  P
  P8       1.0000 0.29343  0.61775  0.57793  Biso   1.000  P
  O25      1.0000 0.72597  0.77390  0.66725  Biso   1.000  O
  O26      1.0000 0.66465  0.01120  0.71008  Biso   1.000  O
  O27      1.0000 0.66690  0.59580  0.73934  Biso   1.000  O
  O28      1.0000 0.29711  0.49090  0.62457  Biso   1.000  O
  O29      1.0000 0.29686  0.57060  0.50043  Biso   1.000  O
  O30      1.0000 0.66279  0.56910  0.60272  Biso   1.000  O
  O31      1.0000 0.21258  0.69850  0.57786  Biso   1.000  O
  O32      1.0000 0.29600  0.64810  0.30796  Biso   1.000  O
  C10      1.0000 0.55150  0.74250  0.64303  Biso   1.000  C
  H22      1.0000 0.54720  0.80230  0.68430  Biso   1.000  H
  H23      1.0000 0.54590  0.79810  0.59820  Biso   1.000  H
  C11      1.0000 0.38770  0.71880  0.61410  Biso   1.000  C
  H24      1.0000 0.38880  0.79150  0.57850  Biso   1.000  H
  H25      1.0000 0.38190  0.76000  0.66090  Biso   1.000  H
  C12      1.0000 0.47510  0.64490  0.62924  Biso   1.000  C
  H26      1.0000 0.48090  0.58690  0.67310  Biso   1.000  H
  H27      1.0000 0.47660  0.58790  0.58620  Biso   1.000  H
  H28      1.0000 0.28500  0.70500  0.30400  Biso   1.000  H
  V13      1.0000 0.83838  0.87526  0.91482  Biso   1.000  V
  V14      1.0000 0.25755  0.55144  0.21479  Biso   1.000  V
  V15      1.0000 0.80860  0.08510  0.21910  Biso   1.000  V
  P9       1.0000 0.15769  0.83367  0.16525  Biso   1.000  P
  P10      1.0000 0.79343  0.88225  0.07793  Biso   1.000  P
  O33      1.0000 0.22597  0.72610  0.16725  Biso   1.000  O
  O34      1.0000 0.16465  0.48880  0.21008  Biso   1.000  O
  O35      1.0000 0.16690  0.90420  0.23934  Biso   1.000  O
  O36      1.0000 0.79711  0.00910  0.12457  Biso   1.000  O
  O37      1.0000 0.79686  0.92940  0.00043  Biso   1.000  O
  O38      1.0000 0.16279  0.93090  0.10272  Biso   1.000  O
  O39      1.0000 0.71258  0.80150  0.07786  Biso   1.000  O
  O40      1.0000 0.79600  0.85190  0.80796  Biso   1.000  O
  C13      1.0000 0.05150  0.75750  0.14303  Biso   1.000  C
  H29      1.0000 0.04720  0.69770  0.18430  Biso   1.000  H
  H30      1.0000 0.04590  0.70190  0.09820  Biso   1.000  H
  C14      1.0000 0.88770  0.78120  0.11410  Biso   1.000  C
  H31      1.0000 0.88880  0.70850  0.07850  Biso   1.000  H
  H32      1.0000 0.88190  0.74000  0.16090  Biso   1.000  H
  C15      1.0000 0.97510  0.85510  0.12924  Biso   1.000  C
  H33      1.0000 0.98090  0.91310  0.17310  Biso   1.000  H
  H34      1.0000 0.97660  0.91210  0.08620  Biso   1.000  H
  H35      1.0000 0.78500  0.79500  0.80400  Biso   1.000  H
  V16      1.0000 0.33838  0.37526  0.91482  Biso   1.000  V
  V17      1.0000 0.75755  0.05144  0.21479  Biso   1.000  V
  V18      1.0000 0.30860  0.58510  0.21910  Biso   1.000  V
  P11      1.0000 0.65769  0.33367  0.16525  Biso   1.000  P
  P12      1.0000 0.29343  0.38225  0.07793  Biso   1.000  P
  O41      1.0000 0.72597  0.22610  0.16725  Biso   1.000  O
  O42      1.0000 0.66465  0.98880  0.21008  Biso   1.000  O
  O43      1.0000 0.66690  0.40420  0.23934  Biso   1.000  O
  O44      1.0000 0.29711  0.50910  0.12457  Biso   1.000  O
  O45      1.0000 0.29686  0.42940  0.00043  Biso   1.000  O
  O46      1.0000 0.66279  0.43090  0.10272  Biso   1.000  O
  O47      1.0000 0.21258  0.30150  0.07786  Biso   1.000  O
  O48      1.0000 0.29600  0.35190  0.80796  Biso   1.000  O
  C16      1.0000 0.55150  0.25750  0.14303  Biso   1.000  C
  H36      1.0000 0.54720  0.19770  0.18430  Biso   1.000  H
  H37      1.0000 0.54590  0.20190  0.09820  Biso   1.000  H
  C17      1.0000 0.38770  0.28120  0.11410  Biso   1.000  C
  H38      1.0000 0.38880  0.20850  0.07850  Biso   1.000  H
  H39      1.0000 0.38190  0.24000  0.16090  Biso   1.000  H
  C18      1.0000 0.47510  0.35510  0.12924  Biso   1.000  C
  H40      1.0000 0.48090  0.41310  0.17310  Biso   1.000  H
  H41      1.0000 0.47660  0.41210  0.08620  Biso   1.000  H
  H42      1.0000 0.28500  0.29500  0.80400  Biso   1.000  H
  V19      1.0000 0.16162  0.87526  0.58518  Biso   1.000  V
  V20      1.0000 0.74245  0.55144  0.28521  Biso   1.000  V
  V21      1.0000 0.19140  0.08510  0.28090  Biso   1.000  V
  P13      1.0000 0.84231  0.83367  0.33475  Biso   1.000  P
  P14      1.0000 0.20657  0.88225  0.42207  Biso   1.000  P
  O49      1.0000 0.77403  0.72610  0.33275  Biso   1.000  O
  O50      1.0000 0.83535  0.48880  0.28992  Biso   1.000  O
  O51      1.0000 0.83310  0.90420  0.26066  Biso   1.000  O
  O52      1.0000 0.20289  0.00910  0.37543  Biso   1.000  O
  O53      1.0000 0.20314  0.92940  0.49957  Biso   1.000  O
  O54      1.0000 0.83721  0.93090  0.39728  Biso   1.000  O
  O55      1.0000 0.28742  0.80150  0.42214  Biso   1.000  O
  O56      1.0000 0.20400  0.85190  0.69204  Biso   1.000  O
  C19      1.0000 0.94850  0.75750  0.35697  Biso   1.000  C
  H43      1.0000 0.95280  0.69770  0.31570  Biso   1.000  H
  H44      1.0000 0.95410  0.70190  0.40180  Biso   1.000  H
  C20      1.0000 0.11230  0.78120  0.38590  Biso   1.000  C
  H45      1.0000 0.11120  0.70850  0.42150  Biso   1.000  H
  H46      1.0000 0.11810  0.74000  0.33910  Biso   1.000  H
  C21      1.0000 0.02490  0.85510  0.37076  Biso   1.000  C
  H47      1.0000 0.01910  0.91310  0.32690  Biso   1.000  H
  H48      1.0000 0.02340  0.91210  0.41380  Biso   1.000  H
  H49      1.0000 0.21500  0.79500  0.69600  Biso   1.000  H
  V22      1.0000 0.66162  0.37526  0.58518  Biso   1.000  V
  V23      1.0000 0.24245  0.05144  0.28521  Biso   1.000  V
  V24      1.0000 0.69140  0.58510  0.28090  Biso   1.000  V
  P15      1.0000 0.34231  0.33367  0.33475  Biso   1.000  P
  P16      1.0000 0.70657  0.38225  0.42207  Biso   1.000  P
  O57      1.0000 0.27403  0.22610  0.33275  Biso   1.000  O
  O58      1.0000 0.33535  0.98880  0.28992  Biso   1.000  O
  O59      1.0000 0.33310  0.40420  0.26066  Biso   1.000  O
  O60      1.0000 0.70289  0.50910  0.37543  Biso   1.000  O
  O61      1.0000 0.70314  0.42940  0.49957  Biso   1.000  O
  O62      1.0000 0.33721  0.43090  0.39728  Biso   1.000  O
  O63      1.0000 0.78742  0.30150  0.42214  Biso   1.000  O
  O64      1.0000 0.70400  0.35190  0.69204  Biso   1.000  O
  C22      1.0000 0.44850  0.25750  0.35697  Biso   1.000  C
  H50      1.0000 0.45280  0.19770  0.31570  Biso   1.000  H
  H51      1.0000 0.45410  0.20190  0.40180  Biso   1.000  H
  C23      1.0000 0.61230  0.28120  0.38590  Biso   1.000  C
  H52      1.0000 0.61120  0.20850  0.42150  Biso   1.000  H
  H53      1.0000 0.61810  0.24000  0.33910  Biso   1.000  H
  C24      1.0000 0.52490  0.35510  0.37076  Biso   1.000  C
  H54      1.0000 0.51910  0.41310  0.32690  Biso   1.000  H
  H55      1.0000 0.52340  0.41210  0.41380  Biso   1.000  H
  H56      1.0000 0.71500  0.29500  0.69600  Biso   1.000  H
