data_image0
_cell_length_a       15.2345
_cell_length_b       10.1817
_cell_length_c       18.6968
_cell_angle_alpha    90
_cell_angle_beta     103.524
_cell_angle_gamma    90

_symmetry_space_group_name_H-M    "P 1"
_symmetry_int_tables_number       1

loop_
  _symmetry_equiv_pos_as_xyz
  'x, y, z'

loop_
  _atom_site_label
  _atom_site_occupancy
  _atom_site_fract_x
  _atom_site_fract_y
  _atom_site_fract_z
  _atom_site_thermal_displace_type
  _atom_site_B_iso_or_equiv
  _atom_site_type_symbol
  V1       1.0000 0.75200  0.95280  0.21718  Biso   1.000  V
  O1       1.0000 0.65430  0.00840  0.21650  Biso   1.000  O
  V2       1.0000 0.80470  0.92500  0.21870  Biso   1.000  V
  O2       1.0000 0.90940  0.87700  0.22920  Biso   1.000  O
  V3       1.0000 0.16193  0.88449  0.08390  Biso   1.000  V
  P1       1.0000 0.66171  0.66724  0.16590  Biso   1.000  P
  P2       1.0000 0.28554  0.61826  0.07647  Biso   1.000  P
  O3       1.0000 0.73127  0.77730  0.17113  Biso   1.000  O
  O4       1.0000 0.66980  0.59820  0.23971  Biso   1.000  O
  O5       1.0000 0.28635  0.49670  0.12477  Biso   1.000  O
  O6       1.0000 0.20163  0.70090  0.07478  Biso   1.000  O
  O7       1.0000 0.79520  0.85510  0.30972  Biso   1.000  O
  O8       1.0000 0.67459  0.57350  0.10537  Biso   1.000  O
  O9       1.0000 0.28952  0.56800  0.00036  Biso   1.000  O
  C1       1.0000 0.55210  0.73910  0.14190  Biso   1.000  C
  H1       1.0000 0.54580  0.79920  0.18200  Biso   1.000  H
  H2       1.0000 0.54770  0.79290  0.09710  Biso   1.000  H
  C2       1.0000 0.47270  0.64310  0.12770  Biso   1.000  C
  H3       1.0000 0.47690  0.58640  0.17140  Biso   1.000  H
  H4       1.0000 0.47550  0.58610  0.08540  Biso   1.000  H
  C3       1.0000 0.38260  0.71730  0.11140  Biso   1.000  C
  H5       1.0000 0.38490  0.78760  0.07530  Biso   1.000  H
  H6       1.0000 0.37550  0.76010  0.15730  Biso   1.000  H
  H7       1.0000 0.78500  0.79200  0.30500  Biso   1.000  H
  V4       1.0000 0.25200  0.45280  0.21718  Biso   1.000  V
  O10      1.0000 0.15430  0.50840  0.21650  Biso   1.000  O
  V5       1.0000 0.30470  0.42500  0.21870  Biso   1.000  V
  O11      1.0000 0.40940  0.37700  0.22920  Biso   1.000  O
  V6       1.0000 0.66193  0.38449  0.08390  Biso   1.000  V
  P3       1.0000 0.16171  0.16724  0.16590  Biso   1.000  P
  P4       1.0000 0.78554  0.11826  0.07647  Biso   1.000  P
  O12      1.0000 0.23127  0.27730  0.17113  Biso   1.000  O
  O13      1.0000 0.16980  0.09820  0.23971  Biso   1.000  O
  O14      1.0000 0.78635  0.99670  0.12477  Biso   1.000  O
  O15      1.0000 0.70163  0.20090  0.07478  Biso   1.000  O
  O16      1.0000 0.29520  0.35510  0.30972  Biso   1.000  O
  O17      1.0000 0.17459  0.07350  0.10537  Biso   1.000  O
  O18      1.0000 0.78952  0.06800  0.00036  Biso   1.000  O
  C4       1.0000 0.05210  0.23910  0.14190  Biso   1.000  C
  H8       1.0000 0.04580  0.29920  0.18200  Biso   1.000  H
  H9       1.0000 0.04770  0.29290  0.09710  Biso   1.000  H
  C5       1.0000 0.97270  0.14310  0.12770  Biso   1.000  C
  H10      1.0000 0.97690  0.08640  0.17140  Biso   1.000  H
  H11      1.0000 0.97550  0.08610  0.08540  Biso   1.000  H
  C6       1.0000 0.88260  0.21730  0.11140  Biso   1.000  C
  H12      1.0000 0.88490  0.28760  0.07530  Biso   1.000  H
  H13      1.0000 0.87550  0.26010  0.15730  Biso   1.000  H
  H14      1.0000 0.28500  0.29200  0.30500  Biso   1.000  H
  V7       1.0000 0.24800  0.95280  0.28282  Biso   1.000  V
  O19      1.0000 0.34570  0.00840  0.28350  Biso   1.000  O
  V8       1.0000 0.19530  0.92500  0.28130  Biso   1.000  V
  O20      1.0000 0.09060  0.87700  0.27080  Biso   1.000  O
  V9       1.0000 0.83807  0.88449  0.41610  Biso   1.000  V
  P5       1.0000 0.33829  0.66724  0.33410  Biso   1.000  P
  P6       1.0000 0.71446  0.61826  0.42353  Biso   1.000  P
  O21      1.0000 0.26873  0.77730  0.32887  Biso   1.000  O
  O22      1.0000 0.33020  0.59820  0.26029  Biso   1.000  O
  O23      1.0000 0.71365  0.49670  0.37523  Biso   1.000  O
  O24      1.0000 0.79837  0.70090  0.42522  Biso   1.000  O
  O25      1.0000 0.20480  0.85510  0.19028  Biso   1.000  O
  O26      1.0000 0.32541  0.57350  0.39463  Biso   1.000  O
  O27      1.0000 0.71048  0.56800  0.49964  Biso   1.000  O
  C7       1.0000 0.44790  0.73910  0.35810  Biso   1.000  C
  H15      1.0000 0.45420  0.79920  0.31800  Biso   1.000  H
  H16      1.0000 0.45230  0.79290  0.40290  Biso   1.000  H
  C8       1.0000 0.52730  0.64310  0.37230  Biso   1.000  C
  H17      1.0000 0.52310  0.58640  0.32860  Biso   1.000  H
  H18      1.0000 0.52450  0.58610  0.41460  Biso   1.000  H
  C9       1.0000 0.61740  0.71730  0.38860  Biso   1.000  C
  H19      1.0000 0.61510  0.78760  0.42470  Biso   1.000  H
  H20      1.0000 0.62450  0.76010  0.34270  Biso   1.000  H
  H21      1.0000 0.21500  0.79200  0.19500  Biso   1.000  H
  V10      1.0000 0.74800  0.45280  0.28282  Biso   1.000  V
  O28      1.0000 0.84570  0.50840  0.28350  Biso   1.000  O
  V11      1.0000 0.69530  0.42500  0.28130  Biso   1.000  V
  O29      1.0000 0.59060  0.37700  0.27080  Biso   1.000  O
  V12      1.0000 0.33807  0.38449  0.41610  Biso   1.000  V
  P7       1.0000 0.83829  0.16724  0.33410  Biso   1.000  P
  P8       1.0000 0.21446  0.11826  0.42353  Biso   1.000  P
  O30      1.0000 0.76873  0.27730  0.32887  Biso   1.000  O
  O31      1.0000 0.83020  0.09820  0.26029  Biso   1.000  O
  O32      1.0000 0.21365  0.99670  0.37523  Biso   1.000  O
  O33      1.0000 0.29837  0.20090  0.42522  Biso   1.000  O
  O34      1.0000 0.70480  0.35510  0.19028  Biso   1.000  O
  O35      1.0000 0.82541  0.07350  0.39463  Biso   1.000  O
  O36      1.0000 0.21048  0.06800  0.49964  Biso   1.000  O
  C10      1.0000 0.94790  0.23910  0.35810  Biso   1.000  C
  H22      1.0000 0.95420  0.29920  0.31800  Biso   1.000  H
  H23      1.0000 0.95230  0.29290  0.40290  Biso   1.000  H
  C11      1.0000 0.02730  0.14310  0.37230  Biso   1.000  C
  H24      1.0000 0.02310  0.08640  0.32860  Biso   1.000  H
  H25      1.0000 0.02450  0.08610  0.41460  Biso   1.000  H
  C12      1.0000 0.11740  0.21730  0.38860  Biso   1.000  C
  H26      1.0000 0.11510  0.28760  0.42470  Biso   1.000  H
  H27      1.0000 0.12450  0.26010  0.34270  Biso   1.000  H
  H28      1.0000 0.71500  0.29200  0.19500  Biso   1.000  H
  V13      1.0000 0.24800  0.04720  0.78282  Biso   1.000  V
  O37      1.0000 0.34570  0.99160  0.78350  Biso   1.000  O
  V14      1.0000 0.19530  0.07500  0.78130  Biso   1.000  V
  O38      1.0000 0.09060  0.12300  0.77080  Biso   1.000  O
  V15      1.0000 0.83807  0.11551  0.91610  Biso   1.000  V
  P9       1.0000 0.33829  0.33276  0.83410  Biso   1.000  P
  P10      1.0000 0.71446  0.38174  0.92353  Biso   1.000  P
  O39      1.0000 0.26873  0.22270  0.82887  Biso   1.000  O
  O40      1.0000 0.33020  0.40180  0.76029  Biso   1.000  O
  O41      1.0000 0.71365  0.50330  0.87523  Biso   1.000  O
  O42      1.0000 0.79837  0.29910  0.92522  Biso   1.000  O
  O43      1.0000 0.20480  0.14490  0.69028  Biso   1.000  O
  O44      1.0000 0.32541  0.42650  0.89463  Biso   1.000  O
  O45      1.0000 0.71048  0.43200  0.99964  Biso   1.000  O
  C13      1.0000 0.44790  0.26090  0.85810  Biso   1.000  C
  H29      1.0000 0.45420  0.20080  0.81800  Biso   1.000  H
  H30      1.0000 0.45230  0.20710  0.90290  Biso   1.000  H
  C14      1.0000 0.52730  0.35690  0.87230  Biso   1.000  C
  H31      1.0000 0.52310  0.41360  0.82860  Biso   1.000  H
  H32      1.0000 0.52450  0.41390  0.91460  Biso   1.000  H
  C15      1.0000 0.61740  0.28270  0.88860  Biso   1.000  C
  H33      1.0000 0.61510  0.21240  0.92470  Biso   1.000  H
  H34      1.0000 0.62450  0.23990  0.84270  Biso   1.000  H
  H35      1.0000 0.21500  0.20800  0.69500  Biso   1.000  H
  V16      1.0000 0.74800  0.54720  0.78282  Biso   1.000  V
  O46      1.0000 0.84570  0.49160  0.78350  Biso   1.000  O
  V17      1.0000 0.69530  0.57500  0.78130  Biso   1.000  V
  O47      1.0000 0.59060  0.62300  0.77080  Biso   1.000  O
  V18      1.0000 0.33807  0.61551  0.91610  Biso   1.000  V
  P11      1.0000 0.83829  0.83276  0.83410  Biso   1.000  P
  P12      1.0000 0.21446  0.88174  0.92353  Biso   1.000  P
  O48      1.0000 0.76873  0.72270  0.82887  Biso   1.000  O
  O49      1.0000 0.83020  0.90180  0.76029  Biso   1.000  O
  O50      1.0000 0.21365  0.00330  0.87523  Biso   1.000  O
  O51      1.0000 0.29837  0.79910  0.92522  Biso   1.000  O
  O52      1.0000 0.70480  0.64490  0.69028  Biso   1.000  O
  O53      1.0000 0.82541  0.92650  0.89463  Biso   1.000  O
  O54      1.0000 0.21048  0.93200  0.99964  Biso   1.000  O
  C16      1.0000 0.94790  0.76090  0.85810  Biso   1.000  C
  H36      1.0000 0.95420  0.70080  0.81800  Biso   1.000  H
  H37      1.0000 0.95230  0.70710  0.90290  Biso   1.000  H
  C17      1.0000 0.02730  0.85690  0.87230  Biso   1.000  C
  H38      1.0000 0.02310  0.91360  0.82860  Biso   1.000  H
  H39      1.0000 0.02450  0.91390  0.91460  Biso   1.000  H
  C18      1.0000 0.11740  0.78270  0.88860  Biso   1.000  C
  H40      1.0000 0.11510  0.71240  0.92470  Biso   1.000  H
  H41      1.0000 0.12450  0.73990  0.84270  Biso   1.000  H
  H42      1.0000 0.71500  0.70800  0.69500  Biso   1.000  H
  V19      1.0000 0.75200  0.04720  0.71718  Biso   1.000  V
  O55      1.0000 0.65430  0.99160  0.71650  Biso   1.000  O
  V20      1.0000 0.80470  0.07500  0.71870  Biso   1.000  V
  O56      1.0000 0.90940  0.12300  0.72920  Biso   1.000  O
  V21      1.0000 0.16193  0.11551  0.58390  Biso   1.000  V
  P13      1.0000 0.66171  0.33276  0.66590  Biso   1.000  P
  P14      1.0000 0.28554  0.38174  0.57647  Biso   1.000  P
  O57      1.0000 0.73127  0.22270  0.67113  Biso   1.000  O
  O58      1.0000 0.66980  0.40180  0.73971  Biso   1.000  O
  O59      1.0000 0.28635  0.50330  0.62477  Biso   1.000  O
  O60      1.0000 0.20163  0.29910  0.57478  Biso   1.000  O
  O61      1.0000 0.79520  0.14490  0.80972  Biso   1.000  O
  O62      1.0000 0.67459  0.42650  0.60537  Biso   1.000  O
  O63      1.0000 0.28952  0.43200  0.50036  Biso   1.000  O
  C19      1.0000 0.55210  0.26090  0.64190  Biso   1.000  C
  H43      1.0000 0.54580  0.20080  0.68200  Biso   1.000  H
  H44      1.0000 0.54770  0.20710  0.59710  Biso   1.000  H
  C20      1.0000 0.47270  0.35690  0.62770  Biso   1.000  C
  H45      1.0000 0.47690  0.41360  0.67140  Biso   1.000  H
  H46      1.0000 0.47550  0.41390  0.58540  Biso   1.000  H
  C21      1.0000 0.38260  0.28270  0.61140  Biso   1.000  C
  H47      1.0000 0.38490  0.21240  0.57530  Biso   1.000  H
  H48      1.0000 0.37550  0.23990  0.65730  Biso   1.000  H
  H49      1.0000 0.78500  0.20800  0.80500  Biso   1.000  H
  V22      1.0000 0.25200  0.54720  0.71718  Biso   1.000  V
  O64      1.0000 0.15430  0.49160  0.71650  Biso   1.000  O
  V23      1.0000 0.30470  0.57500  0.71870  Biso   1.000  V
  O65      1.0000 0.40940  0.62300  0.72920  Biso   1.000  O
  V24      1.0000 0.66193  0.61551  0.58390  Biso   1.000  V
  P15      1.0000 0.16171  0.83276  0.66590  Biso   1.000  P
  P16      1.0000 0.78554  0.88174  0.57647  Biso   1.000  P
  O66      1.0000 0.23127  0.72270  0.67113  Biso   1.000  O
  O67      1.0000 0.16980  0.90180  0.73971  Biso   1.000  O
  O68      1.0000 0.78635  0.00330  0.62477  Biso   1.000  O
  O69      1.0000 0.70163  0.79910  0.57478  Biso   1.000  O
  O70      1.0000 0.29520  0.64490  0.80972  Biso   1.000  O
  O71      1.0000 0.17459  0.92650  0.60537  Biso   1.000  O
  O72      1.0000 0.78952  0.93200  0.50036  Biso   1.000  O
  C22      1.0000 0.05210  0.76090  0.64190  Biso   1.000  C
  H50      1.0000 0.04580  0.70080  0.68200  Biso   1.000  H
  H51      1.0000 0.04770  0.70710  0.59710  Biso   1.000  H
  C23      1.0000 0.97270  0.85690  0.62770  Biso   1.000  C
  H52      1.0000 0.97690  0.91360  0.67140  Biso   1.000  H
  H53      1.0000 0.97550  0.91390  0.58540  Biso   1.000  H
  C24      1.0000 0.88260  0.78270  0.61140  Biso   1.000  C
  H54      1.0000 0.88490  0.71240  0.57530  Biso   1.000  H
  H55      1.0000 0.87550  0.73990  0.65730  Biso   1.000  H
  H56      1.0000 0.28500  0.70800  0.80500  Biso   1.000  H
