data_image0
_cell_length_a       15.4228
_cell_length_b       10.2047
_cell_length_c       18.7078
_cell_angle_alpha    90
_cell_angle_beta     103.835
_cell_angle_gamma    90

_symmetry_space_group_name_H-M    "P 1"
_symmetry_int_tables_number       1

loop_
  _symmetry_equiv_pos_as_xyz
  'x, y, z'

loop_
  _atom_site_label
  _atom_site_occupancy
  _atom_site_fract_x
  _atom_site_fract_y
  _atom_site_fract_z
  _atom_site_thermal_displace_type
  _atom_site_B_iso_or_equiv
  _atom_site_type_symbol
  V1       1.0000 0.16434  0.12191  0.08617  Biso   1.000  V
  V2       1.0000 0.24587  0.05145  0.28487  Biso   1.000  V
  V3       1.0000 0.18727  0.91703  0.78053  Biso   1.000  V
  P1       1.0000 0.29103  0.38197  0.07722  Biso   1.000  P
  P2       1.0000 0.66486  0.33569  0.16595  Biso   1.000  P
  O1       1.0000 0.20873  0.29907  0.07397  Biso   1.000  O
  O2       1.0000 0.21375  0.14690  0.19040  Biso   1.000  O
  O3       1.0000 0.67016  0.43049  0.10343  Biso   1.000  O
  O4       1.0000 0.29677  0.43072  0.00092  Biso   1.000  O
  O5       1.0000 0.29101  0.50534  0.12369  Biso   1.000  O
  O6       1.0000 0.73269  0.22657  0.16785  Biso   1.000  O
  O7       1.0000 0.67724  0.40470  0.23993  Biso   1.000  O
  C1       1.0000 0.38812  0.28410  0.11431  Biso   1.000  C
  H1       1.0000 0.39010  0.21140  0.07970  Biso   1.000  H
  H2       1.0000 0.38180  0.24490  0.16120  Biso   1.000  H
  C2       1.0000 0.47733  0.35840  0.12867  Biso   1.000  C
  H3       1.0000 0.48180  0.41880  0.17080  Biso   1.000  H
  H4       1.0000 0.47980  0.41130  0.08490  Biso   1.000  H
  C3       1.0000 0.55552  0.26250  0.14545  Biso   1.000  C
  H5       1.0000 0.55030  0.20770  0.18790  Biso   1.000  H
  H6       1.0000 0.55030  0.20360  0.10260  Biso   1.000  H
  H7       1.0000 0.22000  0.21300  0.19500  Biso   1.000  H
  V4       1.0000 0.66434  0.62191  0.08617  Biso   1.000  V
  V5       1.0000 0.74587  0.55145  0.28487  Biso   1.000  V
  V6       1.0000 0.68727  0.41703  0.78053  Biso   1.000  V
  P3       1.0000 0.79103  0.88197  0.07722  Biso   1.000  P
  P4       1.0000 0.16486  0.83569  0.16595  Biso   1.000  P
  O8       1.0000 0.70873  0.79907  0.07397  Biso   1.000  O
  O9       1.0000 0.71375  0.64690  0.19040  Biso   1.000  O
  O10      1.0000 0.17016  0.93049  0.10343  Biso   1.000  O
  O11      1.0000 0.79677  0.93072  0.00092  Biso   1.000  O
  O12      1.0000 0.79101  0.00534  0.12369  Biso   1.000  O
  O13      1.0000 0.23269  0.72657  0.16785  Biso   1.000  O
  O14      1.0000 0.17724  0.90470  0.23993  Biso   1.000  O
  C4       1.0000 0.88812  0.78410  0.11431  Biso   1.000  C
  H8       1.0000 0.89010  0.71140  0.07970  Biso   1.000  H
  H9       1.0000 0.88180  0.74490  0.16120  Biso   1.000  H
  C5       1.0000 0.97733  0.85840  0.12867  Biso   1.000  C
  H10      1.0000 0.98180  0.91880  0.17080  Biso   1.000  H
  H11      1.0000 0.97980  0.91130  0.08490  Biso   1.000  H
  C6       1.0000 0.05552  0.76250  0.14545  Biso   1.000  C
  H12      1.0000 0.05030  0.70770  0.18790  Biso   1.000  H
  H13      1.0000 0.05030  0.70360  0.10260  Biso   1.000  H
  H14      1.0000 0.72000  0.71300  0.19500  Biso   1.000  H
  V7       1.0000 0.83566  0.12191  0.41383  Biso   1.000  V
  V8       1.0000 0.75413  0.05145  0.21513  Biso   1.000  V
  V9       1.0000 0.81273  0.91703  0.71947  Biso   1.000  V
  P5       1.0000 0.70897  0.38197  0.42278  Biso   1.000  P
  P6       1.0000 0.33514  0.33569  0.33405  Biso   1.000  P
  O15      1.0000 0.79127  0.29907  0.42603  Biso   1.000  O
  O16      1.0000 0.78625  0.14690  0.30960  Biso   1.000  O
  O17      1.0000 0.32984  0.43049  0.39657  Biso   1.000  O
  O18      1.0000 0.70323  0.43072  0.49908  Biso   1.000  O
  O19      1.0000 0.70899  0.50534  0.37631  Biso   1.000  O
  O20      1.0000 0.26731  0.22657  0.33215  Biso   1.000  O
  O21      1.0000 0.32276  0.40470  0.26007  Biso   1.000  O
  C7       1.0000 0.61188  0.28410  0.38569  Biso   1.000  C
  H15      1.0000 0.60990  0.21140  0.42030  Biso   1.000  H
  H16      1.0000 0.61820  0.24490  0.33880  Biso   1.000  H
  C8       1.0000 0.52267  0.35840  0.37133  Biso   1.000  C
  H17      1.0000 0.51820  0.41880  0.32920  Biso   1.000  H
  H18      1.0000 0.52020  0.41130  0.41510  Biso   1.000  H
  C9       1.0000 0.44448  0.26250  0.35455  Biso   1.000  C
  H19      1.0000 0.44970  0.20770  0.31210  Biso   1.000  H
  H20      1.0000 0.44970  0.20360  0.39740  Biso   1.000  H
  H21      1.0000 0.78000  0.21300  0.30500  Biso   1.000  H
  V10      1.0000 0.33566  0.62191  0.41383  Biso   1.000  V
  V11      1.0000 0.25413  0.55145  0.21513  Biso   1.000  V
  V12      1.0000 0.31273  0.41703  0.71947  Biso   1.000  V
  P7       1.0000 0.20897  0.88197  0.42278  Biso   1.000  P
  P8       1.0000 0.83514  0.83569  0.33405  Biso   1.000  P
  O22      1.0000 0.29127  0.79907  0.42603  Biso   1.000  O
  O23      1.0000 0.28625  0.64690  0.30960  Biso   1.000  O
  O24      1.0000 0.82984  0.93049  0.39657  Biso   1.000  O
  O25      1.0000 0.20323  0.93072  0.49908  Biso   1.000  O
  O26      1.0000 0.20899  0.00534  0.37631  Biso   1.000  O
  O27      1.0000 0.76731  0.72657  0.33215  Biso   1.000  O
  O28      1.0000 0.82276  0.90470  0.26007  Biso   1.000  O
  C10      1.0000 0.11188  0.78410  0.38569  Biso   1.000  C
  H22      1.0000 0.10990  0.71140  0.42030  Biso   1.000  H
  H23      1.0000 0.11820  0.74490  0.33880  Biso   1.000  H
  C11      1.0000 0.02267  0.85840  0.37133  Biso   1.000  C
  H24      1.0000 0.01820  0.91880  0.32920  Biso   1.000  H
  H25      1.0000 0.02020  0.91130  0.41510  Biso   1.000  H
  C12      1.0000 0.94448  0.76250  0.35455  Biso   1.000  C
  H26      1.0000 0.94970  0.70770  0.31210  Biso   1.000  H
  H27      1.0000 0.94970  0.70360  0.39740  Biso   1.000  H
  H28      1.0000 0.28000  0.71300  0.30500  Biso   1.000  H
  V13      1.0000 0.83566  0.87809  0.91383  Biso   1.000  V
  V14      1.0000 0.75413  0.94855  0.71513  Biso   1.000  V
  V15      1.0000 0.81273  0.08297  0.21947  Biso   1.000  V
  P9       1.0000 0.70897  0.61803  0.92278  Biso   1.000  P
  P10      1.0000 0.33514  0.66431  0.83405  Biso   1.000  P
  O29      1.0000 0.79127  0.70093  0.92603  Biso   1.000  O
  O30      1.0000 0.78625  0.85310  0.80960  Biso   1.000  O
  O31      1.0000 0.32984  0.56951  0.89657  Biso   1.000  O
  O32      1.0000 0.70323  0.56928  0.99908  Biso   1.000  O
  O33      1.0000 0.70899  0.49466  0.87631  Biso   1.000  O
  O34      1.0000 0.26731  0.77343  0.83215  Biso   1.000  O
  O35      1.0000 0.32276  0.59530  0.76007  Biso   1.000  O
  C13      1.0000 0.61188  0.71590  0.88569  Biso   1.000  C
  H29      1.0000 0.60990  0.78860  0.92030  Biso   1.000  H
  H30      1.0000 0.61820  0.75510  0.83880  Biso   1.000  H
  C14      1.0000 0.52267  0.64160  0.87133  Biso   1.000  C
  H31      1.0000 0.51820  0.58120  0.82920  Biso   1.000  H
  H32      1.0000 0.52020  0.58870  0.91510  Biso   1.000  H
  C15      1.0000 0.44448  0.73750  0.85455  Biso   1.000  C
  H33      1.0000 0.44970  0.79230  0.81210  Biso   1.000  H
  H34      1.0000 0.44970  0.79640  0.89740  Biso   1.000  H
  H35      1.0000 0.78000  0.78700  0.80500  Biso   1.000  H
  V16      1.0000 0.33566  0.37809  0.91383  Biso   1.000  V
  V17      1.0000 0.25413  0.44855  0.71513  Biso   1.000  V
  V18      1.0000 0.31273  0.58297  0.21947  Biso   1.000  V
  P11      1.0000 0.20897  0.11803  0.92278  Biso   1.000  P
  P12      1.0000 0.83514  0.16431  0.83405  Biso   1.000  P
  O36      1.0000 0.29127  0.20093  0.92603  Biso   1.000  O
  O37      1.0000 0.28625  0.35310  0.80960  Biso   1.000  O
  O38      1.0000 0.82984  0.06951  0.89657  Biso   1.000  O
  O39      1.0000 0.20323  0.06928  0.99908  Biso   1.000  O
  O40      1.0000 0.20899  0.99466  0.87631  Biso   1.000  O
  O41      1.0000 0.76731  0.27343  0.83215  Biso   1.000  O
  O42      1.0000 0.82276  0.09530  0.76007  Biso   1.000  O
  C16      1.0000 0.11188  0.21590  0.88569  Biso   1.000  C
  H36      1.0000 0.10990  0.28860  0.92030  Biso   1.000  H
  H37      1.0000 0.11820  0.25510  0.83880  Biso   1.000  H
  C17      1.0000 0.02267  0.14160  0.87133  Biso   1.000  C
  H38      1.0000 0.01820  0.08120  0.82920  Biso   1.000  H
  H39      1.0000 0.02020  0.08870  0.91510  Biso   1.000  H
  C18      1.0000 0.94448  0.23750  0.85455  Biso   1.000  C
  H40      1.0000 0.94970  0.29230  0.81210  Biso   1.000  H
  H41      1.0000 0.94970  0.29640  0.89740  Biso   1.000  H
  H42      1.0000 0.28000  0.28700  0.80500  Biso   1.000  H
  V19      1.0000 0.16434  0.87809  0.58617  Biso   1.000  V
  V20      1.0000 0.24587  0.94855  0.78487  Biso   1.000  V
  V21      1.0000 0.18727  0.08297  0.28053  Biso   1.000  V
  P13      1.0000 0.29103  0.61803  0.57722  Biso   1.000  P
  P14      1.0000 0.66486  0.66431  0.66595  Biso   1.000  P
  O43      1.0000 0.20873  0.70093  0.57397  Biso   1.000  O
  O44      1.0000 0.21375  0.85310  0.69040  Biso   1.000  O
  O45      1.0000 0.67016  0.56951  0.60343  Biso   1.000  O
  O46      1.0000 0.29677  0.56928  0.50092  Biso   1.000  O
  O47      1.0000 0.29101  0.49466  0.62369  Biso   1.000  O
  O48      1.0000 0.73269  0.77343  0.66785  Biso   1.000  O
  O49      1.0000 0.67724  0.59530  0.73993  Biso   1.000  O
  C19      1.0000 0.38812  0.71590  0.61431  Biso   1.000  C
  H43      1.0000 0.39010  0.78860  0.57970  Biso   1.000  H
  H44      1.0000 0.38180  0.75510  0.66120  Biso   1.000  H
  C20      1.0000 0.47733  0.64160  0.62867  Biso   1.000  C
  H45      1.0000 0.48180  0.58120  0.67080  Biso   1.000  H
  H46      1.0000 0.47980  0.58870  0.58490  Biso   1.000  H
  C21      1.0000 0.55552  0.73750  0.64545  Biso   1.000  C
  H47      1.0000 0.55030  0.79230  0.68790  Biso   1.000  H
  H48      1.0000 0.55030  0.79640  0.60260  Biso   1.000  H
  H49      1.0000 0.22000  0.78700  0.69500  Biso   1.000  H
  V22      1.0000 0.66434  0.37809  0.58617  Biso   1.000  V
  V23      1.0000 0.74587  0.44855  0.78487  Biso   1.000  V
  V24      1.0000 0.68727  0.58297  0.28053  Biso   1.000  V
  P15      1.0000 0.79103  0.11803  0.57722  Biso   1.000  P
  P16      1.0000 0.16486  0.16431  0.66595  Biso   1.000  P
  O50      1.0000 0.70873  0.20093  0.57397  Biso   1.000  O
  O51      1.0000 0.71375  0.35310  0.69040  Biso   1.000  O
  O52      1.0000 0.17016  0.06951  0.60343  Biso   1.000  O
  O53      1.0000 0.79677  0.06928  0.50092  Biso   1.000  O
  O54      1.0000 0.79101  0.99466  0.62369  Biso   1.000  O
  O55      1.0000 0.23269  0.27343  0.66785  Biso   1.000  O
  O56      1.0000 0.17724  0.09530  0.73993  Biso   1.000  O
  C22      1.0000 0.88812  0.21590  0.61431  Biso   1.000  C
  H50      1.0000 0.89010  0.28860  0.57970  Biso   1.000  H
  H51      1.0000 0.88180  0.25510  0.66120  Biso   1.000  H
  C23      1.0000 0.97733  0.14160  0.62867  Biso   1.000  C
  H52      1.0000 0.98180  0.08120  0.67080  Biso   1.000  H
  H53      1.0000 0.97980  0.08870  0.58490  Biso   1.000  H
  C24      1.0000 0.05552  0.23750  0.64545  Biso   1.000  C
  H54      1.0000 0.05030  0.29230  0.68790  Biso   1.000  H
  H55      1.0000 0.05030  0.29640  0.60260  Biso   1.000  H
  H56      1.0000 0.72000  0.28700  0.69500  Biso   1.000  H
