data_image0
_cell_length_a       15.0103
_cell_length_b       15.0103
_cell_length_c       10.0791
_cell_angle_alpha    90
_cell_angle_beta     90
_cell_angle_gamma    90

_symmetry_space_group_name_H-M    "P 1"
_symmetry_int_tables_number       1

loop_
  _symmetry_equiv_pos_as_xyz
  'x, y, z'

loop_
  _atom_site_label
  _atom_site_occupancy
  _atom_site_fract_x
  _atom_site_fract_y
  _atom_site_fract_z
  _atom_site_thermal_displace_type
  _atom_site_B_iso_or_equiv
  _atom_site_type_symbol
  O1       1.0000 0.30482  0.94881  0.24955  Biso   1.000  O
  O2       1.0000 0.42433  0.90639  0.14536  Biso   1.000  O
  C1       1.0000 0.78970  0.78940  0.40430  Biso   1.000  C
  H1       1.0000 0.83140  0.80360  0.33250  Biso   1.000  H
  C2       1.0000 0.70540  0.82620  0.39810  Biso   1.000  C
  C3       1.0000 0.51152  0.86959  0.38179  Biso   1.000  C
  H2       1.0000 0.53990  0.85790  0.30160  Biso   1.000  H
  C4       1.0000 0.42673  0.90424  0.38112  Biso   1.000  C
  C5       1.0000 0.38140  0.92225  0.24993  Biso   1.000  C
  C6       1.0000 0.25313  0.19865  0.96710  Biso   1.000  C
  H3       1.0000 0.21690  0.23630  0.90870  Biso   1.000  H
  C7       1.0000 0.38930  0.44970  0.94820  Biso   1.000  C
  H4       1.0000 0.36080  0.49580  0.89400  Biso   1.000  H
  C8       1.0000 0.47610  0.29818  0.04650  Biso   1.000  C
  H5       1.0000 0.50480  0.25240  0.10130  Biso   1.000  H
  C9       1.0000 0.67070  0.75250  0.40070  Biso   1.000  C
  C10      1.0000 0.75550  0.71730  0.40360  Biso   1.000  C
  O3       1.0000 0.69518  0.05119  0.24955  Biso   1.000  O
  O4       1.0000 0.57567  0.09361  0.14536  Biso   1.000  O
  C11      1.0000 0.21030  0.21060  0.40430  Biso   1.000  C
  H6       1.0000 0.16860  0.19640  0.33250  Biso   1.000  H
  C12      1.0000 0.29460  0.17380  0.39810  Biso   1.000  C
  C13      1.0000 0.48848  0.13041  0.38179  Biso   1.000  C
  H7       1.0000 0.46010  0.14210  0.30160  Biso   1.000  H
  C14      1.0000 0.57327  0.09576  0.38112  Biso   1.000  C
  C15      1.0000 0.61860  0.07775  0.24993  Biso   1.000  C
  C16      1.0000 0.74687  0.80135  0.96710  Biso   1.000  C
  H8       1.0000 0.78310  0.76370  0.90870  Biso   1.000  H
  C17      1.0000 0.61070  0.55030  0.94820  Biso   1.000  C
  H9       1.0000 0.63920  0.50420  0.89400  Biso   1.000  H
  C18      1.0000 0.52390  0.70182  0.04650  Biso   1.000  C
  H10      1.0000 0.49520  0.74760  0.10130  Biso   1.000  H
  C19      1.0000 0.32930  0.24750  0.40070  Biso   1.000  C
  C20      1.0000 0.24450  0.28270  0.40360  Biso   1.000  C
  O5       1.0000 0.05119  0.30482  0.74955  Biso   1.000  O
  O6       1.0000 0.09361  0.42433  0.64536  Biso   1.000  O
  C21      1.0000 0.21060  0.78970  0.90430  Biso   1.000  C
  H11      1.0000 0.19640  0.83140  0.83250  Biso   1.000  H
  C22      1.0000 0.17380  0.70540  0.89810  Biso   1.000  C
  C23      1.0000 0.13041  0.51152  0.88179  Biso   1.000  C
  H12      1.0000 0.14210  0.53990  0.80160  Biso   1.000  H
  C24      1.0000 0.09576  0.42673  0.88112  Biso   1.000  C
  C25      1.0000 0.07775  0.38140  0.74993  Biso   1.000  C
  C26      1.0000 0.80135  0.25313  0.46710  Biso   1.000  C
  H13      1.0000 0.76370  0.21690  0.40870  Biso   1.000  H
  C27      1.0000 0.55030  0.38930  0.44820  Biso   1.000  C
  H14      1.0000 0.50420  0.36080  0.39400  Biso   1.000  H
  C28      1.0000 0.70182  0.47610  0.54650  Biso   1.000  C
  H15      1.0000 0.74760  0.50480  0.60130  Biso   1.000  H
  C29      1.0000 0.24750  0.67070  0.90070  Biso   1.000  C
  C30      1.0000 0.28270  0.75550  0.90360  Biso   1.000  C
  O7       1.0000 0.94881  0.69518  0.74955  Biso   1.000  O
  O8       1.0000 0.90639  0.57567  0.64536  Biso   1.000  O
  C31      1.0000 0.78940  0.21030  0.90430  Biso   1.000  C
  H16      1.0000 0.80360  0.16860  0.83250  Biso   1.000  H
  C32      1.0000 0.82620  0.29460  0.89810  Biso   1.000  C
  C33      1.0000 0.86959  0.48848  0.88179  Biso   1.000  C
  H17      1.0000 0.85790  0.46010  0.80160  Biso   1.000  H
  C34      1.0000 0.90424  0.57327  0.88112  Biso   1.000  C
  C35      1.0000 0.92225  0.61860  0.74993  Biso   1.000  C
  C36      1.0000 0.19865  0.74687  0.46710  Biso   1.000  C
  H18      1.0000 0.23630  0.78310  0.40870  Biso   1.000  H
  C37      1.0000 0.44970  0.61070  0.44820  Biso   1.000  C
  H19      1.0000 0.49580  0.63920  0.39400  Biso   1.000  H
  C38      1.0000 0.29818  0.52390  0.54650  Biso   1.000  C
  H20      1.0000 0.25240  0.49520  0.60130  Biso   1.000  H
  C39      1.0000 0.75250  0.32930  0.90070  Biso   1.000  C
  C40      1.0000 0.71730  0.24450  0.90360  Biso   1.000  C
  O9       1.0000 0.69518  0.05119  0.75045  Biso   1.000  O
  O10      1.0000 0.57567  0.09361  0.85464  Biso   1.000  O
  C41      1.0000 0.21030  0.21060  0.59570  Biso   1.000  C
  H21      1.0000 0.16860  0.19640  0.66750  Biso   1.000  H
  C42      1.0000 0.29460  0.17380  0.60190  Biso   1.000  C
  C43      1.0000 0.48848  0.13041  0.61821  Biso   1.000  C
  H22      1.0000 0.46010  0.14210  0.69840  Biso   1.000  H
  C44      1.0000 0.57327  0.09576  0.61888  Biso   1.000  C
  C45      1.0000 0.61860  0.07775  0.75007  Biso   1.000  C
  C46      1.0000 0.74687  0.80135  0.03290  Biso   1.000  C
  H23      1.0000 0.78310  0.76370  0.09130  Biso   1.000  H
  C47      1.0000 0.61070  0.55030  0.05180  Biso   1.000  C
  H24      1.0000 0.63920  0.50420  0.10600  Biso   1.000  H
  C48      1.0000 0.52390  0.70182  0.95350  Biso   1.000  C
  H25      1.0000 0.49520  0.74760  0.89870  Biso   1.000  H
  C49      1.0000 0.32930  0.24750  0.59930  Biso   1.000  C
  C50      1.0000 0.24450  0.28270  0.59640  Biso   1.000  C
  O11      1.0000 0.30482  0.94881  0.75045  Biso   1.000  O
  O12      1.0000 0.42433  0.90639  0.85464  Biso   1.000  O
  C51      1.0000 0.78970  0.78940  0.59570  Biso   1.000  C
  H26      1.0000 0.83140  0.80360  0.66750  Biso   1.000  H
  C52      1.0000 0.70540  0.82620  0.60190  Biso   1.000  C
  C53      1.0000 0.51152  0.86959  0.61821  Biso   1.000  C
  H27      1.0000 0.53990  0.85790  0.69840  Biso   1.000  H
  C54      1.0000 0.42673  0.90424  0.61888  Biso   1.000  C
  C55      1.0000 0.38140  0.92225  0.75007  Biso   1.000  C
  C56      1.0000 0.25313  0.19865  0.03290  Biso   1.000  C
  H28      1.0000 0.21690  0.23630  0.09130  Biso   1.000  H
  C57      1.0000 0.38930  0.44970  0.05180  Biso   1.000  C
  H29      1.0000 0.36080  0.49580  0.10600  Biso   1.000  H
  C58      1.0000 0.47610  0.29818  0.95350  Biso   1.000  C
  H30      1.0000 0.50480  0.25240  0.89870  Biso   1.000  H
  C59      1.0000 0.67070  0.75250  0.59930  Biso   1.000  C
  C60      1.0000 0.75550  0.71730  0.59640  Biso   1.000  C
  O13      1.0000 0.94881  0.69518  0.25045  Biso   1.000  O
  O14      1.0000 0.90639  0.57567  0.35464  Biso   1.000  O
  C61      1.0000 0.78940  0.21030  0.09570  Biso   1.000  C
  H31      1.0000 0.80360  0.16860  0.16750  Biso   1.000  H
  C62      1.0000 0.82620  0.29460  0.10190  Biso   1.000  C
  C63      1.0000 0.86959  0.48848  0.11821  Biso   1.000  C
  H32      1.0000 0.85790  0.46010  0.19840  Biso   1.000  H
  C64      1.0000 0.90424  0.57327  0.11888  Biso   1.000  C
  C65      1.0000 0.92225  0.61860  0.25007  Biso   1.000  C
  C66      1.0000 0.19865  0.74687  0.53290  Biso   1.000  C
  H33      1.0000 0.23630  0.78310  0.59130  Biso   1.000  H
  C67      1.0000 0.44970  0.61070  0.55180  Biso   1.000  C
  H34      1.0000 0.49580  0.63920  0.60600  Biso   1.000  H
  C68      1.0000 0.29818  0.52390  0.45350  Biso   1.000  C
  H35      1.0000 0.25240  0.49520  0.39870  Biso   1.000  H
  C69      1.0000 0.75250  0.32930  0.09930  Biso   1.000  C
  C70      1.0000 0.71730  0.24450  0.09640  Biso   1.000  C
  O15      1.0000 0.05119  0.30482  0.25045  Biso   1.000  O
  O16      1.0000 0.09361  0.42433  0.35464  Biso   1.000  O
  C71      1.0000 0.21060  0.78970  0.09570  Biso   1.000  C
  H36      1.0000 0.19640  0.83140  0.16750  Biso   1.000  H
  C72      1.0000 0.17380  0.70540  0.10190  Biso   1.000  C
  C73      1.0000 0.13041  0.51152  0.11821  Biso   1.000  C
  H37      1.0000 0.14210  0.53990  0.19840  Biso   1.000  H
  C74      1.0000 0.09576  0.42673  0.11888  Biso   1.000  C
  C75      1.0000 0.07775  0.38140  0.25007  Biso   1.000  C
  C76      1.0000 0.80135  0.25313  0.53290  Biso   1.000  C
  H38      1.0000 0.76370  0.21690  0.59130  Biso   1.000  H
  C77      1.0000 0.55030  0.38930  0.55180  Biso   1.000  C
  H39      1.0000 0.50420  0.36080  0.60600  Biso   1.000  H
  C78      1.0000 0.70182  0.47610  0.45350  Biso   1.000  C
  H40      1.0000 0.74760  0.50480  0.39870  Biso   1.000  H
  C79      1.0000 0.24750  0.67070  0.09930  Biso   1.000  C
  C80      1.0000 0.28270  0.75550  0.09640  Biso   1.000  C
  Co1      1.0000 0.33643  0.93342  0.00000  Biso   1.000  Co
  N1       1.0000 0.31602  0.06735  0.00000  Biso   1.000  N
  N2       1.0000 0.34195  0.21091  0.00000  Biso   1.000  N
  C81      1.0000 0.23752  0.11230  0.00000  Biso   1.000  C
  H41      1.0000 0.17860  0.08410  0.00000  Biso   1.000  H
  C82      1.0000 0.37640  0.12899  0.00000  Biso   1.000  C
  H42      1.0000 0.43730  0.11740  0.00000  Biso   1.000  H
  C83      1.0000 0.38829  0.29312  0.00000  Biso   1.000  C
  C84      1.0000 0.34200  0.36970  0.00000  Biso   1.000  C
  H43      1.0000 0.27670  0.36810  0.00000  Biso   1.000  H
  C85      1.0000 0.47600  0.45662  0.00000  Biso   1.000  C
  C86      1.0000 0.52010  0.37798  0.00000  Biso   1.000  C
  H44      1.0000 0.58540  0.37920  0.00000  Biso   1.000  H
  Co2      1.0000 0.66357  0.06658  0.00000  Biso   1.000  Co
  N3       1.0000 0.68398  0.93265  0.00000  Biso   1.000  N
  N4       1.0000 0.65805  0.78909  0.00000  Biso   1.000  N
  C87      1.0000 0.76248  0.88770  0.00000  Biso   1.000  C
  H45      1.0000 0.82140  0.91590  0.00000  Biso   1.000  H
  C88      1.0000 0.62360  0.87101  0.00000  Biso   1.000  C
  H46      1.0000 0.56270  0.88260  0.00000  Biso   1.000  H
  C89      1.0000 0.61171  0.70688  0.00000  Biso   1.000  C
  C90      1.0000 0.65800  0.63030  0.00000  Biso   1.000  C
  H47      1.0000 0.72330  0.63190  0.00000  Biso   1.000  H
  C91      1.0000 0.52400  0.54338  0.00000  Biso   1.000  C
  C92      1.0000 0.47990  0.62202  0.00000  Biso   1.000  C
  H48      1.0000 0.41460  0.62080  0.00000  Biso   1.000  H
  Co3      1.0000 0.06658  0.33643  0.50000  Biso   1.000  Co
  N5       1.0000 0.93265  0.31602  0.50000  Biso   1.000  N
  N6       1.0000 0.78909  0.34195  0.50000  Biso   1.000  N
  C93      1.0000 0.88770  0.23752  0.50000  Biso   1.000  C
  H49      1.0000 0.91590  0.17860  0.50000  Biso   1.000  H
  C94      1.0000 0.87101  0.37640  0.50000  Biso   1.000  C
  H50      1.0000 0.88260  0.43730  0.50000  Biso   1.000  H
  C95      1.0000 0.70688  0.38829  0.50000  Biso   1.000  C
  C96      1.0000 0.63030  0.34200  0.50000  Biso   1.000  C
  H51      1.0000 0.63190  0.27670  0.50000  Biso   1.000  H
  C97      1.0000 0.54338  0.47600  0.50000  Biso   1.000  C
  C98      1.0000 0.62202  0.52010  0.50000  Biso   1.000  C
  H52      1.0000 0.62080  0.58540  0.50000  Biso   1.000  H
  Co4      1.0000 0.93342  0.66357  0.50000  Biso   1.000  Co
  N7       1.0000 0.06735  0.68398  0.50000  Biso   1.000  N
  N8       1.0000 0.21091  0.65805  0.50000  Biso   1.000  N
  C99      1.0000 0.11230  0.76248  0.50000  Biso   1.000  C
  H53      1.0000 0.08410  0.82140  0.50000  Biso   1.000  H
  C100     1.0000 0.12899  0.62360  0.50000  Biso   1.000  C
  H54      1.0000 0.11740  0.56270  0.50000  Biso   1.000  H
  C101     1.0000 0.29312  0.61171  0.50000  Biso   1.000  C
  C102     1.0000 0.36970  0.65800  0.50000  Biso   1.000  C
  H55      1.0000 0.36810  0.72330  0.50000  Biso   1.000  H
  C103     1.0000 0.45662  0.52400  0.50000  Biso   1.000  C
  C104     1.0000 0.37798  0.47990  0.50000  Biso   1.000  C
  H56      1.0000 0.37920  0.41460  0.50000  Biso   1.000  H
  N9       1.0000 0.81795  0.73675  0.50000  Biso   1.000  N
  C105     1.0000 0.64555  0.81369  0.50000  Biso   1.000  C
  C106     1.0000 0.55571  0.85169  0.50000  Biso   1.000  C
  C107     1.0000 0.38296  0.92228  0.50000  Biso   1.000  C
  H57      1.0000 0.32570  0.94590  0.50000  Biso   1.000  H
  N10      1.0000 0.18205  0.26325  0.50000  Biso   1.000  N
  C108     1.0000 0.35445  0.18631  0.50000  Biso   1.000  C
  C109     1.0000 0.44429  0.14831  0.50000  Biso   1.000  C
  C110     1.0000 0.61704  0.07772  0.50000  Biso   1.000  C
  H58      1.0000 0.67430  0.05410  0.50000  Biso   1.000  H
  N11      1.0000 0.26325  0.81795  0.00000  Biso   1.000  N
  C111     1.0000 0.18631  0.64555  0.00000  Biso   1.000  C
  C112     1.0000 0.14831  0.55571  0.00000  Biso   1.000  C
  C113     1.0000 0.07772  0.38296  0.00000  Biso   1.000  C
  H59      1.0000 0.05410  0.32570  0.00000  Biso   1.000  H
  N12      1.0000 0.73675  0.18205  0.00000  Biso   1.000  N
  C114     1.0000 0.81369  0.35445  0.00000  Biso   1.000  C
  C115     1.0000 0.85169  0.44429  0.00000  Biso   1.000  C
  C116     1.0000 0.92228  0.61704  0.00000  Biso   1.000  C
  H60      1.0000 0.94590  0.67430  0.00000  Biso   1.000  H
