data_image0
_cell_length_a       20.547
_cell_length_b       9.966
_cell_length_c       15.687
_cell_angle_alpha    90
_cell_angle_beta     99.638
_cell_angle_gamma    90

_symmetry_space_group_name_H-M    "P 1"
_symmetry_int_tables_number       1

loop_
  _symmetry_equiv_pos_as_xyz
  'x, y, z'

loop_
  _atom_site_label
  _atom_site_occupancy
  _atom_site_fract_x
  _atom_site_fract_y
  _atom_site_fract_z
  _atom_site_thermal_displace_type
  _atom_site_B_iso_or_equiv
  _atom_site_type_symbol
  O1       1.0000 0.06030  0.85866  0.88781  Biso   1.000  O
  C1       1.0000 0.09058  0.75327  0.88496  Biso   1.000  C
  O2       1.0000 0.15119  0.75402  0.88315  Biso   1.000  O
  C2       1.0000 0.05479  0.62066  0.88380  Biso   1.000  C
  C3       1.0000 0.98722  0.62023  0.88594  Biso   1.000  C
  H1       1.0000 0.96500  0.70130  0.88710  Biso   1.000  H
  N1       1.0000 0.12818  0.04220  0.43136  Biso   1.000  N
  C4       1.0000 0.84534  0.61404  0.89236  Biso   1.000  C
  H2       1.0000 0.86660  0.69660  0.89380  Biso   1.000  H
  C5       1.0000 0.77792  0.61012  0.89341  Biso   1.000  C
  H3       1.0000 0.75600  0.69160  0.89450  Biso   1.000  H
  C6       1.0000 0.06800  0.92910  0.61080  Biso   1.000  C
  C7       1.0000 0.15062  0.91430  0.61540  Biso   1.000  C
  C8       1.0000 0.07637  0.93470  0.70040  Biso   1.000  C
  C9       1.0000 0.15584  0.91130  0.70630  Biso   1.000  C
  O3       1.0000 0.56030  0.35866  0.88781  Biso   1.000  O
  C10      1.0000 0.59058  0.25327  0.88496  Biso   1.000  C
  O4       1.0000 0.65119  0.25402  0.88315  Biso   1.000  O
  C11      1.0000 0.55479  0.12066  0.88380  Biso   1.000  C
  C12      1.0000 0.48722  0.12023  0.88594  Biso   1.000  C
  H4       1.0000 0.46500  0.20130  0.88710  Biso   1.000  H
  N2       1.0000 0.62818  0.54220  0.43136  Biso   1.000  N
  C13      1.0000 0.34534  0.11404  0.89236  Biso   1.000  C
  H5       1.0000 0.36660  0.19660  0.89380  Biso   1.000  H
  C14      1.0000 0.27792  0.11012  0.89341  Biso   1.000  C
  H6       1.0000 0.25600  0.19160  0.89450  Biso   1.000  H
  C15      1.0000 0.56800  0.42910  0.61080  Biso   1.000  C
  C16      1.0000 0.65062  0.41430  0.61540  Biso   1.000  C
  C17      1.0000 0.57637  0.43470  0.70040  Biso   1.000  C
  C18      1.0000 0.65584  0.41130  0.70630  Biso   1.000  C
  O5       1.0000 0.06030  0.14134  0.88781  Biso   1.000  O
  C19      1.0000 0.09058  0.24673  0.88496  Biso   1.000  C
  O6       1.0000 0.15119  0.24598  0.88315  Biso   1.000  O
  C20      1.0000 0.05479  0.37934  0.88380  Biso   1.000  C
  C21      1.0000 0.98722  0.37977  0.88594  Biso   1.000  C
  H7       1.0000 0.96500  0.29870  0.88710  Biso   1.000  H
  N3       1.0000 0.12818  0.95780  0.43136  Biso   1.000  N
  C22      1.0000 0.84534  0.38596  0.89236  Biso   1.000  C
  H8       1.0000 0.86660  0.30340  0.89380  Biso   1.000  H
  C23      1.0000 0.77792  0.38988  0.89341  Biso   1.000  C
  H9       1.0000 0.75600  0.30840  0.89450  Biso   1.000  H
  C24      1.0000 0.06800  0.07090  0.61080  Biso   1.000  C
  C25      1.0000 0.15062  0.08570  0.61540  Biso   1.000  C
  C26      1.0000 0.07637  0.06530  0.70040  Biso   1.000  C
  C27      1.0000 0.15584  0.08870  0.70630  Biso   1.000  C
  O7       1.0000 0.56030  0.64134  0.88781  Biso   1.000  O
  C28      1.0000 0.59058  0.74673  0.88496  Biso   1.000  C
  O8       1.0000 0.65119  0.74598  0.88315  Biso   1.000  O
  C29      1.0000 0.55479  0.87934  0.88380  Biso   1.000  C
  C30      1.0000 0.48722  0.87977  0.88594  Biso   1.000  C
  H10      1.0000 0.46500  0.79870  0.88710  Biso   1.000  H
  N4       1.0000 0.62818  0.45780  0.43136  Biso   1.000  N
  C31      1.0000 0.34534  0.88596  0.89236  Biso   1.000  C
  H11      1.0000 0.36660  0.80340  0.89380  Biso   1.000  H
  C32      1.0000 0.27792  0.88988  0.89341  Biso   1.000  C
  H12      1.0000 0.25600  0.80840  0.89450  Biso   1.000  H
  C33      1.0000 0.56800  0.57090  0.61080  Biso   1.000  C
  C34      1.0000 0.65062  0.58570  0.61540  Biso   1.000  C
  C35      1.0000 0.57637  0.56530  0.70040  Biso   1.000  C
  C36      1.0000 0.65584  0.58870  0.70630  Biso   1.000  C
  Co1      1.0000 0.13679  0.00000  0.88885  Biso   1.000  Co
  N5       1.0000 0.14999  0.00000  0.02928  Biso   1.000  N
  N6       1.0000 0.12392  0.00000  0.74840  Biso   1.000  N
  N7       1.0000 0.24286  0.00000  0.89293  Biso   1.000  N
  C37      1.0000 0.09628  0.00000  0.06724  Biso   1.000  C
  C38      1.0000 0.20799  0.00000  0.08325  Biso   1.000  C
  H13      1.0000 0.05530  0.00000  0.03150  Biso   1.000  H
  C39      1.0000 0.09702  0.00000  0.15473  Biso   1.000  C
  C40      1.0000 0.21341  0.00000  0.17097  Biso   1.000  C
  H14      1.0000 0.24650  0.00000  0.05950  Biso   1.000  H
  H15      1.0000 0.05760  0.00000  0.17640  Biso   1.000  H
  C41      1.0000 0.15597  0.00000  0.20987  Biso   1.000  C
  H16      1.0000 0.25490  0.00000  0.20540  Biso   1.000  H
  C42      1.0000 0.16178  0.00000  0.30256  Biso   1.000  C
  N8       1.0000 0.11320  0.00000  0.33998  Biso   1.000  N
  H17      1.0000 0.20370  0.00000  0.33580  Biso   1.000  H
  C43      1.0000 0.10001  0.00000  0.47285  Biso   1.000  C
  H18      1.0000 0.05300  0.00000  0.44780  Biso   1.000  H
  C44      1.0000 0.11013  0.00000  0.56880  Biso   1.000  C
  Co2      1.0000 0.63679  0.50000  0.88885  Biso   1.000  Co
  N9       1.0000 0.64999  0.50000  0.02928  Biso   1.000  N
  N10      1.0000 0.62392  0.50000  0.74840  Biso   1.000  N
  N11      1.0000 0.74286  0.50000  0.89293  Biso   1.000  N
  C45      1.0000 0.59628  0.50000  0.06724  Biso   1.000  C
  C46      1.0000 0.70799  0.50000  0.08325  Biso   1.000  C
  H19      1.0000 0.55530  0.50000  0.03150  Biso   1.000  H
  C47      1.0000 0.59702  0.50000  0.15473  Biso   1.000  C
  C48      1.0000 0.71341  0.50000  0.17097  Biso   1.000  C
  H20      1.0000 0.74650  0.50000  0.05950  Biso   1.000  H
  H21      1.0000 0.55760  0.50000  0.17640  Biso   1.000  H
  C49      1.0000 0.65597  0.50000  0.20987  Biso   1.000  C
  H22      1.0000 0.75490  0.50000  0.20540  Biso   1.000  H
  C50      1.0000 0.66178  0.50000  0.30256  Biso   1.000  C
  N12      1.0000 0.61320  0.50000  0.33998  Biso   1.000  N
  H23      1.0000 0.70370  0.50000  0.33580  Biso   1.000  H
  C51      1.0000 0.60001  0.50000  0.47285  Biso   1.000  C
  H24      1.0000 0.55300  0.50000  0.44780  Biso   1.000  H
  C52      1.0000 0.61013  0.50000  0.56880  Biso   1.000  C
  C53      1.0000 0.08713  0.50000  0.88229  Biso   1.000  C
  C54      1.0000 0.95247  0.50000  0.88635  Biso   1.000  C
  H25      1.0000 0.13210  0.50000  0.88020  Biso   1.000  H
  C55      1.0000 0.88098  0.50000  0.88925  Biso   1.000  C
  C56      1.0000 0.58713  0.00000  0.88229  Biso   1.000  C
  C57      1.0000 0.45247  0.00000  0.88635  Biso   1.000  C
  H26      1.0000 0.63210  0.00000  0.88020  Biso   1.000  H
  C58      1.0000 0.38098  0.00000  0.88925  Biso   1.000  C
  O9       1.0000 0.93970  0.85866  0.11219  Biso   1.000  O
  C59      1.0000 0.90942  0.75327  0.11504  Biso   1.000  C
  O10      1.0000 0.84881  0.75402  0.11685  Biso   1.000  O
  C60      1.0000 0.94521  0.62066  0.11620  Biso   1.000  C
  C61      1.0000 0.01278  0.62023  0.11406  Biso   1.000  C
  H27      1.0000 0.03500  0.70130  0.11290  Biso   1.000  H
  N13      1.0000 0.87182  0.04220  0.56864  Biso   1.000  N
  C62      1.0000 0.15466  0.61404  0.10764  Biso   1.000  C
  H28      1.0000 0.13340  0.69660  0.10620  Biso   1.000  H
  C63      1.0000 0.22208  0.61012  0.10659  Biso   1.000  C
  H29      1.0000 0.24400  0.69160  0.10550  Biso   1.000  H
  C64      1.0000 0.93200  0.92910  0.38920  Biso   1.000  C
  C65      1.0000 0.84938  0.91430  0.38460  Biso   1.000  C
  C66      1.0000 0.92363  0.93470  0.29960  Biso   1.000  C
  C67      1.0000 0.84416  0.91130  0.29370  Biso   1.000  C
  O11      1.0000 0.43970  0.35866  0.11219  Biso   1.000  O
  C68      1.0000 0.40942  0.25327  0.11504  Biso   1.000  C
  O12      1.0000 0.34881  0.25402  0.11685  Biso   1.000  O
  C69      1.0000 0.44521  0.12066  0.11620  Biso   1.000  C
  C70      1.0000 0.51278  0.12023  0.11406  Biso   1.000  C
  H30      1.0000 0.53500  0.20130  0.11290  Biso   1.000  H
  N14      1.0000 0.37182  0.54220  0.56864  Biso   1.000  N
  C71      1.0000 0.65466  0.11404  0.10764  Biso   1.000  C
  H31      1.0000 0.63340  0.19660  0.10620  Biso   1.000  H
  C72      1.0000 0.72208  0.11012  0.10659  Biso   1.000  C
  H32      1.0000 0.74400  0.19160  0.10550  Biso   1.000  H
  C73      1.0000 0.43200  0.42910  0.38920  Biso   1.000  C
  C74      1.0000 0.34938  0.41430  0.38460  Biso   1.000  C
  C75      1.0000 0.42363  0.43470  0.29960  Biso   1.000  C
  C76      1.0000 0.34416  0.41130  0.29370  Biso   1.000  C
  O13      1.0000 0.93970  0.14134  0.11219  Biso   1.000  O
  C77      1.0000 0.90942  0.24673  0.11504  Biso   1.000  C
  O14      1.0000 0.84881  0.24598  0.11685  Biso   1.000  O
  C78      1.0000 0.94521  0.37934  0.11620  Biso   1.000  C
  C79      1.0000 0.01278  0.37977  0.11406  Biso   1.000  C
  H33      1.0000 0.03500  0.29870  0.11290  Biso   1.000  H
  N15      1.0000 0.87182  0.95780  0.56864  Biso   1.000  N
  C80      1.0000 0.15466  0.38596  0.10764  Biso   1.000  C
  H34      1.0000 0.13340  0.30340  0.10620  Biso   1.000  H
  C81      1.0000 0.22208  0.38988  0.10659  Biso   1.000  C
  H35      1.0000 0.24400  0.30840  0.10550  Biso   1.000  H
  C82      1.0000 0.93200  0.07090  0.38920  Biso   1.000  C
  C83      1.0000 0.84938  0.08570  0.38460  Biso   1.000  C
  C84      1.0000 0.92363  0.06530  0.29960  Biso   1.000  C
  C85      1.0000 0.84416  0.08870  0.29370  Biso   1.000  C
  O15      1.0000 0.43970  0.64134  0.11219  Biso   1.000  O
  C86      1.0000 0.40942  0.74673  0.11504  Biso   1.000  C
  O16      1.0000 0.34881  0.74598  0.11685  Biso   1.000  O
  C87      1.0000 0.44521  0.87934  0.11620  Biso   1.000  C
  C88      1.0000 0.51278  0.87977  0.11406  Biso   1.000  C
  H36      1.0000 0.53500  0.79870  0.11290  Biso   1.000  H
  N16      1.0000 0.37182  0.45780  0.56864  Biso   1.000  N
  C89      1.0000 0.65466  0.88596  0.10764  Biso   1.000  C
  H37      1.0000 0.63340  0.80340  0.10620  Biso   1.000  H
  C90      1.0000 0.72208  0.88988  0.10659  Biso   1.000  C
  H38      1.0000 0.74400  0.80840  0.10550  Biso   1.000  H
  C91      1.0000 0.43200  0.57090  0.38920  Biso   1.000  C
  C92      1.0000 0.34938  0.58570  0.38460  Biso   1.000  C
  C93      1.0000 0.42363  0.56530  0.29960  Biso   1.000  C
  C94      1.0000 0.34416  0.58870  0.29370  Biso   1.000  C
  Co3      1.0000 0.86321  0.00000  0.11115  Biso   1.000  Co
  N17      1.0000 0.85001  0.00000  0.97072  Biso   1.000  N
  N18      1.0000 0.87608  0.00000  0.25160  Biso   1.000  N
  N19      1.0000 0.75714  0.00000  0.10707  Biso   1.000  N
  C95      1.0000 0.90372  0.00000  0.93276  Biso   1.000  C
  C96      1.0000 0.79201  0.00000  0.91675  Biso   1.000  C
  H39      1.0000 0.94470  0.00000  0.96850  Biso   1.000  H
  C97      1.0000 0.90298  0.00000  0.84527  Biso   1.000  C
  C98      1.0000 0.78659  0.00000  0.82903  Biso   1.000  C
  H40      1.0000 0.75350  0.00000  0.94050  Biso   1.000  H
  H41      1.0000 0.94240  0.00000  0.82360  Biso   1.000  H
  C99      1.0000 0.84403  0.00000  0.79013  Biso   1.000  C
  H42      1.0000 0.74510  0.00000  0.79460  Biso   1.000  H
  C100     1.0000 0.83822  0.00000  0.69744  Biso   1.000  C
  N20      1.0000 0.88680  0.00000  0.66002  Biso   1.000  N
  H43      1.0000 0.79630  0.00000  0.66420  Biso   1.000  H
  C101     1.0000 0.89999  0.00000  0.52715  Biso   1.000  C
  H44      1.0000 0.94700  0.00000  0.55220  Biso   1.000  H
  C102     1.0000 0.88987  0.00000  0.43120  Biso   1.000  C
  Co4      1.0000 0.36321  0.50000  0.11115  Biso   1.000  Co
  N21      1.0000 0.35001  0.50000  0.97072  Biso   1.000  N
  N22      1.0000 0.37608  0.50000  0.25160  Biso   1.000  N
  N23      1.0000 0.25714  0.50000  0.10707  Biso   1.000  N
  C103     1.0000 0.40372  0.50000  0.93276  Biso   1.000  C
  C104     1.0000 0.29201  0.50000  0.91675  Biso   1.000  C
  H45      1.0000 0.44470  0.50000  0.96850  Biso   1.000  H
  C105     1.0000 0.40298  0.50000  0.84527  Biso   1.000  C
  C106     1.0000 0.28659  0.50000  0.82903  Biso   1.000  C
  H46      1.0000 0.25350  0.50000  0.94050  Biso   1.000  H
  H47      1.0000 0.44240  0.50000  0.82360  Biso   1.000  H
  C107     1.0000 0.34403  0.50000  0.79013  Biso   1.000  C
  H48      1.0000 0.24510  0.50000  0.79460  Biso   1.000  H
  C108     1.0000 0.33822  0.50000  0.69744  Biso   1.000  C
  N24      1.0000 0.38680  0.50000  0.66002  Biso   1.000  N
  H49      1.0000 0.29630  0.50000  0.66420  Biso   1.000  H
  C109     1.0000 0.39999  0.50000  0.52715  Biso   1.000  C
  H50      1.0000 0.44700  0.50000  0.55220  Biso   1.000  H
  C110     1.0000 0.38987  0.50000  0.43120  Biso   1.000  C
  C111     1.0000 0.91287  0.50000  0.11771  Biso   1.000  C
  C112     1.0000 0.04753  0.50000  0.11365  Biso   1.000  C
  H51      1.0000 0.86790  0.50000  0.11980  Biso   1.000  H
  C113     1.0000 0.11902  0.50000  0.11075  Biso   1.000  C
  C114     1.0000 0.41287  0.00000  0.11771  Biso   1.000  C
  C115     1.0000 0.54753  0.00000  0.11365  Biso   1.000  C
  H52      1.0000 0.36790  0.00000  0.11980  Biso   1.000  H
  C116     1.0000 0.61902  0.00000  0.11075  Biso   1.000  C
