data_image0
_cell_length_a       14.6355
_cell_length_b       21.0669
_cell_length_c       16.3476
_cell_angle_alpha    90
_cell_angle_beta     98.291
_cell_angle_gamma    90

_symmetry_space_group_name_H-M    "P 1"
_symmetry_int_tables_number       1

loop_
  _symmetry_equiv_pos_as_xyz
  'x, y, z'

loop_
  _atom_site_label
  _atom_site_occupancy
  _atom_site_fract_x
  _atom_site_fract_y
  _atom_site_fract_z
  _atom_site_thermal_displace_type
  _atom_site_B_iso_or_equiv
  _atom_site_type_symbol
  C1       1.0000 0.68160  0.05420  0.64420  Biso   1.000  C
  H1       1.0000 0.71640  0.03940  0.69250  Biso   1.000  H
  C2       1.0000 0.61650  0.11320  0.54850  Biso   1.000  C
  H2       1.0000 0.59750  0.14950  0.51840  Biso   1.000  H
  C3       1.0000 0.63620  0.94920  0.57740  Biso   1.000  C
  H3       1.0000 0.58450  0.93600  0.53700  Biso   1.000  H
  H4       1.0000 0.62960  0.92960  0.62990  Biso   1.000  H
  C4       1.0000 0.72790  0.92790  0.54930  Biso   1.000  C
  C5       1.0000 0.72570  0.85400  0.52990  Biso   1.000  C
  H5       1.0000 0.67690  0.84530  0.48450  Biso   1.000  H
  H6       1.0000 0.78380  0.84160  0.51270  Biso   1.000  H
  C6       1.0000 0.74710  0.96500  0.47280  Biso   1.000  C
  C7       1.0000 0.81510  0.00970  0.48010  Biso   1.000  C
  H7       1.0000 0.85660  0.01210  0.52880  Biso   1.000  H
  C8       1.0000 0.82380  0.05320  0.41430  Biso   1.000  C
  H8       1.0000 0.86810  0.08520  0.42120  Biso   1.000  H
  C9       1.0000 0.76550  0.04690  0.34030  Biso   1.000  C
  C10      1.0000 0.70080  0.00080  0.33170  Biso   1.000  C
  H9       1.0000 0.66320  0.99550  0.28120  Biso   1.000  H
  C11      1.0000 0.68960  0.96090  0.39780  Biso   1.000  C
  C12      1.0000 0.82730  0.27740  0.59170  Biso   1.000  C
  H10      1.0000 0.81610  0.31480  0.61870  Biso   1.000  H
  C13      1.0000 0.83200  0.18320  0.55450  Biso   1.000  C
  H11      1.0000 0.82310  0.13950  0.55190  Biso   1.000  H
  C14      1.0000 0.91170  0.32640  0.48520  Biso   1.000  C
  H12      1.0000 0.87970  0.36550  0.49460  Biso   1.000  H
  H13      1.0000 0.90240  0.31800  0.42630  Biso   1.000  H
  C15      1.0000 0.01550  0.33480  0.51540  Biso   1.000  C
  C16      1.0000 0.05390  0.39340  0.47210  Biso   1.000  C
  H14      1.0000 0.01060  0.42830  0.47110  Biso   1.000  H
  H15      1.0000 0.11180  0.40670  0.50390  Biso   1.000  H
  C17      1.0000 0.03510  0.34370  0.61050  Biso   1.000  C
  C18      1.0000 0.07700  0.29750  0.66210  Biso   1.000  C
  H16      1.0000 0.09740  0.25990  0.64100  Biso   1.000  H
  C19      1.0000 0.08800  0.30850  0.74630  Biso   1.000  C
  H17      1.0000 0.11500  0.27710  0.78190  Biso   1.000  H
  C20      1.0000 0.06120  0.36260  0.77840  Biso   1.000  C
  C21      1.0000 0.01780  0.40630  0.73220  Biso   1.000  C
  H18      1.0000 0.99660  0.44280  0.75520  Biso   1.000  H
  C22      1.0000 0.00410  0.39660  0.64680  Biso   1.000  C
  N1       1.0000 0.80010  0.22120  0.61190  Biso   1.000  N
  N2       1.0000 0.87650  0.21480  0.50320  Biso   1.000  N
  N3       1.0000 0.87250  0.27400  0.52830  Biso   1.000  N
  N4       1.0000 0.66940  0.11520  0.62310  Biso   1.000  N
  N5       1.0000 0.59370  0.05410  0.52140  Biso   1.000  N
  N6       1.0000 0.63660  0.01830  0.58580  Biso   1.000  N
  O1       1.0000 0.97710  0.07840  0.96850  Biso   1.000  O
  O2       1.0000 0.06950  0.97340  0.94190  Biso   1.000  O
  O3       1.0000 0.94210  0.99040  0.90500  Biso   1.000  O
  O4       1.0000 0.91010  0.96720  0.00220  Biso   1.000  O
  O5       1.0000 0.99380  0.17400  0.01450  Biso   1.000  O
  O6       1.0000 0.17010  0.09660  0.90770  Biso   1.000  O
  O7       1.0000 0.12910  0.99080  0.82360  Biso   1.000  O
  O8       1.0000 0.84010  0.86680  0.93870  Biso   1.000  O
  O9       1.0000 0.74920  0.97200  0.96660  Biso   1.000  O
  O10      1.0000 0.20980  0.92260  0.94960  Biso   1.000  O
  O11      1.0000 0.82100  0.20570  0.05380  Biso   1.000  O
  O12      1.0000 0.80240  0.02580  0.83620  Biso   1.000  O
  O13      1.0000 0.84730  0.12940  0.92330  Biso   1.000  O
  O14      1.0000 0.89340  0.92030  0.80700  Biso   1.000  O
  O15      1.0000 0.06180  0.87890  0.85470  Biso   1.000  O
  O16      1.0000 0.96030  0.03430  0.77600  Biso   1.000  O
  O17      1.0000 0.00140  0.13720  0.86090  Biso   1.000  O
  O18      1.0000 0.83310  0.13330  0.75250  Biso   1.000  O
  O19      1.0000 0.80060  0.93940  0.61670  Biso   1.000  O
  H19      1.0000 0.85010  0.92820  0.60330  Biso   1.000  H
  O20      1.0000 0.06440  0.27990  0.49610  Biso   1.000  O
  H20      1.0000 0.05640  0.27440  0.44590  Biso   1.000  H
  Ni1      1.0000 0.71811  0.19079  0.70041  Biso   1.000  Ni
  W1       1.0000 0.89280  0.08970  0.83200  Biso   1.000  W
  W2       1.0000 0.01330  0.95126  0.79374  Biso   1.000  W
  W3       1.0000 0.80106  0.94029  0.87441  Biso   1.000  W
  W4       1.0000 0.21291  0.00952  0.92070  Biso   1.000  W
  W5       1.0000 0.09137  0.15061  0.95489  Biso   1.000  W
  W6       1.0000 0.87356  0.12982  0.04160  Biso   1.000  W
  F1       1.0000 0.61920  0.91850  0.38810  Biso   1.000  F
  F2       1.0000 0.77120  0.08800  0.27970  Biso   1.000  F
  F3       1.0000 0.96000  0.44480  0.59860  Biso   1.000  F
  F4       1.0000 0.07390  0.36820  0.86220  Biso   1.000  F
  N7       1.0000 0.71040  0.81620  0.60110  Biso   1.000  N
  N8       1.0000 0.06870  0.37900  0.38820  Biso   1.000  N
  N9       1.0000 0.00140  0.38860  0.32100  Biso   1.000  N
  N10      1.0000 0.62310  0.80540  0.61700  Biso   1.000  N
  C23      1.0000 0.77120  0.78850  0.65900  Biso   1.000  C
  H21      1.0000 0.83500  0.78980  0.66100  Biso   1.000  H
  N11      1.0000 0.77320  0.25880  0.78680  Biso   1.000  N
  C24      1.0000 0.14310  0.35430  0.36240  Biso   1.000  C
  H22      1.0000 0.19710  0.34380  0.39710  Biso   1.000  H
  C25      1.0000 0.04360  0.36890  0.26100  Biso   1.000  C
  H23      1.0000 0.01510  0.37010  0.20630  Biso   1.000  H
  C26      1.0000 0.63670  0.76950  0.68350  Biso   1.000  C
  H24      1.0000 0.58850  0.75280  0.70820  Biso   1.000  H
  N12      1.0000 0.63100  0.15350  0.78120  Biso   1.000  N
  W7       1.0000 0.89580  0.10520  0.84050  Biso   1.000  W
  W8       1.0000 0.88620  0.07570  0.82360  Biso   1.000  W
  W9       1.0000 0.88662  0.15080  0.03426  Biso   1.000  W
  C27      1.0000 0.81840  0.55420  0.85580  Biso   1.000  C
  H25      1.0000 0.78360  0.53940  0.80750  Biso   1.000  H
  C28      1.0000 0.88350  0.61320  0.95150  Biso   1.000  C
  H26      1.0000 0.90250  0.64950  0.98160  Biso   1.000  H
  C29      1.0000 0.86380  0.44920  0.92260  Biso   1.000  C
  H27      1.0000 0.91550  0.43600  0.96300  Biso   1.000  H
  H28      1.0000 0.87040  0.42960  0.87010  Biso   1.000  H
  C30      1.0000 0.77210  0.42790  0.95070  Biso   1.000  C
  C31      1.0000 0.77430  0.35400  0.97010  Biso   1.000  C
  H29      1.0000 0.82310  0.34530  0.01550  Biso   1.000  H
  H30      1.0000 0.71620  0.34160  0.98730  Biso   1.000  H
  C32      1.0000 0.75290  0.46500  0.02720  Biso   1.000  C
  C33      1.0000 0.68490  0.50970  0.01990  Biso   1.000  C
  H31      1.0000 0.64340  0.51210  0.97120  Biso   1.000  H
  C34      1.0000 0.67620  0.55320  0.08570  Biso   1.000  C
  H32      1.0000 0.63190  0.58520  0.07880  Biso   1.000  H
  C35      1.0000 0.73450  0.54690  0.15970  Biso   1.000  C
  C36      1.0000 0.79920  0.50080  0.16830  Biso   1.000  C
  H33      1.0000 0.83680  0.49550  0.21880  Biso   1.000  H
  C37      1.0000 0.81040  0.46090  0.10220  Biso   1.000  C
  C38      1.0000 0.67270  0.77740  0.90830  Biso   1.000  C
  H34      1.0000 0.68390  0.81480  0.88130  Biso   1.000  H
  C39      1.0000 0.66800  0.68320  0.94550  Biso   1.000  C
  H35      1.0000 0.67690  0.63950  0.94810  Biso   1.000  H
  C40      1.0000 0.58830  0.82640  0.01480  Biso   1.000  C
  H36      1.0000 0.62030  0.86550  0.00540  Biso   1.000  H
  H37      1.0000 0.59760  0.81800  0.07370  Biso   1.000  H
  C41      1.0000 0.48450  0.83480  0.98460  Biso   1.000  C
  C42      1.0000 0.44610  0.89340  0.02790  Biso   1.000  C
  H38      1.0000 0.48940  0.92830  0.02890  Biso   1.000  H
  H39      1.0000 0.38820  0.90670  0.99610  Biso   1.000  H
  C43      1.0000 0.46490  0.84370  0.88950  Biso   1.000  C
  C44      1.0000 0.42300  0.79750  0.83790  Biso   1.000  C
  H40      1.0000 0.40260  0.75990  0.85900  Biso   1.000  H
  C45      1.0000 0.41200  0.80850  0.75370  Biso   1.000  C
  H41      1.0000 0.38500  0.77710  0.71810  Biso   1.000  H
  C46      1.0000 0.43880  0.86260  0.72160  Biso   1.000  C
  C47      1.0000 0.48220  0.90630  0.76780  Biso   1.000  C
  H42      1.0000 0.50340  0.94280  0.74480  Biso   1.000  H
  C48      1.0000 0.49590  0.89660  0.85320  Biso   1.000  C
  N13      1.0000 0.69990  0.72120  0.88810  Biso   1.000  N
  N14      1.0000 0.62350  0.71480  0.99680  Biso   1.000  N
  N15      1.0000 0.62750  0.77400  0.97170  Biso   1.000  N
  N16      1.0000 0.83060  0.61520  0.87690  Biso   1.000  N
  N17      1.0000 0.90630  0.55410  0.97860  Biso   1.000  N
  N18      1.0000 0.86340  0.51830  0.91420  Biso   1.000  N
  O21      1.0000 0.52290  0.57840  0.53150  Biso   1.000  O
  O22      1.0000 0.43050  0.47340  0.55810  Biso   1.000  O
  O23      1.0000 0.55790  0.49040  0.59500  Biso   1.000  O
  O24      1.0000 0.58990  0.46720  0.49780  Biso   1.000  O
  O25      1.0000 0.50620  0.67400  0.48550  Biso   1.000  O
  O26      1.0000 0.32990  0.59660  0.59230  Biso   1.000  O
  O27      1.0000 0.37090  0.49080  0.67640  Biso   1.000  O
  O28      1.0000 0.65990  0.36680  0.56130  Biso   1.000  O
  O29      1.0000 0.75080  0.47200  0.53340  Biso   1.000  O
  O30      1.0000 0.29020  0.42260  0.55040  Biso   1.000  O
  O31      1.0000 0.67900  0.70570  0.44620  Biso   1.000  O
  O32      1.0000 0.69760  0.52580  0.66380  Biso   1.000  O
  O33      1.0000 0.65270  0.62940  0.57670  Biso   1.000  O
  O34      1.0000 0.60660  0.42030  0.69300  Biso   1.000  O
  O35      1.0000 0.43820  0.37890  0.64530  Biso   1.000  O
  O36      1.0000 0.53970  0.53430  0.72400  Biso   1.000  O
  O37      1.0000 0.49860  0.63720  0.63910  Biso   1.000  O
  O38      1.0000 0.66690  0.63330  0.74750  Biso   1.000  O
  O39      1.0000 0.69940  0.43940  0.88330  Biso   1.000  O
  H43      1.0000 0.64990  0.42820  0.89670  Biso   1.000  H
  O40      1.0000 0.43560  0.77990  0.00390  Biso   1.000  O
  H44      1.0000 0.44360  0.77440  0.05410  Biso   1.000  H
  Ni2      1.0000 0.78189  0.69079  0.79959  Biso   1.000  Ni
  W10      1.0000 0.60720  0.58970  0.66800  Biso   1.000  W
  W11      1.0000 0.48670  0.45126  0.70626  Biso   1.000  W
  W12      1.0000 0.69894  0.44029  0.62559  Biso   1.000  W
  W13      1.0000 0.28709  0.50952  0.57930  Biso   1.000  W
  W14      1.0000 0.40863  0.65061  0.54511  Biso   1.000  W
  W15      1.0000 0.62644  0.62982  0.45840  Biso   1.000  W
  F5       1.0000 0.88080  0.41850  0.11190  Biso   1.000  F
  F6       1.0000 0.72880  0.58800  0.22030  Biso   1.000  F
  F7       1.0000 0.54000  0.94480  0.90140  Biso   1.000  F
  F8       1.0000 0.42610  0.86820  0.63780  Biso   1.000  F
  N19      1.0000 0.78960  0.31620  0.89890  Biso   1.000  N
  N20      1.0000 0.43130  0.87900  0.11180  Biso   1.000  N
  N21      1.0000 0.49860  0.88860  0.17900  Biso   1.000  N
  N22      1.0000 0.87690  0.30540  0.88300  Biso   1.000  N
  C49      1.0000 0.72880  0.28850  0.84100  Biso   1.000  C
  H45      1.0000 0.66500  0.28980  0.83900  Biso   1.000  H
  N23      1.0000 0.72680  0.75880  0.71320  Biso   1.000  N
  C50      1.0000 0.35690  0.85430  0.13760  Biso   1.000  C
  H46      1.0000 0.30290  0.84380  0.10290  Biso   1.000  H
  C51      1.0000 0.45640  0.86890  0.23900  Biso   1.000  C
  H47      1.0000 0.48490  0.87010  0.29370  Biso   1.000  H
  C52      1.0000 0.86330  0.26950  0.81650  Biso   1.000  C
  H48      1.0000 0.91150  0.25280  0.79180  Biso   1.000  H
  N24      1.0000 0.86900  0.65350  0.71880  Biso   1.000  N
  W16      1.0000 0.60420  0.60520  0.65950  Biso   1.000  W
  W17      1.0000 0.61380  0.57570  0.67640  Biso   1.000  W
  W18      1.0000 0.61338  0.65080  0.46574  Biso   1.000  W
  C53      1.0000 0.31840  0.94580  0.35580  Biso   1.000  C
  H49      1.0000 0.28360  0.96060  0.30750  Biso   1.000  H
  C54      1.0000 0.38350  0.88680  0.45150  Biso   1.000  C
  H50      1.0000 0.40250  0.85050  0.48160  Biso   1.000  H
  C55      1.0000 0.36380  0.05080  0.42260  Biso   1.000  C
  H51      1.0000 0.41550  0.06400  0.46300  Biso   1.000  H
  H52      1.0000 0.37040  0.07040  0.37010  Biso   1.000  H
  C56      1.0000 0.27210  0.07210  0.45070  Biso   1.000  C
  C57      1.0000 0.27430  0.14600  0.47010  Biso   1.000  C
  H53      1.0000 0.32310  0.15470  0.51550  Biso   1.000  H
  H54      1.0000 0.21620  0.15840  0.48730  Biso   1.000  H
  C58      1.0000 0.25290  0.03500  0.52720  Biso   1.000  C
  C59      1.0000 0.18490  0.99030  0.51990  Biso   1.000  C
  H55      1.0000 0.14340  0.98790  0.47120  Biso   1.000  H
  C60      1.0000 0.17620  0.94680  0.58570  Biso   1.000  C
  H56      1.0000 0.13190  0.91480  0.57880  Biso   1.000  H
  C61      1.0000 0.23450  0.95310  0.65970  Biso   1.000  C
  C62      1.0000 0.29920  0.99920  0.66830  Biso   1.000  C
  H57      1.0000 0.33680  0.00450  0.71880  Biso   1.000  H
  C63      1.0000 0.31040  0.03910  0.60220  Biso   1.000  C
  C64      1.0000 0.17270  0.72260  0.40830  Biso   1.000  C
  H58      1.0000 0.18390  0.68520  0.38130  Biso   1.000  H
  C65      1.0000 0.16800  0.81680  0.44550  Biso   1.000  C
  H59      1.0000 0.17690  0.86050  0.44810  Biso   1.000  H
  C66      1.0000 0.08830  0.67360  0.51480  Biso   1.000  C
  H60      1.0000 0.12030  0.63450  0.50540  Biso   1.000  H
  H61      1.0000 0.09760  0.68200  0.57370  Biso   1.000  H
  C67      1.0000 0.98450  0.66520  0.48460  Biso   1.000  C
  C68      1.0000 0.94610  0.60660  0.52790  Biso   1.000  C
  H62      1.0000 0.98940  0.57170  0.52890  Biso   1.000  H
  H63      1.0000 0.88820  0.59330  0.49610  Biso   1.000  H
  C69      1.0000 0.96490  0.65630  0.38950  Biso   1.000  C
  C70      1.0000 0.92300  0.70250  0.33790  Biso   1.000  C
  H64      1.0000 0.90260  0.74010  0.35900  Biso   1.000  H
  C71      1.0000 0.91200  0.69150  0.25370  Biso   1.000  C
  H65      1.0000 0.88500  0.72290  0.21810  Biso   1.000  H
  C72      1.0000 0.93880  0.63740  0.22160  Biso   1.000  C
  C73      1.0000 0.98220  0.59370  0.26780  Biso   1.000  C
  H66      1.0000 0.00340  0.55720  0.24480  Biso   1.000  H
  C74      1.0000 0.99590  0.60340  0.35320  Biso   1.000  C
  N25      1.0000 0.19990  0.77880  0.38810  Biso   1.000  N
  N26      1.0000 0.12350  0.78520  0.49680  Biso   1.000  N
  N27      1.0000 0.12750  0.72600  0.47170  Biso   1.000  N
  N28      1.0000 0.33060  0.88480  0.37690  Biso   1.000  N
  N29      1.0000 0.40630  0.94590  0.47860  Biso   1.000  N
  N30      1.0000 0.36340  0.98170  0.41420  Biso   1.000  N
  O41      1.0000 0.02290  0.92160  0.03150  Biso   1.000  O
  O42      1.0000 0.93050  0.02660  0.05810  Biso   1.000  O
  O43      1.0000 0.05790  0.00960  0.09500  Biso   1.000  O
  O44      1.0000 0.08990  0.03280  0.99780  Biso   1.000  O
  O45      1.0000 0.00620  0.82600  0.98550  Biso   1.000  O
  O46      1.0000 0.82990  0.90340  0.09230  Biso   1.000  O
  O47      1.0000 0.87090  0.00920  0.17640  Biso   1.000  O
  O48      1.0000 0.15990  0.13320  0.06130  Biso   1.000  O
  O49      1.0000 0.25080  0.02800  0.03340  Biso   1.000  O
  O50      1.0000 0.79020  0.07740  0.05040  Biso   1.000  O
  O51      1.0000 0.17900  0.79430  0.94620  Biso   1.000  O
  O52      1.0000 0.19760  0.97420  0.16380  Biso   1.000  O
  O53      1.0000 0.15270  0.87060  0.07670  Biso   1.000  O
  O54      1.0000 0.10660  0.07970  0.19300  Biso   1.000  O
  O55      1.0000 0.93820  0.12110  0.14530  Biso   1.000  O
  O56      1.0000 0.03970  0.96570  0.22400  Biso   1.000  O
  O57      1.0000 0.99860  0.86280  0.13910  Biso   1.000  O
  O58      1.0000 0.16690  0.86670  0.24750  Biso   1.000  O
  O59      1.0000 0.19940  0.06060  0.38330  Biso   1.000  O
  H67      1.0000 0.14990  0.07180  0.39670  Biso   1.000  H
  O60      1.0000 0.93560  0.72010  0.50390  Biso   1.000  O
  H68      1.0000 0.94360  0.72560  0.55410  Biso   1.000  H
  Ni3      1.0000 0.28189  0.80921  0.29959  Biso   1.000  Ni
  W19      1.0000 0.10720  0.91030  0.16800  Biso   1.000  W
  W20      1.0000 0.98670  0.04874  0.20626  Biso   1.000  W
  W21      1.0000 0.19894  0.05971  0.12559  Biso   1.000  W
  W22      1.0000 0.78709  0.99048  0.07930  Biso   1.000  W
  W23      1.0000 0.90863  0.84939  0.04511  Biso   1.000  W
  W24      1.0000 0.12644  0.87018  0.95840  Biso   1.000  W
  F9       1.0000 0.38080  0.08150  0.61190  Biso   1.000  F
  F10      1.0000 0.22880  0.91200  0.72030  Biso   1.000  F
  F11      1.0000 0.04000  0.55520  0.40140  Biso   1.000  F
  F12      1.0000 0.92610  0.63180  0.13780  Biso   1.000  F
  N31      1.0000 0.28960  0.18380  0.39890  Biso   1.000  N
  N32      1.0000 0.93130  0.62100  0.61180  Biso   1.000  N
  N33      1.0000 0.99860  0.61140  0.67900  Biso   1.000  N
  N34      1.0000 0.37690  0.19460  0.38300  Biso   1.000  N
  C75      1.0000 0.22880  0.21150  0.34100  Biso   1.000  C
  H69      1.0000 0.16500  0.21020  0.33900  Biso   1.000  H
  N35      1.0000 0.22680  0.74120  0.21320  Biso   1.000  N
  C76      1.0000 0.85690  0.64570  0.63760  Biso   1.000  C
  H70      1.0000 0.80290  0.65620  0.60290  Biso   1.000  H
  C77      1.0000 0.95640  0.63110  0.73900  Biso   1.000  C
  H71      1.0000 0.98490  0.62990  0.79370  Biso   1.000  H
  C78      1.0000 0.36330  0.23050  0.31650  Biso   1.000  C
  H72      1.0000 0.41150  0.24720  0.29180  Biso   1.000  H
  N36      1.0000 0.36900  0.84650  0.21880  Biso   1.000  N
  W25      1.0000 0.10420  0.89480  0.15950  Biso   1.000  W
  W26      1.0000 0.11380  0.92430  0.17640  Biso   1.000  W
  W27      1.0000 0.11338  0.84920  0.96574  Biso   1.000  W
  C79      1.0000 0.18160  0.44580  0.14420  Biso   1.000  C
  H73      1.0000 0.21640  0.46060  0.19250  Biso   1.000  H
  C80      1.0000 0.11650  0.38680  0.04850  Biso   1.000  C
  H74      1.0000 0.09750  0.35050  0.01840  Biso   1.000  H
  C81      1.0000 0.13620  0.55080  0.07740  Biso   1.000  C
  H75      1.0000 0.08450  0.56400  0.03700  Biso   1.000  H
  H76      1.0000 0.12960  0.57040  0.12990  Biso   1.000  H
  C82      1.0000 0.22790  0.57210  0.04930  Biso   1.000  C
  C83      1.0000 0.22570  0.64600  0.02990  Biso   1.000  C
  H77      1.0000 0.17690  0.65470  0.98450  Biso   1.000  H
  H78      1.0000 0.28380  0.65840  0.01270  Biso   1.000  H
  C84      1.0000 0.24710  0.53500  0.97280  Biso   1.000  C
  C85      1.0000 0.31510  0.49030  0.98010  Biso   1.000  C
  H79      1.0000 0.35660  0.48790  0.02880  Biso   1.000  H
  C86      1.0000 0.32380  0.44680  0.91430  Biso   1.000  C
  H80      1.0000 0.36810  0.41480  0.92120  Biso   1.000  H
  C87      1.0000 0.26550  0.45310  0.84030  Biso   1.000  C
  C88      1.0000 0.20080  0.49920  0.83170  Biso   1.000  C
  H81      1.0000 0.16320  0.50450  0.78120  Biso   1.000  H
  C89      1.0000 0.18960  0.53910  0.89780  Biso   1.000  C
  C90      1.0000 0.32730  0.22260  0.09170  Biso   1.000  C
  H82      1.0000 0.31610  0.18520  0.11870  Biso   1.000  H
  C91      1.0000 0.33200  0.31680  0.05450  Biso   1.000  C
  H83      1.0000 0.32310  0.36050  0.05190  Biso   1.000  H
  C92      1.0000 0.41170  0.17360  0.98520  Biso   1.000  C
  H84      1.0000 0.37970  0.13450  0.99460  Biso   1.000  H
  H85      1.0000 0.40240  0.18200  0.92630  Biso   1.000  H
  C93      1.0000 0.51550  0.16520  0.01540  Biso   1.000  C
  C94      1.0000 0.55390  0.10660  0.97210  Biso   1.000  C
  H86      1.0000 0.51060  0.07170  0.97110  Biso   1.000  H
  H87      1.0000 0.61180  0.09330  0.00390  Biso   1.000  H
  C95      1.0000 0.53510  0.15630  0.11050  Biso   1.000  C
  C96      1.0000 0.57700  0.20250  0.16210  Biso   1.000  C
  H88      1.0000 0.59740  0.24010  0.14100  Biso   1.000  H
  C97      1.0000 0.58800  0.19150  0.24630  Biso   1.000  C
  H89      1.0000 0.61500  0.22290  0.28190  Biso   1.000  H
  C98      1.0000 0.56120  0.13740  0.27840  Biso   1.000  C
  C99      1.0000 0.51780  0.09370  0.23220  Biso   1.000  C
  H90      1.0000 0.49660  0.05720  0.25520  Biso   1.000  H
  C100     1.0000 0.50410  0.10340  0.14680  Biso   1.000  C
  N37      1.0000 0.30010  0.27880  0.11190  Biso   1.000  N
  N38      1.0000 0.37650  0.28520  0.00320  Biso   1.000  N
  N39      1.0000 0.37250  0.22600  0.02830  Biso   1.000  N
  N40      1.0000 0.16940  0.38480  0.12310  Biso   1.000  N
  N41      1.0000 0.09370  0.44590  0.02140  Biso   1.000  N
  N42      1.0000 0.13660  0.48170  0.08580  Biso   1.000  N
  O61      1.0000 0.47710  0.42160  0.46850  Biso   1.000  O
  O62      1.0000 0.56950  0.52660  0.44190  Biso   1.000  O
  O63      1.0000 0.44210  0.50960  0.40500  Biso   1.000  O
  O64      1.0000 0.41010  0.53280  0.50220  Biso   1.000  O
  O65      1.0000 0.49380  0.32600  0.51450  Biso   1.000  O
  O66      1.0000 0.67010  0.40340  0.40770  Biso   1.000  O
  O67      1.0000 0.62910  0.50920  0.32360  Biso   1.000  O
  O68      1.0000 0.34010  0.63320  0.43870  Biso   1.000  O
  O69      1.0000 0.24920  0.52800  0.46660  Biso   1.000  O
  O70      1.0000 0.70980  0.57740  0.44960  Biso   1.000  O
  O71      1.0000 0.32100  0.29430  0.55380  Biso   1.000  O
  O72      1.0000 0.30240  0.47420  0.33620  Biso   1.000  O
  O73      1.0000 0.34730  0.37060  0.42330  Biso   1.000  O
  O74      1.0000 0.39340  0.57970  0.30700  Biso   1.000  O
  O75      1.0000 0.56180  0.62110  0.35470  Biso   1.000  O
  O76      1.0000 0.46030  0.46570  0.27600  Biso   1.000  O
  O77      1.0000 0.50140  0.36280  0.36090  Biso   1.000  O
  O78      1.0000 0.33310  0.36670  0.25250  Biso   1.000  O
  O79      1.0000 0.30060  0.56060  0.11670  Biso   1.000  O
  H91      1.0000 0.35010  0.57180  0.10330  Biso   1.000  H
  O80      1.0000 0.56440  0.22010  0.99610  Biso   1.000  O
  H92      1.0000 0.55640  0.22560  0.94590  Biso   1.000  H
  Ni4      1.0000 0.21811  0.30921  0.20041  Biso   1.000  Ni
  W28      1.0000 0.39280  0.41030  0.33200  Biso   1.000  W
  W29      1.0000 0.51330  0.54874  0.29374  Biso   1.000  W
  W30      1.0000 0.30106  0.55971  0.37441  Biso   1.000  W
  W31      1.0000 0.71291  0.49048  0.42070  Biso   1.000  W
  W32      1.0000 0.59137  0.34939  0.45489  Biso   1.000  W
  W33      1.0000 0.37356  0.37018  0.54160  Biso   1.000  W
  F13      1.0000 0.11920  0.58150  0.88810  Biso   1.000  F
  F14      1.0000 0.27120  0.41200  0.77970  Biso   1.000  F
  F15      1.0000 0.46000  0.05520  0.09860  Biso   1.000  F
  F16      1.0000 0.57390  0.13180  0.36220  Biso   1.000  F
  N43      1.0000 0.21040  0.68380  0.10110  Biso   1.000  N
  N44      1.0000 0.56870  0.12100  0.88820  Biso   1.000  N
  N45      1.0000 0.50140  0.11140  0.82100  Biso   1.000  N
  N46      1.0000 0.12310  0.69460  0.11700  Biso   1.000  N
  C101     1.0000 0.27120  0.71150  0.15900  Biso   1.000  C
  H93      1.0000 0.33500  0.71020  0.16100  Biso   1.000  H
  N47      1.0000 0.27320  0.24120  0.28680  Biso   1.000  N
  C102     1.0000 0.64310  0.14570  0.86240  Biso   1.000  C
  H94      1.0000 0.69710  0.15620  0.89710  Biso   1.000  H
  C103     1.0000 0.54360  0.13110  0.76100  Biso   1.000  C
  H95      1.0000 0.51510  0.12990  0.70630  Biso   1.000  H
  C104     1.0000 0.13670  0.73050  0.18350  Biso   1.000  C
  H96      1.0000 0.08850  0.74720  0.20820  Biso   1.000  H
  N48      1.0000 0.13100  0.34650  0.28120  Biso   1.000  N
  W34      1.0000 0.39580  0.39480  0.34050  Biso   1.000  W
  W35      1.0000 0.38620  0.42430  0.32360  Biso   1.000  W
  W36      1.0000 0.38662  0.34920  0.53426  Biso   1.000  W
  Si1      1.0000 0.00000  0.00000  0.00000  Biso   1.000  Si
  Si2      1.0000 0.50000  0.50000  0.50000  Biso   1.000  Si
