data_image0
_cell_length_a       10.2001
_cell_length_b       10.4146
_cell_length_c       10.7531
_cell_angle_alpha    111.736
_cell_angle_beta     117.78
_cell_angle_gamma    92.027

_symmetry_space_group_name_H-M    "P 1"
_symmetry_int_tables_number       1

loop_
  _symmetry_equiv_pos_as_xyz
  'x, y, z'

loop_
  _atom_site_label
  _atom_site_occupancy
  _atom_site_fract_x
  _atom_site_fract_y
  _atom_site_fract_z
  _atom_site_thermal_displace_type
  _atom_site_B_iso_or_equiv
  _atom_site_type_symbol
  Sm1      1.0000 0.18481  0.00801  0.46526  Biso   1.000  Sm
  C1       1.0000 0.40960  0.06160  0.78040  Biso   1.000  C
  O1       1.0000 0.43200  0.99500  0.67110  Biso   1.000  O
  O2       1.0000 0.28670  0.10180  0.74790  Biso   1.000  O
  O3       1.0000 0.35850  0.24660  0.58990  Biso   1.000  O
  O4       1.0000 0.20490  0.17250  0.34950  Biso   1.000  O
  O5       1.0000 0.13730  0.75230  0.41400  Biso   1.000  O
  O6       1.0000 0.99380  0.86380  0.49050  Biso   1.000  O
  C2       1.0000 0.53220  0.10520  0.94880  Biso   1.000  C
  H1       1.0000 0.60320  0.19330  0.98230  Biso   1.000  H
  C3       1.0000 0.46920  0.14080  0.06050  Biso   1.000  C
  H2       1.0000 0.55390  0.18720  0.16790  Biso   1.000  H
  H3       1.0000 0.40550  0.20660  0.04310  Biso   1.000  H
  C4       1.0000 0.62540  0.99540  0.96630  Biso   1.000  C
  H4       1.0000 0.71580  0.03640  0.07030  Biso   1.000  H
  H5       1.0000 0.65880  0.97100  0.89140  Biso   1.000  H
  C5       1.0000 0.32680  0.24950  0.46610  Biso   1.000  C
  C6       1.0000 0.04030  0.75090  0.45150  Biso   1.000  C
  C7       1.0000 0.98010  0.62370  0.46290  Biso   1.000  C
  H6       1.0000 0.87390  0.62120  0.43640  Biso   1.000  H
  C8       1.0000 0.98090  0.48130  0.34820  Biso   1.000  C
  H7       1.0000 0.91430  0.46810  0.24180  Biso   1.000  H
  H8       1.0000 0.08370  0.48450  0.36650  Biso   1.000  H
  C9       1.0000 0.07350  0.64500  0.63210  Biso   1.000  C
  H9       1.0000 0.06420  0.73200  0.69970  Biso   1.000  H
  H10      1.0000 0.18070  0.65570  0.66370  Biso   1.000  H
  C10      1.0000 0.37400  0.38700  0.45300  Biso   1.000  C
  H11      1.0000 0.28910  0.39270  0.36200  Biso   1.000  H
  C11      1.0000 0.43100  0.52700  0.59800  Biso   1.000  C
  H12      1.0000 0.50930  0.51840  0.68840  Biso   1.000  H
  H13      1.0000 0.34750  0.55000  0.61500  Biso   1.000  H
  C12      1.0000 0.50300  0.35200  0.42200  Biso   1.000  C
  H14      1.0000 0.46340  0.26310  0.32750  Biso   1.000  H
  H15      1.0000 0.58350  0.33870  0.50770  Biso   1.000  H
  C13      1.0000 0.45100  0.35600  0.48100  Biso   1.000  C
  C14      1.0000 0.51500  0.48900  0.64100  Biso   1.000  C
  C15      1.0000 0.38100  0.39100  0.34500  Biso   1.000  C
  H16      1.0000 0.53440  0.31160  0.48140  Biso   1.000  H
  H17      1.0000 0.43020  0.52130  0.64940  Biso   1.000  H
  H18      1.0000 0.57170  0.46200  0.72500  Biso   1.000  H
  H19      1.0000 0.28710  0.41810  0.33290  Biso   1.000  H
  H20      1.0000 0.35350  0.30590  0.25050  Biso   1.000  H
  O7       1.0000 0.41600  0.18000  0.56000  Biso   1.000  O
  Sm2      1.0000 0.81519  0.99199  0.53474  Biso   1.000  Sm
  C16      1.0000 0.59040  0.93840  0.21960  Biso   1.000  C
  O8       1.0000 0.56800  0.00500  0.32890  Biso   1.000  O
  O9       1.0000 0.71330  0.89820  0.25210  Biso   1.000  O
  O10      1.0000 0.64150  0.75340  0.41010  Biso   1.000  O
  O11      1.0000 0.79510  0.82750  0.65050  Biso   1.000  O
  O12      1.0000 0.86270  0.24770  0.58600  Biso   1.000  O
  O13      1.0000 0.00620  0.13620  0.50950  Biso   1.000  O
  C17      1.0000 0.46780  0.89480  0.05120  Biso   1.000  C
  H21      1.0000 0.39680  0.80670  0.01770  Biso   1.000  H
  C18      1.0000 0.53080  0.85920  0.93950  Biso   1.000  C
  H22      1.0000 0.44610  0.81280  0.83210  Biso   1.000  H
  H23      1.0000 0.59450  0.79340  0.95690  Biso   1.000  H
  C19      1.0000 0.37460  0.00460  0.03370  Biso   1.000  C
  H24      1.0000 0.28420  0.96360  0.92970  Biso   1.000  H
  H25      1.0000 0.34120  0.02900  0.10860  Biso   1.000  H
  C20      1.0000 0.67320  0.75050  0.53390  Biso   1.000  C
  C21      1.0000 0.95970  0.24910  0.54850  Biso   1.000  C
  C22      1.0000 0.01990  0.37630  0.53710  Biso   1.000  C
  H26      1.0000 0.12610  0.37880  0.56360  Biso   1.000  H
  C23      1.0000 0.01910  0.51870  0.65180  Biso   1.000  C
  H27      1.0000 0.08570  0.53190  0.75820  Biso   1.000  H
  H28      1.0000 0.91630  0.51550  0.63350  Biso   1.000  H
  C24      1.0000 0.92650  0.35500  0.36790  Biso   1.000  C
  H29      1.0000 0.93580  0.26800  0.30030  Biso   1.000  H
  H30      1.0000 0.81930  0.34430  0.33630  Biso   1.000  H
  C25      1.0000 0.62600  0.61300  0.54700  Biso   1.000  C
  H31      1.0000 0.71090  0.60730  0.63800  Biso   1.000  H
  C26      1.0000 0.56900  0.47300  0.40200  Biso   1.000  C
  H32      1.0000 0.49070  0.48160  0.31160  Biso   1.000  H
  H33      1.0000 0.65250  0.45000  0.38500  Biso   1.000  H
  C27      1.0000 0.49700  0.64800  0.57800  Biso   1.000  C
  H34      1.0000 0.53660  0.73690  0.67250  Biso   1.000  H
  H35      1.0000 0.41650  0.66130  0.49230  Biso   1.000  H
  C28      1.0000 0.54900  0.64400  0.51900  Biso   1.000  C
  C29      1.0000 0.48500  0.51100  0.35900  Biso   1.000  C
  C30      1.0000 0.61900  0.60900  0.65500  Biso   1.000  C
  H36      1.0000 0.46560  0.68840  0.51860  Biso   1.000  H
  H37      1.0000 0.56980  0.47870  0.35060  Biso   1.000  H
  H38      1.0000 0.42830  0.53800  0.27500  Biso   1.000  H
  H39      1.0000 0.71290  0.58190  0.66710  Biso   1.000  H
  H40      1.0000 0.64650  0.69410  0.74950  Biso   1.000  H
  O14      1.0000 0.58400  0.82000  0.44000  Biso   1.000  O
