data_image0
_cell_length_a       10.18
_cell_length_b       11.06
_cell_length_c       14.0137
_cell_angle_alpha    68.297
_cell_angle_beta     78.859
_cell_angle_gamma    72.3

_symmetry_space_group_name_H-M    "P 1"
_symmetry_int_tables_number       1

loop_
  _symmetry_equiv_pos_as_xyz
  'x, y, z'

loop_
  _atom_site_label
  _atom_site_occupancy
  _atom_site_fract_x
  _atom_site_fract_y
  _atom_site_fract_z
  _atom_site_thermal_displace_type
  _atom_site_B_iso_or_equiv
  _atom_site_type_symbol
  Zn1      1.0000 0.92247  0.14624  0.08602  Biso   1.000  Zn
  Zn2      1.0000 0.92154  0.64801  0.08304  Biso   1.000  Zn
  Zn3      1.0000 0.37564  0.01330  0.17730  Biso   1.000  Zn
  Zn4      1.0000 0.02476  0.22077  0.48851  Biso   1.000  Zn
  Zn5      1.0000 0.61851  0.49055  0.82359  Biso   1.000  Zn
  P1       1.0000 0.77494  0.46867  0.01775  Biso   1.000  P
  P2       1.0000 0.22200  0.03026  0.98437  Biso   1.000  P
  P3       1.0000 0.15964  0.98644  0.38524  Biso   1.000  P
  P4       1.0000 0.15665  0.47441  0.37991  Biso   1.000  P
  O1       1.0000 0.66580  0.49420  0.94898  Biso   1.000  O
  O2       1.0000 0.81870  0.59497  0.00086  Biso   1.000  O
  O3       1.0000 0.89850  0.34952  0.01357  Biso   1.000  O
  O4       1.0000 0.58420  0.52320  0.16972  Biso   1.000  O
  H1       1.0000 0.61100  0.58400  0.16200  Biso   1.000  H
  O5       1.0000 0.51110  0.30865  0.20216  Biso   1.000  O
  O6       1.0000 0.72200  0.18695  0.17230  Biso   1.000  O
  O7       1.0000 0.09960  0.15040  0.98740  Biso   1.000  O
  O8       1.0000 0.17760  0.90503  0.99925  Biso   1.000  O
  O9       1.0000 0.32850  0.00270  0.05536  Biso   1.000  O
  O10      1.0000 0.41920  0.97000  0.84040  Biso   1.000  O
  H2       1.0000 0.38300  0.91800  0.84500  Biso   1.000  H
  O11      1.0000 0.49120  0.18660  0.80011  Biso   1.000  O
  O12      1.0000 0.28050  0.30980  0.82946  Biso   1.000  O
  O13      1.0000 0.28680  0.94570  0.31540  Biso   1.000  O
  O14      1.0000 0.17250  0.09740  0.42081  Biso   1.000  O
  O15      1.0000 0.13200  0.86540  0.47591  Biso   1.000  O
  O16      1.0000 0.02380  0.15960  0.21489  Biso   1.000  O
  H3       1.0000 0.00700  0.21800  0.22900  Biso   1.000  H
  O17      1.0000 0.97110  0.95960  0.19302  Biso   1.000  O
  O18      1.0000 0.93870  0.84980  0.35864  Biso   1.000  O
  O19      1.0000 0.12700  0.35860  0.47185  Biso   1.000  O
  O20      1.0000 0.17220  0.58740  0.41544  Biso   1.000  O
  H4       1.0000 0.25900  0.59800  0.39400  Biso   1.000  H
  O21      1.0000 0.28010  0.43460  0.30876  Biso   1.000  O
  O22      1.0000 0.01610  0.65980  0.21726  Biso   1.000  O
  H5       1.0000 0.00400  0.71300  0.24100  Biso   1.000  H
  O23      1.0000 0.93320  0.34540  0.35286  Biso   1.000  O
  O24      1.0000 0.96680  0.46130  0.18916  Biso   1.000  O
  C1       1.0000 0.69500  0.41710  0.15080  Biso   1.000  C
  H6       1.0000 0.76500  0.38700  0.19700  Biso   1.000  H
  C2       1.0000 0.63820  0.29650  0.17680  Biso   1.000  C
  C3       1.0000 0.30660  0.07980  0.85250  Biso   1.000  C
  H7       1.0000 0.24100  0.10500  0.80300  Biso   1.000  H
  C4       1.0000 0.36450  0.20000  0.82610  Biso   1.000  C
  C5       1.0000 0.00580  0.05650  0.31030  Biso   1.000  C
  H8       1.0000 0.93100  0.08800  0.35600  Biso   1.000  H
  C6       1.0000 0.96920  0.94750  0.28630  Biso   1.000  C
  C7       1.0000 0.99950  0.55190  0.31060  Biso   1.000  C
  H9       1.0000 0.92200  0.57800  0.35800  Biso   1.000  H
  C8       1.0000 0.96390  0.44560  0.28230  Biso   1.000  C
  Zn6      1.0000 0.00560  0.24250  0.49610  Biso   1.000  Zn
  Zn7      1.0000 0.07753  0.85376  0.91398  Biso   1.000  Zn
  Zn8      1.0000 0.07846  0.35199  0.91696  Biso   1.000  Zn
  Zn9      1.0000 0.62436  0.98670  0.82270  Biso   1.000  Zn
  Zn10     1.0000 0.97524  0.77923  0.51149  Biso   1.000  Zn
  Zn11     1.0000 0.38149  0.50945  0.17641  Biso   1.000  Zn
  P5       1.0000 0.22506  0.53133  0.98225  Biso   1.000  P
  P6       1.0000 0.77800  0.96974  0.01563  Biso   1.000  P
  P7       1.0000 0.84036  0.01356  0.61476  Biso   1.000  P
  P8       1.0000 0.84335  0.52559  0.62009  Biso   1.000  P
  O25      1.0000 0.33420  0.50580  0.05102  Biso   1.000  O
  O26      1.0000 0.18130  0.40503  0.99914  Biso   1.000  O
  O27      1.0000 0.10150  0.65048  0.98643  Biso   1.000  O
  O28      1.0000 0.41580  0.47680  0.83028  Biso   1.000  O
  H10      1.0000 0.38900  0.41600  0.83800  Biso   1.000  H
  O29      1.0000 0.48890  0.69135  0.79784  Biso   1.000  O
  O30      1.0000 0.27800  0.81305  0.82770  Biso   1.000  O
  O31      1.0000 0.90040  0.84960  0.01260  Biso   1.000  O
  O32      1.0000 0.82240  0.09497  0.00075  Biso   1.000  O
  O33      1.0000 0.67150  0.99730  0.94464  Biso   1.000  O
  O34      1.0000 0.58080  0.03000  0.15960  Biso   1.000  O
  H11      1.0000 0.61700  0.08200  0.15500  Biso   1.000  H
  O35      1.0000 0.50880  0.81340  0.19989  Biso   1.000  O
  O36      1.0000 0.71950  0.69020  0.17054  Biso   1.000  O
  O37      1.0000 0.71320  0.05430  0.68460  Biso   1.000  O
  O38      1.0000 0.82750  0.90260  0.57919  Biso   1.000  O
  O39      1.0000 0.86800  0.13460  0.52409  Biso   1.000  O
  O40      1.0000 0.97620  0.84040  0.78511  Biso   1.000  O
  H12      1.0000 0.99300  0.78200  0.77100  Biso   1.000  H
  O41      1.0000 0.02890  0.04040  0.80698  Biso   1.000  O
  O42      1.0000 0.06130  0.15020  0.64136  Biso   1.000  O
  O43      1.0000 0.87300  0.64140  0.52815  Biso   1.000  O
  O44      1.0000 0.82780  0.41260  0.58456  Biso   1.000  O
  H13      1.0000 0.74100  0.40200  0.60600  Biso   1.000  H
  O45      1.0000 0.71990  0.56540  0.69124  Biso   1.000  O
  O46      1.0000 0.98390  0.34020  0.78274  Biso   1.000  O
  H14      1.0000 0.99600  0.28700  0.75900  Biso   1.000  H
  O47      1.0000 0.06680  0.65460  0.64714  Biso   1.000  O
  O48      1.0000 0.03320  0.53870  0.81084  Biso   1.000  O
  C9       1.0000 0.30500  0.58290  0.84920  Biso   1.000  C
  H15      1.0000 0.23500  0.61300  0.80300  Biso   1.000  H
  C10      1.0000 0.36180  0.70350  0.82320  Biso   1.000  C
  C11      1.0000 0.69340  0.92020  0.14750  Biso   1.000  C
  H16      1.0000 0.75900  0.89500  0.19700  Biso   1.000  H
  C12      1.0000 0.63550  0.80000  0.17390  Biso   1.000  C
  C13      1.0000 0.99420  0.94350  0.68970  Biso   1.000  C
  H17      1.0000 0.06900  0.91200  0.64400  Biso   1.000  H
  C14      1.0000 0.03080  0.05250  0.71370  Biso   1.000  C
  C15      1.0000 0.00050  0.44810  0.68940  Biso   1.000  C
  H18      1.0000 0.07800  0.42200  0.64200  Biso   1.000  H
  C16      1.0000 0.03610  0.55440  0.71770  Biso   1.000  C
  Zn12     1.0000 0.99440  0.75750  0.50390  Biso   1.000  Zn
