data_image0
_cell_length_a       9.9725
_cell_length_b       10.5369
_cell_length_c       14.1184
_cell_angle_alpha    90.477
_cell_angle_beta     109.924
_cell_angle_gamma    98.596

_symmetry_space_group_name_H-M    "P 1"
_symmetry_int_tables_number       1

loop_
  _symmetry_equiv_pos_as_xyz
  'x, y, z'

loop_
  _atom_site_label
  _atom_site_occupancy
  _atom_site_fract_x
  _atom_site_fract_y
  _atom_site_fract_z
  _atom_site_thermal_displace_type
  _atom_site_B_iso_or_equiv
  _atom_site_type_symbol
  Co1      1.0000 0.58392  0.27034  0.00512  Biso   1.000  Co
  Co2      1.0000 0.04168  0.17515  0.89916  Biso   1.000  Co
  Co3      1.0000 0.13496  0.31672  0.12657  Biso   1.000  Co
  P1       1.0000 0.83849  0.09710  0.03292  Biso   1.000  P
  P2       1.0000 0.31476  0.41666  0.98450  Biso   1.000  P
  O1       1.0000 0.99650  0.15510  0.04830  Biso   1.000  O
  O2       1.0000 0.82810  0.96010  0.06640  Biso   1.000  O
  O3       1.0000 0.76040  0.18070  0.07430  Biso   1.000  O
  O4       1.0000 0.84520  0.03740  0.84930  Biso   1.000  O
  O5       1.0000 0.86830  0.28430  0.85100  Biso   1.000  O
  O6       1.0000 0.65580  0.28690  0.86980  Biso   1.000  O
  O7       1.0000 0.16920  0.33540  0.97730  Biso   1.000  O
  O8       1.0000 0.40080  0.35180  0.93520  Biso   1.000  O
  O9       1.0000 0.29030  0.55040  0.95000  Biso   1.000  O
  O10      1.0000 0.31640  0.46860  0.17000  Biso   1.000  O
  O11      1.0000 0.31440  0.22210  0.17000  Biso   1.000  O
  O12      1.0000 0.51480  0.23340  0.13180  Biso   1.000  O
  C1       1.0000 0.75550  0.09090  0.89460  Biso   1.000  C
  H1       1.0000 0.65680  0.04300  0.87120  Biso   1.000  H
  C2       1.0000 0.75850  0.23110  0.86830  Biso   1.000  C
  C3       1.0000 0.40710  0.42180  0.12180  Biso   1.000  C
  H2       1.0000 0.50340  0.47430  0.14290  Biso   1.000  H
  C4       1.0000 0.41450  0.28160  0.14440  Biso   1.000  C
  N1       1.0000 0.06540  0.19790  0.75630  Biso   1.000  N
  C5       1.0000 0.09270  0.10780  0.70600  Biso   1.000  C
  H3       1.0000 0.10840  0.03060  0.73610  Biso   1.000  H
  C6       1.0000 0.09990  0.11920  0.61070  Biso   1.000  C
  H4       1.0000 0.11880  0.04990  0.57880  Biso   1.000  H
  C7       1.0000 0.08050  0.22670  0.56340  Biso   1.000  C
  C8       1.0000 0.05780  0.32760  0.61810  Biso   1.000  C
  H5       1.0000 0.04870  0.40730  0.59100  Biso   1.000  H
  C9       1.0000 0.04890  0.30850  0.71200  Biso   1.000  C
  H6       1.0000 0.03050  0.37590  0.74630  Biso   1.000  H
  N2       1.0000 0.10730  0.27880  0.26820  Biso   1.000  N
  C10      1.0000 0.99960  0.31560  0.29300  Biso   1.000  C
  H7       1.0000 0.92980  0.35310  0.24500  Biso   1.000  H
  C11      1.0000 0.98890  0.29940  0.38800  Biso   1.000  C
  H8       1.0000 0.91330  0.32720  0.40230  Biso   1.000  H
  C12      1.0000 0.08910  0.24260  0.46130  Biso   1.000  C
  C13      1.0000 0.18070  0.18430  0.42790  Biso   1.000  C
  H9       1.0000 0.23880  0.13100  0.46920  Biso   1.000  H
  C14      1.0000 0.18610  0.20560  0.33160  Biso   1.000  C
  H10      1.0000 0.24950  0.16550  0.31120  Biso   1.000  H
  C15      1.0000 0.95500  0.82310  0.70610  Biso   1.000  C
  C16      1.0000 0.96400  0.84040  0.61120  Biso   1.000  C
  C17      1.0000 0.83300  0.63400  0.55880  Biso   1.000  C
  C18      1.0000 0.83400  0.62100  0.65670  Biso   1.000  C
  C19      1.0000 0.18780  0.20300  0.73860  Biso   1.000  C
  C20      1.0000 0.19430  0.21100  0.64190  Biso   1.000  C
  C21      1.0000 0.94810  0.20400  0.57840  Biso   1.000  C
  C22      1.0000 0.94200  0.19000  0.67300  Biso   1.000  C
  H11      1.0000 0.99740  0.89080  0.75480  Biso   1.000  H
  H12      1.0000 0.98680  0.08170  0.39930  Biso   1.000  H
  H13      1.0000 0.78600  0.56920  0.50830  Biso   1.000  H
  H14      1.0000 0.79310  0.54300  0.67300  Biso   1.000  H
  H15      1.0000 0.27260  0.20070  0.79270  Biso   1.000  H
  H16      1.0000 0.28090  0.20460  0.63220  Biso   1.000  H
  H17      1.0000 0.86280  0.19830  0.52330  Biso   1.000  H
  H18      1.0000 0.85260  0.17520  0.68130  Biso   1.000  H
  Co4      1.0000 0.41608  0.72966  0.99488  Biso   1.000  Co
  Co5      1.0000 0.95832  0.82485  0.10084  Biso   1.000  Co
  Co6      1.0000 0.86504  0.68328  0.87343  Biso   1.000  Co
  P3       1.0000 0.16151  0.90290  0.96708  Biso   1.000  P
  P4       1.0000 0.68524  0.58334  0.01550  Biso   1.000  P
  O13      1.0000 0.00350  0.84490  0.95170  Biso   1.000  O
  O14      1.0000 0.17190  0.03990  0.93360  Biso   1.000  O
  O15      1.0000 0.23960  0.81930  0.92570  Biso   1.000  O
  O16      1.0000 0.15480  0.96260  0.15070  Biso   1.000  O
  O17      1.0000 0.13170  0.71570  0.14900  Biso   1.000  O
  O18      1.0000 0.34420  0.71310  0.13020  Biso   1.000  O
  O19      1.0000 0.83080  0.66460  0.02270  Biso   1.000  O
  O20      1.0000 0.59920  0.64820  0.06480  Biso   1.000  O
  O21      1.0000 0.70970  0.44960  0.05000  Biso   1.000  O
  O22      1.0000 0.68360  0.53140  0.83000  Biso   1.000  O
  O23      1.0000 0.68560  0.77790  0.83000  Biso   1.000  O
  O24      1.0000 0.48520  0.76660  0.86820  Biso   1.000  O
  C23      1.0000 0.24450  0.90910  0.10540  Biso   1.000  C
  H19      1.0000 0.34320  0.95700  0.12880  Biso   1.000  H
  C24      1.0000 0.24150  0.76890  0.13170  Biso   1.000  C
  C25      1.0000 0.59290  0.57820  0.87820  Biso   1.000  C
  H20      1.0000 0.49660  0.52570  0.85710  Biso   1.000  H
  C26      1.0000 0.58550  0.71840  0.85560  Biso   1.000  C
  N3       1.0000 0.93460  0.80210  0.24370  Biso   1.000  N
  C27      1.0000 0.90730  0.89220  0.29400  Biso   1.000  C
  H21      1.0000 0.89160  0.96940  0.26390  Biso   1.000  H
  C28      1.0000 0.90010  0.88080  0.38930  Biso   1.000  C
  H22      1.0000 0.88120  0.95010  0.42120  Biso   1.000  H
  C29      1.0000 0.91950  0.77330  0.43660  Biso   1.000  C
  C30      1.0000 0.94220  0.67240  0.38190  Biso   1.000  C
  H23      1.0000 0.95130  0.59270  0.40900  Biso   1.000  H
  C31      1.0000 0.95110  0.69150  0.28800  Biso   1.000  C
  H24      1.0000 0.96950  0.62410  0.25370  Biso   1.000  H
  N4       1.0000 0.89270  0.72120  0.73180  Biso   1.000  N
  C32      1.0000 0.00040  0.68440  0.70700  Biso   1.000  C
  H25      1.0000 0.07020  0.64690  0.75500  Biso   1.000  H
  C33      1.0000 0.01110  0.70060  0.61200  Biso   1.000  C
  H26      1.0000 0.08670  0.67280  0.59770  Biso   1.000  H
  C34      1.0000 0.91090  0.75740  0.53870  Biso   1.000  C
  C35      1.0000 0.81930  0.81570  0.57210  Biso   1.000  C
  H27      1.0000 0.76120  0.86900  0.53080  Biso   1.000  H
  C36      1.0000 0.81390  0.79440  0.66840  Biso   1.000  C
  H28      1.0000 0.75050  0.83450  0.68880  Biso   1.000  H
  C37      1.0000 0.04500  0.17690  0.29390  Biso   1.000  C
  C38      1.0000 0.03600  0.15960  0.38880  Biso   1.000  C
  C39      1.0000 0.16700  0.36600  0.44120  Biso   1.000  C
  C40      1.0000 0.16600  0.37900  0.34330  Biso   1.000  C
  C41      1.0000 0.81220  0.79700  0.26140  Biso   1.000  C
  C42      1.0000 0.80570  0.78900  0.35810  Biso   1.000  C
  C43      1.0000 0.05190  0.79600  0.42160  Biso   1.000  C
  C44      1.0000 0.05800  0.81000  0.32700  Biso   1.000  C
  H29      1.0000 0.00260  0.10920  0.24520  Biso   1.000  H
  H30      1.0000 0.01320  0.91830  0.60070  Biso   1.000  H
  H31      1.0000 0.21400  0.43080  0.49170  Biso   1.000  H
  H32      1.0000 0.20690  0.45700  0.32700  Biso   1.000  H
  H33      1.0000 0.72740  0.79930  0.20730  Biso   1.000  H
  H34      1.0000 0.71910  0.79540  0.36780  Biso   1.000  H
  H35      1.0000 0.13720  0.80170  0.47670  Biso   1.000  H
  H36      1.0000 0.14740  0.82480  0.31870  Biso   1.000  H
