data_image0
_cell_length_a       22.3092
_cell_length_b       41.769
_cell_length_c       7.1646
_cell_angle_alpha    90
_cell_angle_beta     90
_cell_angle_gamma    90

_symmetry_space_group_name_H-M    "P 1"
_symmetry_int_tables_number       1

loop_
  _symmetry_equiv_pos_as_xyz
  'x, y, z'

loop_
  _atom_site_label
  _atom_site_occupancy
  _atom_site_fract_x
  _atom_site_fract_y
  _atom_site_fract_z
  _atom_site_thermal_displace_type
  _atom_site_B_iso_or_equiv
  _atom_site_type_symbol
  Na1      1.0000 0.04512  0.07141  0.00540  Biso   1.000  Na
  N1       1.0000 0.10684  0.04203  0.77060  Biso   1.000  N
  N2       1.0000 0.04348  0.94078  0.81500  Biso   1.000  N
  N3       1.0000 0.19286  0.87808  0.69480  Biso   1.000  N
  N4       1.0000 0.35810  0.93580  0.66810  Biso   1.000  N
  N5       1.0000 0.30484  0.03910  0.70650  Biso   1.000  N
  C1       1.0000 0.17176  0.99148  0.73770  Biso   1.000  C
  C2       1.0000 0.15026  0.95981  0.74050  Biso   1.000  C
  C3       1.0000 0.19930  0.93926  0.71780  Biso   1.000  C
  C4       1.0000 0.25132  0.95797  0.70350  Biso   1.000  C
  C5       1.0000 0.23450  0.99041  0.71510  Biso   1.000  C
  C6       1.0000 0.13606  0.01963  0.75520  Biso   1.000  C
  C7       1.0000 0.09053  0.94961  0.77910  Biso   1.000  C
  C8       1.0000 0.19601  0.90518  0.70640  Biso   1.000  C
  C9       1.0000 0.31067  0.94574  0.68260  Biso   1.000  C
  C10      1.0000 0.27328  0.01740  0.70960  Biso   1.000  C
  O1       1.0000 0.01910  0.01850  0.14370  Biso   1.000  O
  C11      1.0000 0.04680  0.00020  0.29800  Biso   1.000  C
  H1       1.0000 0.06100  0.97920  0.25190  Biso   1.000  H
  H2       1.0000 0.08160  0.01210  0.34870  Biso   1.000  H
  C12      1.0000 0.00300  0.99560  0.44140  Biso   1.000  C
  H3       1.0000 0.00730  0.97400  0.49600  Biso   1.000  H
  H4       1.0000 0.00900  0.01150  0.54190  Biso   1.000  H
  C13      1.0000 0.05360  0.00100  0.36800  Biso   1.000  C
  H5       1.0000 0.07700  0.98500  0.43870  Biso   1.000  H
  H6       1.0000 0.07550  0.02170  0.36990  Biso   1.000  H
  C14      1.0000 0.95730  0.01010  0.16780  Biso   1.000  C
  H7       1.0000 0.05360  0.00720  0.07960  Biso   1.000  H
  H8       1.0000 0.93170  0.02890  0.14040  Biso   1.000  H
  Na2      1.0000 0.04512  0.57141  0.50540  Biso   1.000  Na
  N6       1.0000 0.10684  0.54203  0.27060  Biso   1.000  N
  N7       1.0000 0.04348  0.44078  0.31500  Biso   1.000  N
  N8       1.0000 0.19286  0.37808  0.19480  Biso   1.000  N
  N9       1.0000 0.35810  0.43580  0.16810  Biso   1.000  N
  N10      1.0000 0.30484  0.53910  0.20650  Biso   1.000  N
  C15      1.0000 0.17176  0.49148  0.23770  Biso   1.000  C
  C16      1.0000 0.15026  0.45981  0.24050  Biso   1.000  C
  C17      1.0000 0.19930  0.43926  0.21780  Biso   1.000  C
  C18      1.0000 0.25132  0.45797  0.20350  Biso   1.000  C
  C19      1.0000 0.23450  0.49041  0.21510  Biso   1.000  C
  C20      1.0000 0.13606  0.51963  0.25520  Biso   1.000  C
  C21      1.0000 0.09053  0.44961  0.27910  Biso   1.000  C
  C22      1.0000 0.19601  0.40518  0.20640  Biso   1.000  C
  C23      1.0000 0.31067  0.44574  0.18260  Biso   1.000  C
  C24      1.0000 0.27328  0.51740  0.20960  Biso   1.000  C
  O2       1.0000 0.01910  0.51850  0.64370  Biso   1.000  O
  C25      1.0000 0.04680  0.50020  0.79800  Biso   1.000  C
  H9       1.0000 0.06100  0.47920  0.75190  Biso   1.000  H
  H10      1.0000 0.08160  0.51210  0.84870  Biso   1.000  H
  C26      1.0000 0.00300  0.49560  0.94140  Biso   1.000  C
  H11      1.0000 0.00730  0.47400  0.99600  Biso   1.000  H
  H12      1.0000 0.00900  0.51150  0.04190  Biso   1.000  H
  C27      1.0000 0.05360  0.50100  0.86800  Biso   1.000  C
  H13      1.0000 0.07700  0.48500  0.93870  Biso   1.000  H
  H14      1.0000 0.07550  0.52170  0.86990  Biso   1.000  H
  C28      1.0000 0.95730  0.51010  0.66780  Biso   1.000  C
  H15      1.0000 0.05360  0.50720  0.57960  Biso   1.000  H
  H16      1.0000 0.93170  0.52890  0.64040  Biso   1.000  H
  Na3      1.0000 0.54512  0.07141  0.50540  Biso   1.000  Na
  N11      1.0000 0.60684  0.04203  0.27060  Biso   1.000  N
  N12      1.0000 0.54348  0.94078  0.31500  Biso   1.000  N
  N13      1.0000 0.69286  0.87808  0.19480  Biso   1.000  N
  N14      1.0000 0.85810  0.93580  0.16810  Biso   1.000  N
  N15      1.0000 0.80484  0.03910  0.20650  Biso   1.000  N
  C29      1.0000 0.67176  0.99148  0.23770  Biso   1.000  C
  C30      1.0000 0.65026  0.95981  0.24050  Biso   1.000  C
  C31      1.0000 0.69930  0.93926  0.21780  Biso   1.000  C
  C32      1.0000 0.75132  0.95797  0.20350  Biso   1.000  C
  C33      1.0000 0.73450  0.99041  0.21510  Biso   1.000  C
  C34      1.0000 0.63606  0.01963  0.25520  Biso   1.000  C
  C35      1.0000 0.59053  0.94961  0.27910  Biso   1.000  C
  C36      1.0000 0.69601  0.90518  0.20640  Biso   1.000  C
  C37      1.0000 0.81067  0.94574  0.18260  Biso   1.000  C
  C38      1.0000 0.77328  0.01740  0.20960  Biso   1.000  C
  O3       1.0000 0.51910  0.01850  0.64370  Biso   1.000  O
  C39      1.0000 0.54680  0.00020  0.79800  Biso   1.000  C
  H17      1.0000 0.56100  0.97920  0.75190  Biso   1.000  H
  H18      1.0000 0.58160  0.01210  0.84870  Biso   1.000  H
  C40      1.0000 0.50300  0.99560  0.94140  Biso   1.000  C
  H19      1.0000 0.50730  0.97400  0.99600  Biso   1.000  H
  H20      1.0000 0.50900  0.01150  0.04190  Biso   1.000  H
  C41      1.0000 0.55360  0.00100  0.86800  Biso   1.000  C
  H21      1.0000 0.57700  0.98500  0.93870  Biso   1.000  H
  H22      1.0000 0.57550  0.02170  0.86990  Biso   1.000  H
  C42      1.0000 0.45730  0.01010  0.66780  Biso   1.000  C
  H23      1.0000 0.55360  0.00720  0.57960  Biso   1.000  H
  H24      1.0000 0.43170  0.02890  0.64040  Biso   1.000  H
  Na4      1.0000 0.54512  0.57141  0.00540  Biso   1.000  Na
  N16      1.0000 0.60684  0.54203  0.77060  Biso   1.000  N
  N17      1.0000 0.54348  0.44078  0.81500  Biso   1.000  N
  N18      1.0000 0.69286  0.37808  0.69480  Biso   1.000  N
  N19      1.0000 0.85810  0.43580  0.66810  Biso   1.000  N
  N20      1.0000 0.80484  0.53910  0.70650  Biso   1.000  N
  C43      1.0000 0.67176  0.49148  0.73770  Biso   1.000  C
  C44      1.0000 0.65026  0.45981  0.74050  Biso   1.000  C
  C45      1.0000 0.69930  0.43926  0.71780  Biso   1.000  C
  C46      1.0000 0.75132  0.45797  0.70350  Biso   1.000  C
  C47      1.0000 0.73450  0.49041  0.71510  Biso   1.000  C
  C48      1.0000 0.63606  0.51963  0.75520  Biso   1.000  C
  C49      1.0000 0.59053  0.44961  0.77910  Biso   1.000  C
  C50      1.0000 0.69601  0.40518  0.70640  Biso   1.000  C
  C51      1.0000 0.81067  0.44574  0.68260  Biso   1.000  C
  C52      1.0000 0.77328  0.51740  0.70960  Biso   1.000  C
  O4       1.0000 0.51910  0.51850  0.14370  Biso   1.000  O
  C53      1.0000 0.54680  0.50020  0.29800  Biso   1.000  C
  H25      1.0000 0.56100  0.47920  0.25190  Biso   1.000  H
  H26      1.0000 0.58160  0.51210  0.34870  Biso   1.000  H
  C54      1.0000 0.50300  0.49560  0.44140  Biso   1.000  C
  H27      1.0000 0.50730  0.47400  0.49600  Biso   1.000  H
  H28      1.0000 0.50900  0.51150  0.54190  Biso   1.000  H
  C55      1.0000 0.55360  0.50100  0.36800  Biso   1.000  C
  H29      1.0000 0.57700  0.48500  0.43870  Biso   1.000  H
  H30      1.0000 0.57550  0.52170  0.36990  Biso   1.000  H
  C56      1.0000 0.45730  0.51010  0.16780  Biso   1.000  C
  H31      1.0000 0.55360  0.50720  0.07960  Biso   1.000  H
  H32      1.0000 0.43170  0.52890  0.14040  Biso   1.000  H
  Na5      1.0000 0.95488  0.92859  0.00540  Biso   1.000  Na
  N21      1.0000 0.89316  0.95797  0.77060  Biso   1.000  N
  N22      1.0000 0.95652  0.05922  0.81500  Biso   1.000  N
  N23      1.0000 0.80714  0.12192  0.69480  Biso   1.000  N
  N24      1.0000 0.64190  0.06420  0.66810  Biso   1.000  N
  N25      1.0000 0.69516  0.96090  0.70650  Biso   1.000  N
  C57      1.0000 0.82824  0.00852  0.73770  Biso   1.000  C
  C58      1.0000 0.84974  0.04019  0.74050  Biso   1.000  C
  C59      1.0000 0.80070  0.06074  0.71780  Biso   1.000  C
  C60      1.0000 0.74868  0.04203  0.70350  Biso   1.000  C
  C61      1.0000 0.76550  0.00959  0.71510  Biso   1.000  C
  C62      1.0000 0.86394  0.98037  0.75520  Biso   1.000  C
  C63      1.0000 0.90947  0.05039  0.77910  Biso   1.000  C
  C64      1.0000 0.80399  0.09482  0.70640  Biso   1.000  C
  C65      1.0000 0.68933  0.05426  0.68260  Biso   1.000  C
  C66      1.0000 0.72672  0.98260  0.70960  Biso   1.000  C
  O5       1.0000 0.98090  0.98150  0.14370  Biso   1.000  O
  C67      1.0000 0.95320  0.99980  0.29800  Biso   1.000  C
  H33      1.0000 0.93900  0.02080  0.25190  Biso   1.000  H
  H34      1.0000 0.91840  0.98790  0.34870  Biso   1.000  H
  C68      1.0000 0.99700  0.00440  0.44140  Biso   1.000  C
  H35      1.0000 0.99270  0.02600  0.49600  Biso   1.000  H
  H36      1.0000 0.99100  0.98850  0.54190  Biso   1.000  H
  C69      1.0000 0.94640  0.99900  0.36800  Biso   1.000  C
  H37      1.0000 0.92300  0.01500  0.43870  Biso   1.000  H
  H38      1.0000 0.92450  0.97830  0.36990  Biso   1.000  H
  C70      1.0000 0.04270  0.98990  0.16780  Biso   1.000  C
  H39      1.0000 0.94640  0.99280  0.07960  Biso   1.000  H
  H40      1.0000 0.06830  0.97110  0.14040  Biso   1.000  H
  Na6      1.0000 0.95488  0.42859  0.50540  Biso   1.000  Na
  N26      1.0000 0.89316  0.45797  0.27060  Biso   1.000  N
  N27      1.0000 0.95652  0.55922  0.31500  Biso   1.000  N
  N28      1.0000 0.80714  0.62192  0.19480  Biso   1.000  N
  N29      1.0000 0.64190  0.56420  0.16810  Biso   1.000  N
  N30      1.0000 0.69516  0.46090  0.20650  Biso   1.000  N
  C71      1.0000 0.82824  0.50852  0.23770  Biso   1.000  C
  C72      1.0000 0.84974  0.54019  0.24050  Biso   1.000  C
  C73      1.0000 0.80070  0.56074  0.21780  Biso   1.000  C
  C74      1.0000 0.74868  0.54203  0.20350  Biso   1.000  C
  C75      1.0000 0.76550  0.50959  0.21510  Biso   1.000  C
  C76      1.0000 0.86394  0.48037  0.25520  Biso   1.000  C
  C77      1.0000 0.90947  0.55039  0.27910  Biso   1.000  C
  C78      1.0000 0.80399  0.59482  0.20640  Biso   1.000  C
  C79      1.0000 0.68933  0.55426  0.18260  Biso   1.000  C
  C80      1.0000 0.72672  0.48260  0.20960  Biso   1.000  C
  O6       1.0000 0.98090  0.48150  0.64370  Biso   1.000  O
  C81      1.0000 0.95320  0.49980  0.79800  Biso   1.000  C
  H41      1.0000 0.93900  0.52080  0.75190  Biso   1.000  H
  H42      1.0000 0.91840  0.48790  0.84870  Biso   1.000  H
  C82      1.0000 0.99700  0.50440  0.94140  Biso   1.000  C
  H43      1.0000 0.99270  0.52600  0.99600  Biso   1.000  H
  H44      1.0000 0.99100  0.48850  0.04190  Biso   1.000  H
  C83      1.0000 0.94640  0.49900  0.86800  Biso   1.000  C
  H45      1.0000 0.92300  0.51500  0.93870  Biso   1.000  H
  H46      1.0000 0.92450  0.47830  0.86990  Biso   1.000  H
  C84      1.0000 0.04270  0.48990  0.66780  Biso   1.000  C
  H47      1.0000 0.94640  0.49280  0.57960  Biso   1.000  H
  H48      1.0000 0.06830  0.47110  0.64040  Biso   1.000  H
  Na7      1.0000 0.45488  0.92859  0.50540  Biso   1.000  Na
  N31      1.0000 0.39316  0.95797  0.27060  Biso   1.000  N
  N32      1.0000 0.45652  0.05922  0.31500  Biso   1.000  N
  N33      1.0000 0.30714  0.12192  0.19480  Biso   1.000  N
  N34      1.0000 0.14190  0.06420  0.16810  Biso   1.000  N
  N35      1.0000 0.19516  0.96090  0.20650  Biso   1.000  N
  C85      1.0000 0.32824  0.00852  0.23770  Biso   1.000  C
  C86      1.0000 0.34974  0.04019  0.24050  Biso   1.000  C
  C87      1.0000 0.30070  0.06074  0.21780  Biso   1.000  C
  C88      1.0000 0.24868  0.04203  0.20350  Biso   1.000  C
  C89      1.0000 0.26550  0.00959  0.21510  Biso   1.000  C
  C90      1.0000 0.36394  0.98037  0.25520  Biso   1.000  C
  C91      1.0000 0.40947  0.05039  0.27910  Biso   1.000  C
  C92      1.0000 0.30399  0.09482  0.20640  Biso   1.000  C
  C93      1.0000 0.18933  0.05426  0.18260  Biso   1.000  C
  C94      1.0000 0.22672  0.98260  0.20960  Biso   1.000  C
  O7       1.0000 0.48090  0.98150  0.64370  Biso   1.000  O
  C95      1.0000 0.45320  0.99980  0.79800  Biso   1.000  C
  H49      1.0000 0.43900  0.02080  0.75190  Biso   1.000  H
  H50      1.0000 0.41840  0.98790  0.84870  Biso   1.000  H
  C96      1.0000 0.49700  0.00440  0.94140  Biso   1.000  C
  H51      1.0000 0.49270  0.02600  0.99600  Biso   1.000  H
  H52      1.0000 0.49100  0.98850  0.04190  Biso   1.000  H
  C97      1.0000 0.44640  0.99900  0.86800  Biso   1.000  C
  H53      1.0000 0.42300  0.01500  0.93870  Biso   1.000  H
  H54      1.0000 0.42450  0.97830  0.86990  Biso   1.000  H
  C98      1.0000 0.54270  0.98990  0.66780  Biso   1.000  C
  H55      1.0000 0.44640  0.99280  0.57960  Biso   1.000  H
  H56      1.0000 0.56830  0.97110  0.64040  Biso   1.000  H
  Na8      1.0000 0.45488  0.42859  0.00540  Biso   1.000  Na
  N36      1.0000 0.39316  0.45797  0.77060  Biso   1.000  N
  N37      1.0000 0.45652  0.55922  0.81500  Biso   1.000  N
  N38      1.0000 0.30714  0.62192  0.69480  Biso   1.000  N
  N39      1.0000 0.14190  0.56420  0.66810  Biso   1.000  N
  N40      1.0000 0.19516  0.46090  0.70650  Biso   1.000  N
  C99      1.0000 0.32824  0.50852  0.73770  Biso   1.000  C
  C100     1.0000 0.34974  0.54019  0.74050  Biso   1.000  C
  C101     1.0000 0.30070  0.56074  0.71780  Biso   1.000  C
  C102     1.0000 0.24868  0.54203  0.70350  Biso   1.000  C
  C103     1.0000 0.26550  0.50959  0.71510  Biso   1.000  C
  C104     1.0000 0.36394  0.48037  0.75520  Biso   1.000  C
  C105     1.0000 0.40947  0.55039  0.77910  Biso   1.000  C
  C106     1.0000 0.30399  0.59482  0.70640  Biso   1.000  C
  C107     1.0000 0.18933  0.55426  0.68260  Biso   1.000  C
  C108     1.0000 0.22672  0.48260  0.70960  Biso   1.000  C
  O8       1.0000 0.48090  0.48150  0.14370  Biso   1.000  O
  C109     1.0000 0.45320  0.49980  0.29800  Biso   1.000  C
  H57      1.0000 0.43900  0.52080  0.25190  Biso   1.000  H
  H58      1.0000 0.41840  0.48790  0.34870  Biso   1.000  H
  C110     1.0000 0.49700  0.50440  0.44140  Biso   1.000  C
  H59      1.0000 0.49270  0.52600  0.49600  Biso   1.000  H
  H60      1.0000 0.49100  0.48850  0.54190  Biso   1.000  H
  C111     1.0000 0.44640  0.49900  0.36800  Biso   1.000  C
  H61      1.0000 0.42300  0.51500  0.43870  Biso   1.000  H
  H62      1.0000 0.42450  0.47830  0.36990  Biso   1.000  H
  C112     1.0000 0.54270  0.48990  0.16780  Biso   1.000  C
  H63      1.0000 0.44640  0.49280  0.07960  Biso   1.000  H
  H64      1.0000 0.56830  0.47110  0.14040  Biso   1.000  H
  Na9      1.0000 0.29512  0.17859  0.25540  Biso   1.000  Na
  N41      1.0000 0.35684  0.20797  0.02060  Biso   1.000  N
  N42      1.0000 0.29348  0.30922  0.06500  Biso   1.000  N
  N43      1.0000 0.44286  0.37192  0.94480  Biso   1.000  N
  N44      1.0000 0.60810  0.31420  0.91810  Biso   1.000  N
  N45      1.0000 0.55484  0.21090  0.95650  Biso   1.000  N
  C113     1.0000 0.42176  0.25852  0.98770  Biso   1.000  C
  C114     1.0000 0.40026  0.29019  0.99050  Biso   1.000  C
  C115     1.0000 0.44930  0.31074  0.96780  Biso   1.000  C
  C116     1.0000 0.50132  0.29203  0.95350  Biso   1.000  C
  C117     1.0000 0.48450  0.25959  0.96510  Biso   1.000  C
  C118     1.0000 0.38606  0.23037  0.00520  Biso   1.000  C
  C119     1.0000 0.34053  0.30039  0.02910  Biso   1.000  C
  C120     1.0000 0.44601  0.34482  0.95640  Biso   1.000  C
  C121     1.0000 0.56067  0.30426  0.93260  Biso   1.000  C
  C122     1.0000 0.52328  0.23260  0.95960  Biso   1.000  C
  O9       1.0000 0.26910  0.23150  0.39370  Biso   1.000  O
  C123     1.0000 0.29680  0.24980  0.54800  Biso   1.000  C
  H65      1.0000 0.31100  0.27080  0.50190  Biso   1.000  H
  H66      1.0000 0.33160  0.23790  0.59870  Biso   1.000  H
  C124     1.0000 0.25300  0.25440  0.69140  Biso   1.000  C
  H67      1.0000 0.25730  0.27600  0.74600  Biso   1.000  H
  H68      1.0000 0.25900  0.23850  0.79190  Biso   1.000  H
  C125     1.0000 0.30360  0.24900  0.61800  Biso   1.000  C
  H69      1.0000 0.32700  0.26500  0.68870  Biso   1.000  H
  H70      1.0000 0.32550  0.22830  0.61990  Biso   1.000  H
  C126     1.0000 0.20730  0.23990  0.41780  Biso   1.000  C
  H71      1.0000 0.30360  0.24280  0.32960  Biso   1.000  H
  H72      1.0000 0.18170  0.22110  0.39040  Biso   1.000  H
  Na10     1.0000 0.29512  0.67859  0.75540  Biso   1.000  Na
  N46      1.0000 0.35684  0.70797  0.52060  Biso   1.000  N
  N47      1.0000 0.29348  0.80922  0.56500  Biso   1.000  N
  N48      1.0000 0.44286  0.87192  0.44480  Biso   1.000  N
  N49      1.0000 0.60810  0.81420  0.41810  Biso   1.000  N
  N50      1.0000 0.55484  0.71090  0.45650  Biso   1.000  N
  C127     1.0000 0.42176  0.75852  0.48770  Biso   1.000  C
  C128     1.0000 0.40026  0.79019  0.49050  Biso   1.000  C
  C129     1.0000 0.44930  0.81074  0.46780  Biso   1.000  C
  C130     1.0000 0.50132  0.79203  0.45350  Biso   1.000  C
  C131     1.0000 0.48450  0.75959  0.46510  Biso   1.000  C
  C132     1.0000 0.38606  0.73037  0.50520  Biso   1.000  C
  C133     1.0000 0.34053  0.80039  0.52910  Biso   1.000  C
  C134     1.0000 0.44601  0.84482  0.45640  Biso   1.000  C
  C135     1.0000 0.56067  0.80426  0.43260  Biso   1.000  C
  C136     1.0000 0.52328  0.73260  0.45960  Biso   1.000  C
  O10      1.0000 0.26910  0.73150  0.89370  Biso   1.000  O
  C137     1.0000 0.29680  0.74980  0.04800  Biso   1.000  C
  H73      1.0000 0.31100  0.77080  0.00190  Biso   1.000  H
  H74      1.0000 0.33160  0.73790  0.09870  Biso   1.000  H
  C138     1.0000 0.25300  0.75440  0.19140  Biso   1.000  C
  H75      1.0000 0.25730  0.77600  0.24600  Biso   1.000  H
  H76      1.0000 0.25900  0.73850  0.29190  Biso   1.000  H
  C139     1.0000 0.30360  0.74900  0.11800  Biso   1.000  C
  H77      1.0000 0.32700  0.76500  0.18870  Biso   1.000  H
  H78      1.0000 0.32550  0.72830  0.11990  Biso   1.000  H
  C140     1.0000 0.20730  0.73990  0.91780  Biso   1.000  C
  H79      1.0000 0.30360  0.74280  0.82960  Biso   1.000  H
  H80      1.0000 0.18170  0.72110  0.89040  Biso   1.000  H
  Na11     1.0000 0.79512  0.17859  0.75540  Biso   1.000  Na
  N51      1.0000 0.85684  0.20797  0.52060  Biso   1.000  N
  N52      1.0000 0.79348  0.30922  0.56500  Biso   1.000  N
  N53      1.0000 0.94286  0.37192  0.44480  Biso   1.000  N
  N54      1.0000 0.10810  0.31420  0.41810  Biso   1.000  N
  N55      1.0000 0.05484  0.21090  0.45650  Biso   1.000  N
  C141     1.0000 0.92176  0.25852  0.48770  Biso   1.000  C
  C142     1.0000 0.90026  0.29019  0.49050  Biso   1.000  C
  C143     1.0000 0.94930  0.31074  0.46780  Biso   1.000  C
  C144     1.0000 0.00132  0.29203  0.45350  Biso   1.000  C
  C145     1.0000 0.98450  0.25959  0.46510  Biso   1.000  C
  C146     1.0000 0.88606  0.23037  0.50520  Biso   1.000  C
  C147     1.0000 0.84053  0.30039  0.52910  Biso   1.000  C
  C148     1.0000 0.94601  0.34482  0.45640  Biso   1.000  C
  C149     1.0000 0.06067  0.30426  0.43260  Biso   1.000  C
  C150     1.0000 0.02328  0.23260  0.45960  Biso   1.000  C
  O11      1.0000 0.76910  0.23150  0.89370  Biso   1.000  O
  C151     1.0000 0.79680  0.24980  0.04800  Biso   1.000  C
  H81      1.0000 0.81100  0.27080  0.00190  Biso   1.000  H
  H82      1.0000 0.83160  0.23790  0.09870  Biso   1.000  H
  C152     1.0000 0.75300  0.25440  0.19140  Biso   1.000  C
  H83      1.0000 0.75730  0.27600  0.24600  Biso   1.000  H
  H84      1.0000 0.75900  0.23850  0.29190  Biso   1.000  H
  C153     1.0000 0.80360  0.24900  0.11800  Biso   1.000  C
  H85      1.0000 0.82700  0.26500  0.18870  Biso   1.000  H
  H86      1.0000 0.82550  0.22830  0.11990  Biso   1.000  H
  C154     1.0000 0.70730  0.23990  0.91780  Biso   1.000  C
  H87      1.0000 0.80360  0.24280  0.82960  Biso   1.000  H
  H88      1.0000 0.68170  0.22110  0.89040  Biso   1.000  H
  Na12     1.0000 0.79512  0.67859  0.25540  Biso   1.000  Na
  N56      1.0000 0.85684  0.70797  0.02060  Biso   1.000  N
  N57      1.0000 0.79348  0.80922  0.06500  Biso   1.000  N
  N58      1.0000 0.94286  0.87192  0.94480  Biso   1.000  N
  N59      1.0000 0.10810  0.81420  0.91810  Biso   1.000  N
  N60      1.0000 0.05484  0.71090  0.95650  Biso   1.000  N
  C155     1.0000 0.92176  0.75852  0.98770  Biso   1.000  C
  C156     1.0000 0.90026  0.79019  0.99050  Biso   1.000  C
  C157     1.0000 0.94930  0.81074  0.96780  Biso   1.000  C
  C158     1.0000 0.00132  0.79203  0.95350  Biso   1.000  C
  C159     1.0000 0.98450  0.75959  0.96510  Biso   1.000  C
  C160     1.0000 0.88606  0.73037  0.00520  Biso   1.000  C
  C161     1.0000 0.84053  0.80039  0.02910  Biso   1.000  C
  C162     1.0000 0.94601  0.84482  0.95640  Biso   1.000  C
  C163     1.0000 0.06067  0.80426  0.93260  Biso   1.000  C
  C164     1.0000 0.02328  0.73260  0.95960  Biso   1.000  C
  O12      1.0000 0.76910  0.73150  0.39370  Biso   1.000  O
  C165     1.0000 0.79680  0.74980  0.54800  Biso   1.000  C
  H89      1.0000 0.81100  0.77080  0.50190  Biso   1.000  H
  H90      1.0000 0.83160  0.73790  0.59870  Biso   1.000  H
  C166     1.0000 0.75300  0.75440  0.69140  Biso   1.000  C
  H91      1.0000 0.75730  0.77600  0.74600  Biso   1.000  H
  H92      1.0000 0.75900  0.73850  0.79190  Biso   1.000  H
  C167     1.0000 0.80360  0.74900  0.61800  Biso   1.000  C
  H93      1.0000 0.82700  0.76500  0.68870  Biso   1.000  H
  H94      1.0000 0.82550  0.72830  0.61990  Biso   1.000  H
  C168     1.0000 0.70730  0.73990  0.41780  Biso   1.000  C
  H95      1.0000 0.80360  0.74280  0.32960  Biso   1.000  H
  H96      1.0000 0.68170  0.72110  0.39040  Biso   1.000  H
  Na13     1.0000 0.20488  0.32141  0.25540  Biso   1.000  Na
  N61      1.0000 0.14316  0.29203  0.02060  Biso   1.000  N
  N62      1.0000 0.20652  0.19078  0.06500  Biso   1.000  N
  N63      1.0000 0.05714  0.12808  0.94480  Biso   1.000  N
  N64      1.0000 0.89190  0.18580  0.91810  Biso   1.000  N
  N65      1.0000 0.94516  0.28910  0.95650  Biso   1.000  N
  C169     1.0000 0.07824  0.24148  0.98770  Biso   1.000  C
  C170     1.0000 0.09974  0.20981  0.99050  Biso   1.000  C
  C171     1.0000 0.05070  0.18926  0.96780  Biso   1.000  C
  C172     1.0000 0.99868  0.20797  0.95350  Biso   1.000  C
  C173     1.0000 0.01550  0.24041  0.96510  Biso   1.000  C
  C174     1.0000 0.11394  0.26963  0.00520  Biso   1.000  C
  C175     1.0000 0.15947  0.19961  0.02910  Biso   1.000  C
  C176     1.0000 0.05399  0.15518  0.95640  Biso   1.000  C
  C177     1.0000 0.93933  0.19574  0.93260  Biso   1.000  C
  C178     1.0000 0.97672  0.26740  0.95960  Biso   1.000  C
  O13      1.0000 0.23090  0.26850  0.39370  Biso   1.000  O
  C179     1.0000 0.20320  0.25020  0.54800  Biso   1.000  C
  H97      1.0000 0.18900  0.22920  0.50190  Biso   1.000  H
  H98      1.0000 0.16840  0.26210  0.59870  Biso   1.000  H
  C180     1.0000 0.24700  0.24560  0.69140  Biso   1.000  C
  H99      1.0000 0.24270  0.22400  0.74600  Biso   1.000  H
  H100     1.0000 0.24100  0.26150  0.79190  Biso   1.000  H
  C181     1.0000 0.19640  0.25100  0.61800  Biso   1.000  C
  H101     1.0000 0.17300  0.23500  0.68870  Biso   1.000  H
  H102     1.0000 0.17450  0.27170  0.61990  Biso   1.000  H
  C182     1.0000 0.29270  0.26010  0.41780  Biso   1.000  C
  H103     1.0000 0.19640  0.25720  0.32960  Biso   1.000  H
  H104     1.0000 0.31830  0.27890  0.39040  Biso   1.000  H
  Na14     1.0000 0.20488  0.82141  0.75540  Biso   1.000  Na
  N66      1.0000 0.14316  0.79203  0.52060  Biso   1.000  N
  N67      1.0000 0.20652  0.69078  0.56500  Biso   1.000  N
  N68      1.0000 0.05714  0.62808  0.44480  Biso   1.000  N
  N69      1.0000 0.89190  0.68580  0.41810  Biso   1.000  N
  N70      1.0000 0.94516  0.78910  0.45650  Biso   1.000  N
  C183     1.0000 0.07824  0.74148  0.48770  Biso   1.000  C
  C184     1.0000 0.09974  0.70981  0.49050  Biso   1.000  C
  C185     1.0000 0.05070  0.68926  0.46780  Biso   1.000  C
  C186     1.0000 0.99868  0.70797  0.45350  Biso   1.000  C
  C187     1.0000 0.01550  0.74041  0.46510  Biso   1.000  C
  C188     1.0000 0.11394  0.76963  0.50520  Biso   1.000  C
  C189     1.0000 0.15947  0.69961  0.52910  Biso   1.000  C
  C190     1.0000 0.05399  0.65518  0.45640  Biso   1.000  C
  C191     1.0000 0.93933  0.69574  0.43260  Biso   1.000  C
  C192     1.0000 0.97672  0.76740  0.45960  Biso   1.000  C
  O14      1.0000 0.23090  0.76850  0.89370  Biso   1.000  O
  C193     1.0000 0.20320  0.75020  0.04800  Biso   1.000  C
  H105     1.0000 0.18900  0.72920  0.00190  Biso   1.000  H
  H106     1.0000 0.16840  0.76210  0.09870  Biso   1.000  H
  C194     1.0000 0.24700  0.74560  0.19140  Biso   1.000  C
  H107     1.0000 0.24270  0.72400  0.24600  Biso   1.000  H
  H108     1.0000 0.24100  0.76150  0.29190  Biso   1.000  H
  C195     1.0000 0.19640  0.75100  0.11800  Biso   1.000  C
  H109     1.0000 0.17300  0.73500  0.18870  Biso   1.000  H
  H110     1.0000 0.17450  0.77170  0.11990  Biso   1.000  H
  C196     1.0000 0.29270  0.76010  0.91780  Biso   1.000  C
  H111     1.0000 0.19640  0.75720  0.82960  Biso   1.000  H
  H112     1.0000 0.31830  0.77890  0.89040  Biso   1.000  H
  Na15     1.0000 0.70488  0.32141  0.75540  Biso   1.000  Na
  N71      1.0000 0.64316  0.29203  0.52060  Biso   1.000  N
  N72      1.0000 0.70652  0.19078  0.56500  Biso   1.000  N
  N73      1.0000 0.55714  0.12808  0.44480  Biso   1.000  N
  N74      1.0000 0.39190  0.18580  0.41810  Biso   1.000  N
  N75      1.0000 0.44516  0.28910  0.45650  Biso   1.000  N
  C197     1.0000 0.57824  0.24148  0.48770  Biso   1.000  C
  C198     1.0000 0.59974  0.20981  0.49050  Biso   1.000  C
  C199     1.0000 0.55070  0.18926  0.46780  Biso   1.000  C
  C200     1.0000 0.49868  0.20797  0.45350  Biso   1.000  C
  C201     1.0000 0.51550  0.24041  0.46510  Biso   1.000  C
  C202     1.0000 0.61394  0.26963  0.50520  Biso   1.000  C
  C203     1.0000 0.65947  0.19961  0.52910  Biso   1.000  C
  C204     1.0000 0.55399  0.15518  0.45640  Biso   1.000  C
  C205     1.0000 0.43933  0.19574  0.43260  Biso   1.000  C
  C206     1.0000 0.47672  0.26740  0.45960  Biso   1.000  C
  O15      1.0000 0.73090  0.26850  0.89370  Biso   1.000  O
  C207     1.0000 0.70320  0.25020  0.04800  Biso   1.000  C
  H113     1.0000 0.68900  0.22920  0.00190  Biso   1.000  H
  H114     1.0000 0.66840  0.26210  0.09870  Biso   1.000  H
  C208     1.0000 0.74700  0.24560  0.19140  Biso   1.000  C
  H115     1.0000 0.74270  0.22400  0.24600  Biso   1.000  H
  H116     1.0000 0.74100  0.26150  0.29190  Biso   1.000  H
  C209     1.0000 0.69640  0.25100  0.11800  Biso   1.000  C
  H117     1.0000 0.67300  0.23500  0.18870  Biso   1.000  H
  H118     1.0000 0.67450  0.27170  0.11990  Biso   1.000  H
  C210     1.0000 0.79270  0.26010  0.91780  Biso   1.000  C
  H119     1.0000 0.69640  0.25720  0.82960  Biso   1.000  H
  H120     1.0000 0.81830  0.27890  0.89040  Biso   1.000  H
  Na16     1.0000 0.70488  0.82141  0.25540  Biso   1.000  Na
  N76      1.0000 0.64316  0.79203  0.02060  Biso   1.000  N
  N77      1.0000 0.70652  0.69078  0.06500  Biso   1.000  N
  N78      1.0000 0.55714  0.62808  0.94480  Biso   1.000  N
  N79      1.0000 0.39190  0.68580  0.91810  Biso   1.000  N
  N80      1.0000 0.44516  0.78910  0.95650  Biso   1.000  N
  C211     1.0000 0.57824  0.74148  0.98770  Biso   1.000  C
  C212     1.0000 0.59974  0.70981  0.99050  Biso   1.000  C
  C213     1.0000 0.55070  0.68926  0.96780  Biso   1.000  C
  C214     1.0000 0.49868  0.70797  0.95350  Biso   1.000  C
  C215     1.0000 0.51550  0.74041  0.96510  Biso   1.000  C
  C216     1.0000 0.61394  0.76963  0.00520  Biso   1.000  C
  C217     1.0000 0.65947  0.69961  0.02910  Biso   1.000  C
  C218     1.0000 0.55399  0.65518  0.95640  Biso   1.000  C
  C219     1.0000 0.43933  0.69574  0.93260  Biso   1.000  C
  C220     1.0000 0.47672  0.76740  0.95960  Biso   1.000  C
  O16      1.0000 0.73090  0.76850  0.39370  Biso   1.000  O
  C221     1.0000 0.70320  0.75020  0.54800  Biso   1.000  C
  H121     1.0000 0.68900  0.72920  0.50190  Biso   1.000  H
  H122     1.0000 0.66840  0.76210  0.59870  Biso   1.000  H
  C222     1.0000 0.74700  0.74560  0.69140  Biso   1.000  C
  H123     1.0000 0.74270  0.72400  0.74600  Biso   1.000  H
  H124     1.0000 0.74100  0.76150  0.79190  Biso   1.000  H
  C223     1.0000 0.69640  0.75100  0.61800  Biso   1.000  C
  H125     1.0000 0.67300  0.73500  0.68870  Biso   1.000  H
  H126     1.0000 0.67450  0.77170  0.61990  Biso   1.000  H
  C224     1.0000 0.79270  0.76010  0.41780  Biso   1.000  C
  H127     1.0000 0.69640  0.75720  0.32960  Biso   1.000  H
  H128     1.0000 0.81830  0.77890  0.39040  Biso   1.000  H
