data_image0
_cell_length_a       10.9116
_cell_length_b       10.9635
_cell_length_c       22.3452
_cell_angle_alpha    90
_cell_angle_beta     90
_cell_angle_gamma    90

_symmetry_space_group_name_H-M    "P 1"
_symmetry_int_tables_number       1

loop_
  _symmetry_equiv_pos_as_xyz
  'x, y, z'

loop_
  _atom_site_label
  _atom_site_occupancy
  _atom_site_fract_x
  _atom_site_fract_y
  _atom_site_fract_z
  _atom_site_thermal_displace_type
  _atom_site_B_iso_or_equiv
  _atom_site_type_symbol
  C1       1.0000 0.82510  0.81160  0.80410  Biso   1.000  C
  H1       1.0000 0.82370  0.85370  0.84080  Biso   1.000  H
  C2       1.0000 0.75450  0.30000  0.93700  Biso   1.000  C
  C3       1.0000 0.75790  0.30290  0.00020  Biso   1.000  C
  C4       1.0000 0.93660  0.18990  0.93380  Biso   1.000  C
  C5       1.0000 0.94570  0.18740  0.99590  Biso   1.000  C
  C6       1.0000 0.86250  0.13690  0.12160  Biso   1.000  C
  C7       1.0000 0.85880  0.13920  0.18749  Biso   1.000  C
  C8       1.0000 0.86360  0.03090  0.21820  Biso   1.000  C
  H2       1.0000 0.86680  0.95670  0.19720  Biso   1.000  H
  O1       1.0000 0.83670  0.06610  0.80014  Biso   1.000  O
  O2       1.0000 0.86320  0.04350  0.09306  Biso   1.000  O
  H3       1.0000 0.68540  0.33380  0.91660  Biso   1.000  H
  H4       1.0000 0.69410  0.34010  0.02250  Biso   1.000  H
  H5       1.0000 0.99630  0.14630  0.91180  Biso   1.000  H
  H6       1.0000 0.01040  0.14490  0.01540  Biso   1.000  H
  C9       1.0000 0.82510  0.68840  0.69590  Biso   1.000  C
  H7       1.0000 0.82370  0.64630  0.65920  Biso   1.000  H
  C10      1.0000 0.75450  0.20000  0.56300  Biso   1.000  C
  C11      1.0000 0.75790  0.19710  0.49980  Biso   1.000  C
  C12      1.0000 0.93660  0.31010  0.56620  Biso   1.000  C
  C13      1.0000 0.94570  0.31260  0.50410  Biso   1.000  C
  C14      1.0000 0.86250  0.36310  0.37840  Biso   1.000  C
  C15      1.0000 0.85880  0.36080  0.31251  Biso   1.000  C
  C16      1.0000 0.86360  0.46910  0.28180  Biso   1.000  C
  H8       1.0000 0.86680  0.54330  0.30280  Biso   1.000  H
  O3       1.0000 0.83670  0.43390  0.69986  Biso   1.000  O
  O4       1.0000 0.86320  0.45650  0.40694  Biso   1.000  O
  H9       1.0000 0.68540  0.16620  0.58340  Biso   1.000  H
  H10      1.0000 0.69410  0.15990  0.47750  Biso   1.000  H
  H11      1.0000 0.99630  0.35370  0.58820  Biso   1.000  H
  H12      1.0000 0.01040  0.35510  0.48460  Biso   1.000  H
  C17      1.0000 0.82510  0.81160  0.69590  Biso   1.000  C
  H13      1.0000 0.82370  0.85370  0.65920  Biso   1.000  H
  C18      1.0000 0.75450  0.30000  0.56300  Biso   1.000  C
  C19      1.0000 0.75790  0.30290  0.49980  Biso   1.000  C
  C20      1.0000 0.93660  0.18990  0.56620  Biso   1.000  C
  C21      1.0000 0.94570  0.18740  0.50410  Biso   1.000  C
  C22      1.0000 0.86250  0.13690  0.37840  Biso   1.000  C
  C23      1.0000 0.85880  0.13920  0.31251  Biso   1.000  C
  C24      1.0000 0.86360  0.03090  0.28180  Biso   1.000  C
  H14      1.0000 0.86680  0.95670  0.30280  Biso   1.000  H
  O5       1.0000 0.83670  0.06610  0.69986  Biso   1.000  O
  O6       1.0000 0.86320  0.04350  0.40694  Biso   1.000  O
  H15      1.0000 0.68540  0.33380  0.58340  Biso   1.000  H
  H16      1.0000 0.69410  0.34010  0.47750  Biso   1.000  H
  H17      1.0000 0.99630  0.14630  0.58820  Biso   1.000  H
  H18      1.0000 0.01040  0.14490  0.48460  Biso   1.000  H
  C25      1.0000 0.82510  0.68840  0.80410  Biso   1.000  C
  H19      1.0000 0.82370  0.64630  0.84080  Biso   1.000  H
  C26      1.0000 0.75450  0.20000  0.93700  Biso   1.000  C
  C27      1.0000 0.75790  0.19710  0.00020  Biso   1.000  C
  C28      1.0000 0.93660  0.31010  0.93380  Biso   1.000  C
  C29      1.0000 0.94570  0.31260  0.99590  Biso   1.000  C
  C30      1.0000 0.86250  0.36310  0.12160  Biso   1.000  C
  C31      1.0000 0.85880  0.36080  0.18749  Biso   1.000  C
  C32      1.0000 0.86360  0.46910  0.21820  Biso   1.000  C
  H20      1.0000 0.86680  0.54330  0.19720  Biso   1.000  H
  O7       1.0000 0.83670  0.43390  0.80014  Biso   1.000  O
  O8       1.0000 0.86320  0.45650  0.09306  Biso   1.000  O
  H21      1.0000 0.68540  0.16620  0.91660  Biso   1.000  H
  H22      1.0000 0.69410  0.15990  0.02250  Biso   1.000  H
  H23      1.0000 0.99630  0.35370  0.91180  Biso   1.000  H
  H24      1.0000 0.01040  0.35510  0.01540  Biso   1.000  H
  Zn1      1.0000 0.83752  0.25000  0.81536  Biso   1.000  Zn
  C33      1.0000 0.27630  0.25000  0.80450  Biso   1.000  C
  H25      1.0000 0.23400  0.25000  0.84120  Biso   1.000  H
  C34      1.0000 0.40340  0.25000  0.80340  Biso   1.000  C
  H26      1.0000 0.44750  0.25000  0.83950  Biso   1.000  H
  C35      1.0000 0.85370  0.25000  0.02890  Biso   1.000  C
  C36      1.0000 0.85800  0.25000  0.21780  Biso   1.000  C
  N1       1.0000 0.84500  0.25000  0.90530  Biso   1.000  N
  N2       1.0000 0.85980  0.25000  0.09310  Biso   1.000  N
  O9       1.0000 0.02090  0.25000  0.80060  Biso   1.000  O
  O10      1.0000 0.65630  0.25000  0.80020  Biso   1.000  O
  Zn2      1.0000 0.83752  0.25000  0.68464  Biso   1.000  Zn
  C37      1.0000 0.27630  0.25000  0.69550  Biso   1.000  C
  H27      1.0000 0.23400  0.25000  0.65880  Biso   1.000  H
  C38      1.0000 0.40340  0.25000  0.69660  Biso   1.000  C
  H28      1.0000 0.44750  0.25000  0.66050  Biso   1.000  H
  C39      1.0000 0.85370  0.25000  0.47110  Biso   1.000  C
  C40      1.0000 0.85800  0.25000  0.28220  Biso   1.000  C
  N3       1.0000 0.84500  0.25000  0.59470  Biso   1.000  N
  N4       1.0000 0.85980  0.25000  0.40690  Biso   1.000  N
  O11      1.0000 0.02090  0.25000  0.69940  Biso   1.000  O
  O12      1.0000 0.65630  0.25000  0.69980  Biso   1.000  O
  C41      1.0000 0.83460  0.01380  0.75000  Biso   1.000  C
  C42      1.0000 0.82720  0.87830  0.75000  Biso   1.000  C
  C43      1.0000 0.83460  0.48620  0.75000  Biso   1.000  C
  C44      1.0000 0.82720  0.62170  0.75000  Biso   1.000  C
  C45      1.0000 0.07370  0.25000  0.75000  Biso   1.000  C
  C46      1.0000 0.21170  0.25000  0.75000  Biso   1.000  C
  C47      1.0000 0.46540  0.25000  0.75000  Biso   1.000  C
  C48      1.0000 0.60150  0.25000  0.75000  Biso   1.000  C
  C49      1.0000 0.17490  0.18840  0.30410  Biso   1.000  C
  H29      1.0000 0.17630  0.14630  0.34080  Biso   1.000  H
  C50      1.0000 0.24550  0.70000  0.43700  Biso   1.000  C
  C51      1.0000 0.24210  0.69710  0.50020  Biso   1.000  C
  C52      1.0000 0.06340  0.81010  0.43380  Biso   1.000  C
  C53      1.0000 0.05430  0.81260  0.49590  Biso   1.000  C
  C54      1.0000 0.13750  0.86310  0.62160  Biso   1.000  C
  C55      1.0000 0.14120  0.86080  0.68749  Biso   1.000  C
  C56      1.0000 0.13640  0.96910  0.71820  Biso   1.000  C
  H30      1.0000 0.13320  0.04330  0.69720  Biso   1.000  H
  O13      1.0000 0.16330  0.93390  0.30014  Biso   1.000  O
  O14      1.0000 0.13680  0.95650  0.59306  Biso   1.000  O
  H31      1.0000 0.31460  0.66620  0.41660  Biso   1.000  H
  H32      1.0000 0.30590  0.65990  0.52250  Biso   1.000  H
  H33      1.0000 0.00370  0.85370  0.41180  Biso   1.000  H
  H34      1.0000 0.98960  0.85510  0.51540  Biso   1.000  H
  C57      1.0000 0.17490  0.31160  0.19590  Biso   1.000  C
  H35      1.0000 0.17630  0.35370  0.15920  Biso   1.000  H
  C58      1.0000 0.24550  0.80000  0.06300  Biso   1.000  C
  C59      1.0000 0.24210  0.80290  0.99980  Biso   1.000  C
  C60      1.0000 0.06340  0.68990  0.06620  Biso   1.000  C
  C61      1.0000 0.05430  0.68740  0.00410  Biso   1.000  C
  C62      1.0000 0.13750  0.63690  0.87840  Biso   1.000  C
  C63      1.0000 0.14120  0.63920  0.81251  Biso   1.000  C
  C64      1.0000 0.13640  0.53090  0.78180  Biso   1.000  C
  H36      1.0000 0.13320  0.45670  0.80280  Biso   1.000  H
  O15      1.0000 0.16330  0.56610  0.19986  Biso   1.000  O
  O16      1.0000 0.13680  0.54350  0.90694  Biso   1.000  O
  H37      1.0000 0.31460  0.83380  0.08340  Biso   1.000  H
  H38      1.0000 0.30590  0.84010  0.97750  Biso   1.000  H
  H39      1.0000 0.00370  0.64630  0.08820  Biso   1.000  H
  H40      1.0000 0.98960  0.64490  0.98460  Biso   1.000  H
  C65      1.0000 0.17490  0.18840  0.19590  Biso   1.000  C
  H41      1.0000 0.17630  0.14630  0.15920  Biso   1.000  H
  C66      1.0000 0.24550  0.70000  0.06300  Biso   1.000  C
  C67      1.0000 0.24210  0.69710  0.99980  Biso   1.000  C
  C68      1.0000 0.06340  0.81010  0.06620  Biso   1.000  C
  C69      1.0000 0.05430  0.81260  0.00410  Biso   1.000  C
  C70      1.0000 0.13750  0.86310  0.87840  Biso   1.000  C
  C71      1.0000 0.14120  0.86080  0.81251  Biso   1.000  C
  C72      1.0000 0.13640  0.96910  0.78180  Biso   1.000  C
  H42      1.0000 0.13320  0.04330  0.80280  Biso   1.000  H
  O17      1.0000 0.16330  0.93390  0.19986  Biso   1.000  O
  O18      1.0000 0.13680  0.95650  0.90694  Biso   1.000  O
  H43      1.0000 0.31460  0.66620  0.08340  Biso   1.000  H
  H44      1.0000 0.30590  0.65990  0.97750  Biso   1.000  H
  H45      1.0000 0.00370  0.85370  0.08820  Biso   1.000  H
  H46      1.0000 0.98960  0.85510  0.98460  Biso   1.000  H
  C73      1.0000 0.17490  0.31160  0.30410  Biso   1.000  C
  H47      1.0000 0.17630  0.35370  0.34080  Biso   1.000  H
  C74      1.0000 0.24550  0.80000  0.43700  Biso   1.000  C
  C75      1.0000 0.24210  0.80290  0.50020  Biso   1.000  C
  C76      1.0000 0.06340  0.68990  0.43380  Biso   1.000  C
  C77      1.0000 0.05430  0.68740  0.49590  Biso   1.000  C
  C78      1.0000 0.13750  0.63690  0.62160  Biso   1.000  C
  C79      1.0000 0.14120  0.63920  0.68749  Biso   1.000  C
  C80      1.0000 0.13640  0.53090  0.71820  Biso   1.000  C
  H48      1.0000 0.13320  0.45670  0.69720  Biso   1.000  H
  O19      1.0000 0.16330  0.56610  0.30014  Biso   1.000  O
  O20      1.0000 0.13680  0.54350  0.59306  Biso   1.000  O
  H49      1.0000 0.31460  0.83380  0.41660  Biso   1.000  H
  H50      1.0000 0.30590  0.84010  0.52250  Biso   1.000  H
  H51      1.0000 0.00370  0.64630  0.41180  Biso   1.000  H
  H52      1.0000 0.98960  0.64490  0.51540  Biso   1.000  H
  Zn3      1.0000 0.16248  0.75000  0.31536  Biso   1.000  Zn
  C81      1.0000 0.72370  0.75000  0.30450  Biso   1.000  C
  H53      1.0000 0.76600  0.75000  0.34120  Biso   1.000  H
  C82      1.0000 0.59660  0.75000  0.30340  Biso   1.000  C
  H54      1.0000 0.55250  0.75000  0.33950  Biso   1.000  H
  C83      1.0000 0.14630  0.75000  0.52890  Biso   1.000  C
  C84      1.0000 0.14200  0.75000  0.71780  Biso   1.000  C
  N5       1.0000 0.15500  0.75000  0.40530  Biso   1.000  N
  N6       1.0000 0.14020  0.75000  0.59310  Biso   1.000  N
  O21      1.0000 0.97910  0.75000  0.30060  Biso   1.000  O
  O22      1.0000 0.34370  0.75000  0.30020  Biso   1.000  O
  Zn4      1.0000 0.16248  0.75000  0.18464  Biso   1.000  Zn
  C85      1.0000 0.72370  0.75000  0.19550  Biso   1.000  C
  H55      1.0000 0.76600  0.75000  0.15880  Biso   1.000  H
  C86      1.0000 0.59660  0.75000  0.19660  Biso   1.000  C
  H56      1.0000 0.55250  0.75000  0.16050  Biso   1.000  H
  C87      1.0000 0.14630  0.75000  0.97110  Biso   1.000  C
  C88      1.0000 0.14200  0.75000  0.78220  Biso   1.000  C
  N7       1.0000 0.15500  0.75000  0.09470  Biso   1.000  N
  N8       1.0000 0.14020  0.75000  0.90690  Biso   1.000  N
  O23      1.0000 0.97910  0.75000  0.19940  Biso   1.000  O
  O24      1.0000 0.34370  0.75000  0.19980  Biso   1.000  O
  C89      1.0000 0.16540  0.98620  0.25000  Biso   1.000  C
  C90      1.0000 0.17280  0.12170  0.25000  Biso   1.000  C
  C91      1.0000 0.16540  0.51380  0.25000  Biso   1.000  C
  C92      1.0000 0.17280  0.37830  0.25000  Biso   1.000  C
  C93      1.0000 0.92630  0.75000  0.25000  Biso   1.000  C
  C94      1.0000 0.78830  0.75000  0.25000  Biso   1.000  C
  C95      1.0000 0.53460  0.75000  0.25000  Biso   1.000  C
  C96      1.0000 0.39850  0.75000  0.25000  Biso   1.000  C
