data_image0
_cell_length_a       18.8605
_cell_length_b       18.8605
_cell_length_c       16.6183
_cell_angle_alpha    90
_cell_angle_beta     90
_cell_angle_gamma    120

_symmetry_space_group_name_H-M    "P 1"
_symmetry_int_tables_number       1

loop_
  _symmetry_equiv_pos_as_xyz
  'x, y, z'

loop_
  _atom_site_label
  _atom_site_occupancy
  _atom_site_fract_x
  _atom_site_fract_y
  _atom_site_fract_z
  _atom_site_thermal_displace_type
  _atom_site_B_iso_or_equiv
  _atom_site_type_symbol
  N1       1.0000 0.63220  0.43480  0.66360  Biso   1.000  N
  N2       1.0000 0.62780  0.49020  0.61390  Biso   1.000  N
  C1       1.0000 0.59450  0.53200  0.55440  Biso   1.000  C
  H1       1.0000 0.64690  0.56630  0.57410  Biso   1.000  H
  O1       1.0000 0.65420  0.46150  0.66190  Biso   1.000  O
  H2       1.0000 0.59250  0.60950  0.47660  Biso   1.000  H
  N3       1.0000 0.56520  0.19740  0.66360  Biso   1.000  N
  N4       1.0000 0.50980  0.13760  0.61390  Biso   1.000  N
  C2       1.0000 0.46800  0.06250  0.55440  Biso   1.000  C
  H3       1.0000 0.43370  0.08060  0.57410  Biso   1.000  H
  O2       1.0000 0.53850  0.19270  0.66190  Biso   1.000  O
  H4       1.0000 0.39050  0.98300  0.47660  Biso   1.000  H
  N5       1.0000 0.80260  0.36780  0.66360  Biso   1.000  N
  N6       1.0000 0.86240  0.37220  0.61390  Biso   1.000  N
  C3       1.0000 0.93750  0.40550  0.55440  Biso   1.000  C
  H5       1.0000 0.91940  0.35310  0.57410  Biso   1.000  H
  O3       1.0000 0.80730  0.34580  0.66190  Biso   1.000  O
  H6       1.0000 0.01700  0.40750  0.47660  Biso   1.000  H
  N7       1.0000 0.36780  0.56520  0.16360  Biso   1.000  N
  N8       1.0000 0.37220  0.50980  0.11390  Biso   1.000  N
  C4       1.0000 0.40550  0.46800  0.05440  Biso   1.000  C
  H7       1.0000 0.35310  0.43370  0.07410  Biso   1.000  H
  O4       1.0000 0.34580  0.53850  0.16190  Biso   1.000  O
  H8       1.0000 0.40750  0.39050  0.97660  Biso   1.000  H
  N9       1.0000 0.43480  0.80260  0.16360  Biso   1.000  N
  N10      1.0000 0.49020  0.86240  0.11390  Biso   1.000  N
  C5       1.0000 0.53200  0.93750  0.05440  Biso   1.000  C
  H9       1.0000 0.56630  0.91940  0.07410  Biso   1.000  H
  O5       1.0000 0.46150  0.80730  0.16190  Biso   1.000  O
  H10      1.0000 0.60950  0.01700  0.97660  Biso   1.000  H
  N11      1.0000 0.19740  0.63220  0.16360  Biso   1.000  N
  N12      1.0000 0.13760  0.62780  0.11390  Biso   1.000  N
  C6       1.0000 0.06250  0.59450  0.05440  Biso   1.000  C
  H11      1.0000 0.08060  0.64690  0.07410  Biso   1.000  H
  O6       1.0000 0.19270  0.65420  0.16190  Biso   1.000  O
  H12      1.0000 0.98300  0.59250  0.97660  Biso   1.000  H
  N13      1.0000 0.43480  0.63220  0.33640  Biso   1.000  N
  N14      1.0000 0.49020  0.62780  0.38610  Biso   1.000  N
  C7       1.0000 0.53200  0.59450  0.44560  Biso   1.000  C
  H13      1.0000 0.56630  0.64690  0.42590  Biso   1.000  H
  O7       1.0000 0.46150  0.65420  0.33810  Biso   1.000  O
  H14      1.0000 0.60950  0.59250  0.52340  Biso   1.000  H
  N15      1.0000 0.19740  0.56520  0.33640  Biso   1.000  N
  N16      1.0000 0.13760  0.50980  0.38610  Biso   1.000  N
  C8       1.0000 0.06250  0.46800  0.44560  Biso   1.000  C
  H15      1.0000 0.08060  0.43370  0.42590  Biso   1.000  H
  O8       1.0000 0.19270  0.53850  0.33810  Biso   1.000  O
  H16      1.0000 0.98300  0.39050  0.52340  Biso   1.000  H
  N17      1.0000 0.36780  0.80260  0.33640  Biso   1.000  N
  N18      1.0000 0.37220  0.86240  0.38610  Biso   1.000  N
  C9       1.0000 0.40550  0.93750  0.44560  Biso   1.000  C
  H17      1.0000 0.35310  0.91940  0.42590  Biso   1.000  H
  O9       1.0000 0.34580  0.80730  0.33810  Biso   1.000  O
  H18      1.0000 0.40750  0.01700  0.52340  Biso   1.000  H
  N19      1.0000 0.56520  0.36780  0.83640  Biso   1.000  N
  N20      1.0000 0.50980  0.37220  0.88610  Biso   1.000  N
  C10      1.0000 0.46800  0.40550  0.94560  Biso   1.000  C
  H19      1.0000 0.43370  0.35310  0.92590  Biso   1.000  H
  O10      1.0000 0.53850  0.34580  0.83810  Biso   1.000  O
  H20      1.0000 0.39050  0.40750  0.02340  Biso   1.000  H
  N21      1.0000 0.80260  0.43480  0.83640  Biso   1.000  N
  N22      1.0000 0.86240  0.49020  0.88610  Biso   1.000  N
  C11      1.0000 0.93750  0.53200  0.94560  Biso   1.000  C
  H21      1.0000 0.91940  0.56630  0.92590  Biso   1.000  H
  O11      1.0000 0.80730  0.46150  0.83810  Biso   1.000  O
  H22      1.0000 0.01700  0.60950  0.02340  Biso   1.000  H
  N23      1.0000 0.63220  0.19740  0.83640  Biso   1.000  N
  N24      1.0000 0.62780  0.13760  0.88610  Biso   1.000  N
  C12      1.0000 0.59450  0.06250  0.94560  Biso   1.000  C
  H23      1.0000 0.64690  0.08060  0.92590  Biso   1.000  H
  O12      1.0000 0.65420  0.19270  0.83810  Biso   1.000  O
  H24      1.0000 0.59250  0.98300  0.02340  Biso   1.000  H
  N25      1.0000 0.36780  0.56520  0.33640  Biso   1.000  N
  N26      1.0000 0.37220  0.50980  0.38610  Biso   1.000  N
  C13      1.0000 0.40550  0.46800  0.44560  Biso   1.000  C
  H25      1.0000 0.35310  0.43370  0.42590  Biso   1.000  H
  O13      1.0000 0.34580  0.53850  0.33810  Biso   1.000  O
  H26      1.0000 0.40750  0.39050  0.52340  Biso   1.000  H
  N27      1.0000 0.43480  0.80260  0.33640  Biso   1.000  N
  N28      1.0000 0.49020  0.86240  0.38610  Biso   1.000  N
  C14      1.0000 0.53200  0.93750  0.44560  Biso   1.000  C
  H27      1.0000 0.56630  0.91940  0.42590  Biso   1.000  H
  O14      1.0000 0.46150  0.80730  0.33810  Biso   1.000  O
  H28      1.0000 0.60950  0.01700  0.52340  Biso   1.000  H
  N29      1.0000 0.19740  0.63220  0.33640  Biso   1.000  N
  N30      1.0000 0.13760  0.62780  0.38610  Biso   1.000  N
  C15      1.0000 0.06250  0.59450  0.44560  Biso   1.000  C
  H29      1.0000 0.08060  0.64690  0.42590  Biso   1.000  H
  O15      1.0000 0.19270  0.65420  0.33810  Biso   1.000  O
  H30      1.0000 0.98300  0.59250  0.52340  Biso   1.000  H
  N31      1.0000 0.63220  0.43480  0.83640  Biso   1.000  N
  N32      1.0000 0.62780  0.49020  0.88610  Biso   1.000  N
  C16      1.0000 0.59450  0.53200  0.94560  Biso   1.000  C
  H31      1.0000 0.64690  0.56630  0.92590  Biso   1.000  H
  O16      1.0000 0.65420  0.46150  0.83810  Biso   1.000  O
  H32      1.0000 0.59250  0.60950  0.02340  Biso   1.000  H
  N33      1.0000 0.56520  0.19740  0.83640  Biso   1.000  N
  N34      1.0000 0.50980  0.13760  0.88610  Biso   1.000  N
  C17      1.0000 0.46800  0.06250  0.94560  Biso   1.000  C
  H33      1.0000 0.43370  0.08060  0.92590  Biso   1.000  H
  O17      1.0000 0.53850  0.19270  0.83810  Biso   1.000  O
  H34      1.0000 0.39050  0.98300  0.02340  Biso   1.000  H
  N35      1.0000 0.80260  0.36780  0.83640  Biso   1.000  N
  N36      1.0000 0.86240  0.37220  0.88610  Biso   1.000  N
  C18      1.0000 0.93750  0.40550  0.94560  Biso   1.000  C
  H35      1.0000 0.91940  0.35310  0.92590  Biso   1.000  H
  O18      1.0000 0.80730  0.34580  0.83810  Biso   1.000  O
  H36      1.0000 0.01700  0.40750  0.02340  Biso   1.000  H
  N37      1.0000 0.56520  0.36780  0.66360  Biso   1.000  N
  N38      1.0000 0.50980  0.37220  0.61390  Biso   1.000  N
  C19      1.0000 0.46800  0.40550  0.55440  Biso   1.000  C
  H37      1.0000 0.43370  0.35310  0.57410  Biso   1.000  H
  O19      1.0000 0.53850  0.34580  0.66190  Biso   1.000  O
  H38      1.0000 0.39050  0.40750  0.47660  Biso   1.000  H
  N39      1.0000 0.80260  0.43480  0.66360  Biso   1.000  N
  N40      1.0000 0.86240  0.49020  0.61390  Biso   1.000  N
  C20      1.0000 0.93750  0.53200  0.55440  Biso   1.000  C
  H39      1.0000 0.91940  0.56630  0.57410  Biso   1.000  H
  O20      1.0000 0.80730  0.46150  0.66190  Biso   1.000  O
  H40      1.0000 0.01700  0.60950  0.47660  Biso   1.000  H
  N41      1.0000 0.63220  0.19740  0.66360  Biso   1.000  N
  N42      1.0000 0.62780  0.13760  0.61390  Biso   1.000  N
  C21      1.0000 0.59450  0.06250  0.55440  Biso   1.000  C
  H41      1.0000 0.64690  0.08060  0.57410  Biso   1.000  H
  O21      1.0000 0.65420  0.19270  0.66190  Biso   1.000  O
  H42      1.0000 0.59250  0.98300  0.47660  Biso   1.000  H
  N43      1.0000 0.43480  0.63220  0.16360  Biso   1.000  N
  N44      1.0000 0.49020  0.62780  0.11390  Biso   1.000  N
  C22      1.0000 0.53200  0.59450  0.05440  Biso   1.000  C
  H43      1.0000 0.56630  0.64690  0.07410  Biso   1.000  H
  O22      1.0000 0.46150  0.65420  0.16190  Biso   1.000  O
  H44      1.0000 0.60950  0.59250  0.97660  Biso   1.000  H
  N45      1.0000 0.19740  0.56520  0.16360  Biso   1.000  N
  N46      1.0000 0.13760  0.50980  0.11390  Biso   1.000  N
  C23      1.0000 0.06250  0.46800  0.05440  Biso   1.000  C
  H45      1.0000 0.08060  0.43370  0.07410  Biso   1.000  H
  O23      1.0000 0.19270  0.53850  0.16190  Biso   1.000  O
  H46      1.0000 0.98300  0.39050  0.97660  Biso   1.000  H
  N47      1.0000 0.36780  0.80260  0.16360  Biso   1.000  N
  N48      1.0000 0.37220  0.86240  0.11390  Biso   1.000  N
  C24      1.0000 0.40550  0.93750  0.05440  Biso   1.000  C
  H47      1.0000 0.35310  0.91940  0.07410  Biso   1.000  H
  O24      1.0000 0.34580  0.80730  0.16190  Biso   1.000  O
  H48      1.0000 0.40750  0.01700  0.97660  Biso   1.000  H
  Co1      1.0000 0.72820  0.45640  0.75000  Biso   1.000  Co
  N49      1.0000 0.79305  0.58610  0.75000  Biso   1.000  N
  C25      1.0000 0.87940  0.75880  0.75000  Biso   1.000  C
  C26      1.0000 0.92585  0.85170  0.75000  Biso   1.000  C
  Co2      1.0000 0.54360  0.27180  0.75000  Biso   1.000  Co
  N50      1.0000 0.41390  0.20695  0.75000  Biso   1.000  N
  C27      1.0000 0.24120  0.12060  0.75000  Biso   1.000  C
  C28      1.0000 0.14830  0.07415  0.75000  Biso   1.000  C
  Co3      1.0000 0.72820  0.27180  0.75000  Biso   1.000  Co
  N51      1.0000 0.79305  0.20695  0.75000  Biso   1.000  N
  C29      1.0000 0.87940  0.12060  0.75000  Biso   1.000  C
  C30      1.0000 0.92585  0.07415  0.75000  Biso   1.000  C
  Co4      1.0000 0.27180  0.54360  0.25000  Biso   1.000  Co
  N52      1.0000 0.20695  0.41390  0.25000  Biso   1.000  N
  C31      1.0000 0.12060  0.24120  0.25000  Biso   1.000  C
  C32      1.0000 0.07415  0.14830  0.25000  Biso   1.000  C
  Co5      1.0000 0.45640  0.72820  0.25000  Biso   1.000  Co
  N53      1.0000 0.58610  0.79305  0.25000  Biso   1.000  N
  C33      1.0000 0.75880  0.87940  0.25000  Biso   1.000  C
  C34      1.0000 0.85170  0.92585  0.25000  Biso   1.000  C
  Co6      1.0000 0.27180  0.72820  0.25000  Biso   1.000  Co
  N54      1.0000 0.20695  0.79305  0.25000  Biso   1.000  N
  C35      1.0000 0.12060  0.87940  0.25000  Biso   1.000  C
  C36      1.0000 0.07415  0.92585  0.25000  Biso   1.000  C
  O25      1.0000 0.66667  0.33333  0.75000  Biso   1.000  O
  O26      1.0000 0.33333  0.66667  0.25000  Biso   1.000  O
  C37      1.0000 0.55056  0.44944  0.58210  Biso   1.000  C
  C38      1.0000 0.51720  0.48280  0.52400  Biso   1.000  C
  C39      1.0000 0.58400  0.41600  0.64050  Biso   1.000  C
  C40      1.0000 0.55056  0.10112  0.58210  Biso   1.000  C
  C41      1.0000 0.51720  0.03440  0.52400  Biso   1.000  C
  C42      1.0000 0.58400  0.16800  0.64050  Biso   1.000  C
  C43      1.0000 0.89888  0.44944  0.58210  Biso   1.000  C
  C44      1.0000 0.96560  0.48280  0.52400  Biso   1.000  C
  C45      1.0000 0.83200  0.41600  0.64050  Biso   1.000  C
  C46      1.0000 0.44944  0.55056  0.08210  Biso   1.000  C
  C47      1.0000 0.48280  0.51720  0.02400  Biso   1.000  C
  C48      1.0000 0.41600  0.58400  0.14050  Biso   1.000  C
  C49      1.0000 0.44944  0.89888  0.08210  Biso   1.000  C
  C50      1.0000 0.48280  0.96560  0.02400  Biso   1.000  C
  C51      1.0000 0.41600  0.83200  0.14050  Biso   1.000  C
  C52      1.0000 0.10112  0.55056  0.08210  Biso   1.000  C
  C53      1.0000 0.03440  0.51720  0.02400  Biso   1.000  C
  C54      1.0000 0.16800  0.58400  0.14050  Biso   1.000  C
  C55      1.0000 0.44944  0.55056  0.41790  Biso   1.000  C
  C56      1.0000 0.48280  0.51720  0.47600  Biso   1.000  C
  C57      1.0000 0.41600  0.58400  0.35950  Biso   1.000  C
  C58      1.0000 0.10112  0.55056  0.41790  Biso   1.000  C
  C59      1.0000 0.03440  0.51720  0.47600  Biso   1.000  C
  C60      1.0000 0.16800  0.58400  0.35950  Biso   1.000  C
  C61      1.0000 0.44944  0.89888  0.41790  Biso   1.000  C
  C62      1.0000 0.48280  0.96560  0.47600  Biso   1.000  C
  C63      1.0000 0.41600  0.83200  0.35950  Biso   1.000  C
  C64      1.0000 0.55056  0.44944  0.91790  Biso   1.000  C
  C65      1.0000 0.51720  0.48280  0.97600  Biso   1.000  C
  C66      1.0000 0.58400  0.41600  0.85950  Biso   1.000  C
  C67      1.0000 0.89888  0.44944  0.91790  Biso   1.000  C
  C68      1.0000 0.96560  0.48280  0.97600  Biso   1.000  C
  C69      1.0000 0.83200  0.41600  0.85950  Biso   1.000  C
  C70      1.0000 0.55056  0.10112  0.91790  Biso   1.000  C
  C71      1.0000 0.51720  0.03440  0.97600  Biso   1.000  C
  C72      1.0000 0.58400  0.16800  0.85950  Biso   1.000  C
  C73      1.0000 0.56260  0.56260  0.50000  Biso   1.000  C
  C74      1.0000 0.43740  0.00000  0.50000  Biso   1.000  C
  C75      1.0000 0.00000  0.43740  0.50000  Biso   1.000  C
  C76      1.0000 0.43740  0.43740  0.00000  Biso   1.000  C
  C77      1.0000 0.56260  0.00000  0.00000  Biso   1.000  C
  C78      1.0000 0.00000  0.56260  0.00000  Biso   1.000  C
  C79      1.0000 0.43740  0.43740  0.50000  Biso   1.000  C
  C80      1.0000 0.56260  0.00000  0.50000  Biso   1.000  C
  C81      1.0000 0.00000  0.56260  0.50000  Biso   1.000  C
  C82      1.0000 0.56260  0.56260  0.00000  Biso   1.000  C
  C83      1.0000 0.43740  0.00000  0.00000  Biso   1.000  C
  C84      1.0000 0.00000  0.43740  0.00000  Biso   1.000  C
  H49      1.0000 0.80115  0.60230  0.63250  Biso   1.000  H
  C85      1.0000 0.81525  0.63050  0.68110  Biso   1.000  C
  O27      1.0000 0.94035  0.88070  0.68220  Biso   1.000  O
  C86      1.0000 0.85705  0.71410  0.67840  Biso   1.000  C
  H50      1.0000 0.87055  0.74110  0.62910  Biso   1.000  H
  H51      1.0000 0.39770  0.19885  0.63250  Biso   1.000  H
  C87      1.0000 0.36950  0.18475  0.68110  Biso   1.000  C
  O28      1.0000 0.11930  0.05965  0.68220  Biso   1.000  O
  C88      1.0000 0.28590  0.14295  0.67840  Biso   1.000  C
  H52      1.0000 0.25890  0.12945  0.62910  Biso   1.000  H
  H53      1.0000 0.80115  0.19885  0.63250  Biso   1.000  H
  C89      1.0000 0.81525  0.18475  0.68110  Biso   1.000  C
  O29      1.0000 0.94035  0.05965  0.68220  Biso   1.000  O
  C90      1.0000 0.85705  0.14295  0.67840  Biso   1.000  C
  H54      1.0000 0.87055  0.12945  0.62910  Biso   1.000  H
  H55      1.0000 0.19885  0.39770  0.13250  Biso   1.000  H
  C91      1.0000 0.18475  0.36950  0.18110  Biso   1.000  C
  O30      1.0000 0.05965  0.11930  0.18220  Biso   1.000  O
  C92      1.0000 0.14295  0.28590  0.17840  Biso   1.000  C
  H56      1.0000 0.12945  0.25890  0.12910  Biso   1.000  H
  H57      1.0000 0.60230  0.80115  0.13250  Biso   1.000  H
  C93      1.0000 0.63050  0.81525  0.18110  Biso   1.000  C
  O31      1.0000 0.88070  0.94035  0.18220  Biso   1.000  O
  C94      1.0000 0.71410  0.85705  0.17840  Biso   1.000  C
  H58      1.0000 0.74110  0.87055  0.12910  Biso   1.000  H
  H59      1.0000 0.19885  0.80115  0.13250  Biso   1.000  H
  C95      1.0000 0.18475  0.81525  0.18110  Biso   1.000  C
  O32      1.0000 0.05965  0.94035  0.18220  Biso   1.000  O
  C96      1.0000 0.14295  0.85705  0.17840  Biso   1.000  C
  H60      1.0000 0.12945  0.87055  0.12910  Biso   1.000  H
  H61      1.0000 0.60230  0.80115  0.36750  Biso   1.000  H
  C97      1.0000 0.63050  0.81525  0.31890  Biso   1.000  C
  O33      1.0000 0.88070  0.94035  0.31780  Biso   1.000  O
  C98      1.0000 0.71410  0.85705  0.32160  Biso   1.000  C
  H62      1.0000 0.74110  0.87055  0.37090  Biso   1.000  H
  H63      1.0000 0.19885  0.39770  0.36750  Biso   1.000  H
  C99      1.0000 0.18475  0.36950  0.31890  Biso   1.000  C
  O34      1.0000 0.05965  0.11930  0.31780  Biso   1.000  O
  C100     1.0000 0.14295  0.28590  0.32160  Biso   1.000  C
  H64      1.0000 0.12945  0.25890  0.37090  Biso   1.000  H
  H65      1.0000 0.19885  0.80115  0.36750  Biso   1.000  H
  C101     1.0000 0.18475  0.81525  0.31890  Biso   1.000  C
  O35      1.0000 0.05965  0.94035  0.31780  Biso   1.000  O
  C102     1.0000 0.14295  0.85705  0.32160  Biso   1.000  C
  H66      1.0000 0.12945  0.87055  0.37090  Biso   1.000  H
  H67      1.0000 0.39770  0.19885  0.86750  Biso   1.000  H
  C103     1.0000 0.36950  0.18475  0.81890  Biso   1.000  C
  O36      1.0000 0.11930  0.05965  0.81780  Biso   1.000  O
  C104     1.0000 0.28590  0.14295  0.82160  Biso   1.000  C
  H68      1.0000 0.25890  0.12945  0.87090  Biso   1.000  H
  H69      1.0000 0.80115  0.60230  0.86750  Biso   1.000  H
  C105     1.0000 0.81525  0.63050  0.81890  Biso   1.000  C
  O37      1.0000 0.94035  0.88070  0.81780  Biso   1.000  O
  C106     1.0000 0.85705  0.71410  0.82160  Biso   1.000  C
  H70      1.0000 0.87055  0.74110  0.87090  Biso   1.000  H
  H71      1.0000 0.80115  0.19885  0.86750  Biso   1.000  H
  C107     1.0000 0.81525  0.18475  0.81890  Biso   1.000  C
  O38      1.0000 0.94035  0.05965  0.81780  Biso   1.000  O
  C108     1.0000 0.85705  0.14295  0.82160  Biso   1.000  C
  H72      1.0000 0.87055  0.12945  0.87090  Biso   1.000  H
  Co7      1.0000 0.00000  0.00000  0.68150  Biso   1.000  Co
  Co8      1.0000 0.00000  0.00000  0.18150  Biso   1.000  Co
  Co9      1.0000 0.00000  0.00000  0.31850  Biso   1.000  Co
  Co10     1.0000 0.00000  0.00000  0.81850  Biso   1.000  Co
  C109     1.0000 0.75240  0.62980  0.75000  Biso   1.000  C
  H73      1.0000 0.69550  0.60180  0.75000  Biso   1.000  H
  C110     1.0000 0.79470  0.71440  0.75000  Biso   1.000  C
  H74      1.0000 0.76560  0.74220  0.75000  Biso   1.000  H
  C111     1.0000 0.37020  0.12260  0.75000  Biso   1.000  C
  H75      1.0000 0.39820  0.09370  0.75000  Biso   1.000  H
  C112     1.0000 0.28560  0.08030  0.75000  Biso   1.000  C
  H76      1.0000 0.25780  0.02340  0.75000  Biso   1.000  H
  C113     1.0000 0.87740  0.24760  0.75000  Biso   1.000  C
  H77      1.0000 0.90630  0.30450  0.75000  Biso   1.000  H
  C114     1.0000 0.91970  0.20530  0.75000  Biso   1.000  C
  H78      1.0000 0.97660  0.23440  0.75000  Biso   1.000  H
  C115     1.0000 0.24760  0.37020  0.25000  Biso   1.000  C
  H79      1.0000 0.30450  0.39820  0.25000  Biso   1.000  H
  C116     1.0000 0.20530  0.28560  0.25000  Biso   1.000  C
  H80      1.0000 0.23440  0.25780  0.25000  Biso   1.000  H
  C117     1.0000 0.62980  0.87740  0.25000  Biso   1.000  C
  H81      1.0000 0.60180  0.90630  0.25000  Biso   1.000  H
  C118     1.0000 0.71440  0.91970  0.25000  Biso   1.000  C
  H82      1.0000 0.74220  0.97660  0.25000  Biso   1.000  H
  C119     1.0000 0.12260  0.75240  0.25000  Biso   1.000  C
  H83      1.0000 0.09370  0.69550  0.25000  Biso   1.000  H
  C120     1.0000 0.08030  0.79470  0.25000  Biso   1.000  C
  H84      1.0000 0.02340  0.76560  0.25000  Biso   1.000  H
  C121     1.0000 0.62980  0.75240  0.25000  Biso   1.000  C
  H85      1.0000 0.60180  0.69550  0.25000  Biso   1.000  H
  C122     1.0000 0.71440  0.79470  0.25000  Biso   1.000  C
  H86      1.0000 0.74220  0.76560  0.25000  Biso   1.000  H
  C123     1.0000 0.12260  0.37020  0.25000  Biso   1.000  C
  H87      1.0000 0.09370  0.39820  0.25000  Biso   1.000  H
  C124     1.0000 0.08030  0.28560  0.25000  Biso   1.000  C
  H88      1.0000 0.02340  0.25780  0.25000  Biso   1.000  H
  C125     1.0000 0.24760  0.87740  0.25000  Biso   1.000  C
  H89      1.0000 0.30450  0.90630  0.25000  Biso   1.000  H
  C126     1.0000 0.20530  0.91970  0.25000  Biso   1.000  C
  H90      1.0000 0.23440  0.97660  0.25000  Biso   1.000  H
  C127     1.0000 0.37020  0.24760  0.75000  Biso   1.000  C
  H91      1.0000 0.39820  0.30450  0.75000  Biso   1.000  H
  C128     1.0000 0.28560  0.20530  0.75000  Biso   1.000  C
  H92      1.0000 0.25780  0.23440  0.75000  Biso   1.000  H
  C129     1.0000 0.87740  0.62980  0.75000  Biso   1.000  C
  H93      1.0000 0.90630  0.60180  0.75000  Biso   1.000  H
  C130     1.0000 0.91970  0.71440  0.75000  Biso   1.000  C
  H94      1.0000 0.97660  0.74220  0.75000  Biso   1.000  H
  C131     1.0000 0.75240  0.12260  0.75000  Biso   1.000  C
  H95      1.0000 0.69550  0.09370  0.75000  Biso   1.000  H
  C132     1.0000 0.79470  0.08030  0.75000  Biso   1.000  C
  H96      1.0000 0.76560  0.02340  0.75000  Biso   1.000  H
