data_image0
_cell_length_a       16.8676
_cell_length_b       16.8676
_cell_length_c       18.8186
_cell_angle_alpha    90
_cell_angle_beta     90
_cell_angle_gamma    120

_symmetry_space_group_name_H-M    "P 1"
_symmetry_int_tables_number       1

loop_
  _symmetry_equiv_pos_as_xyz
  'x, y, z'

loop_
  _atom_site_label
  _atom_site_occupancy
  _atom_site_fract_x
  _atom_site_fract_y
  _atom_site_fract_z
  _atom_site_thermal_displace_type
  _atom_site_B_iso_or_equiv
  _atom_site_type_symbol
  N1       1.0000 0.63100  0.44780  0.32620  Biso   1.000  N
  N2       1.0000 0.63050  0.50280  0.37860  Biso   1.000  N
  C1       1.0000 0.45900  0.40090  0.44270  Biso   1.000  C
  O1       1.0000 0.65510  0.47920  0.32930  Biso   1.000  O
  H1       1.0000 0.41850  0.34230  0.42330  Biso   1.000  H
  H2       1.0000 0.37580  0.39260  0.52290  Biso   1.000  H
  N3       1.0000 0.55220  0.18320  0.32620  Biso   1.000  N
  N4       1.0000 0.49720  0.12770  0.37860  Biso   1.000  N
  C2       1.0000 0.59910  0.05810  0.44270  Biso   1.000  C
  O2       1.0000 0.52080  0.17590  0.32930  Biso   1.000  O
  H3       1.0000 0.65770  0.07620  0.42330  Biso   1.000  H
  H4       1.0000 0.60740  0.98320  0.52290  Biso   1.000  H
  N5       1.0000 0.81680  0.36900  0.32620  Biso   1.000  N
  N6       1.0000 0.87230  0.36950  0.37860  Biso   1.000  N
  C3       1.0000 0.94190  0.54100  0.44270  Biso   1.000  C
  O3       1.0000 0.82410  0.34490  0.32930  Biso   1.000  O
  H5       1.0000 0.92380  0.58150  0.42330  Biso   1.000  H
  H6       1.0000 0.01680  0.62420  0.52290  Biso   1.000  H
  N7       1.0000 0.36900  0.55220  0.82620  Biso   1.000  N
  N8       1.0000 0.36950  0.49720  0.87860  Biso   1.000  N
  C4       1.0000 0.54100  0.59910  0.94270  Biso   1.000  C
  O4       1.0000 0.34490  0.52080  0.82930  Biso   1.000  O
  H7       1.0000 0.58150  0.65770  0.92330  Biso   1.000  H
  H8       1.0000 0.62420  0.60740  0.02290  Biso   1.000  H
  N9       1.0000 0.44780  0.81680  0.82620  Biso   1.000  N
  N10      1.0000 0.50280  0.87230  0.87860  Biso   1.000  N
  C5       1.0000 0.40090  0.94190  0.94270  Biso   1.000  C
  O5       1.0000 0.47920  0.82410  0.82930  Biso   1.000  O
  H9       1.0000 0.34230  0.92380  0.92330  Biso   1.000  H
  H10      1.0000 0.39260  0.01680  0.02290  Biso   1.000  H
  N11      1.0000 0.18320  0.63100  0.82620  Biso   1.000  N
  N12      1.0000 0.12770  0.63050  0.87860  Biso   1.000  N
  C6       1.0000 0.05810  0.45900  0.94270  Biso   1.000  C
  O6       1.0000 0.17590  0.65510  0.82930  Biso   1.000  O
  H11      1.0000 0.07620  0.41850  0.92330  Biso   1.000  H
  H12      1.0000 0.98320  0.37580  0.02290  Biso   1.000  H
  N13      1.0000 0.44780  0.63100  0.67380  Biso   1.000  N
  N14      1.0000 0.50280  0.63050  0.62140  Biso   1.000  N
  C7       1.0000 0.40090  0.45900  0.55730  Biso   1.000  C
  O7       1.0000 0.47920  0.65510  0.67070  Biso   1.000  O
  H13      1.0000 0.34230  0.41850  0.57670  Biso   1.000  H
  H14      1.0000 0.39260  0.37580  0.47710  Biso   1.000  H
  N15      1.0000 0.18320  0.55220  0.67380  Biso   1.000  N
  N16      1.0000 0.12770  0.49720  0.62140  Biso   1.000  N
  C8       1.0000 0.05810  0.59910  0.55730  Biso   1.000  C
  O8       1.0000 0.17590  0.52080  0.67070  Biso   1.000  O
  H15      1.0000 0.07620  0.65770  0.57670  Biso   1.000  H
  H16      1.0000 0.98320  0.60740  0.47710  Biso   1.000  H
  N17      1.0000 0.36900  0.81680  0.67380  Biso   1.000  N
  N18      1.0000 0.36950  0.87230  0.62140  Biso   1.000  N
  C9       1.0000 0.54100  0.94190  0.55730  Biso   1.000  C
  O9       1.0000 0.34490  0.82410  0.67070  Biso   1.000  O
  H17      1.0000 0.58150  0.92380  0.57670  Biso   1.000  H
  H18      1.0000 0.62420  0.01680  0.47710  Biso   1.000  H
  N19      1.0000 0.55220  0.36900  0.17380  Biso   1.000  N
  N20      1.0000 0.49720  0.36950  0.12140  Biso   1.000  N
  C10      1.0000 0.59910  0.54100  0.05730  Biso   1.000  C
  O10      1.0000 0.52080  0.34490  0.17070  Biso   1.000  O
  H19      1.0000 0.65770  0.58150  0.07670  Biso   1.000  H
  H20      1.0000 0.60740  0.62420  0.97710  Biso   1.000  H
  N21      1.0000 0.81680  0.44780  0.17380  Biso   1.000  N
  N22      1.0000 0.87230  0.50280  0.12140  Biso   1.000  N
  C11      1.0000 0.94190  0.40090  0.05730  Biso   1.000  C
  O11      1.0000 0.82410  0.47920  0.17070  Biso   1.000  O
  H21      1.0000 0.92380  0.34230  0.07670  Biso   1.000  H
  H22      1.0000 0.01680  0.39260  0.97710  Biso   1.000  H
  N23      1.0000 0.63100  0.18320  0.17380  Biso   1.000  N
  N24      1.0000 0.63050  0.12770  0.12140  Biso   1.000  N
  C12      1.0000 0.45900  0.05810  0.05730  Biso   1.000  C
  O12      1.0000 0.65510  0.17590  0.17070  Biso   1.000  O
  H23      1.0000 0.41850  0.07620  0.07670  Biso   1.000  H
  H24      1.0000 0.37580  0.98320  0.97710  Biso   1.000  H
  N25      1.0000 0.36900  0.55220  0.67380  Biso   1.000  N
  N26      1.0000 0.36950  0.49720  0.62140  Biso   1.000  N
  C13      1.0000 0.54100  0.59910  0.55730  Biso   1.000  C
  O13      1.0000 0.34490  0.52080  0.67070  Biso   1.000  O
  H25      1.0000 0.58150  0.65770  0.57670  Biso   1.000  H
  H26      1.0000 0.62420  0.60740  0.47710  Biso   1.000  H
  N27      1.0000 0.44780  0.81680  0.67380  Biso   1.000  N
  N28      1.0000 0.50280  0.87230  0.62140  Biso   1.000  N
  C14      1.0000 0.40090  0.94190  0.55730  Biso   1.000  C
  O14      1.0000 0.47920  0.82410  0.67070  Biso   1.000  O
  H27      1.0000 0.34230  0.92380  0.57670  Biso   1.000  H
  H28      1.0000 0.39260  0.01680  0.47710  Biso   1.000  H
  N29      1.0000 0.18320  0.63100  0.67380  Biso   1.000  N
  N30      1.0000 0.12770  0.63050  0.62140  Biso   1.000  N
  C15      1.0000 0.05810  0.45900  0.55730  Biso   1.000  C
  O15      1.0000 0.17590  0.65510  0.67070  Biso   1.000  O
  H29      1.0000 0.07620  0.41850  0.57670  Biso   1.000  H
  H30      1.0000 0.98320  0.37580  0.47710  Biso   1.000  H
  N31      1.0000 0.63100  0.44780  0.17380  Biso   1.000  N
  N32      1.0000 0.63050  0.50280  0.12140  Biso   1.000  N
  C16      1.0000 0.45900  0.40090  0.05730  Biso   1.000  C
  O16      1.0000 0.65510  0.47920  0.17070  Biso   1.000  O
  H31      1.0000 0.41850  0.34230  0.07670  Biso   1.000  H
  H32      1.0000 0.37580  0.39260  0.97710  Biso   1.000  H
  N33      1.0000 0.55220  0.18320  0.17380  Biso   1.000  N
  N34      1.0000 0.49720  0.12770  0.12140  Biso   1.000  N
  C17      1.0000 0.59910  0.05810  0.05730  Biso   1.000  C
  O17      1.0000 0.52080  0.17590  0.17070  Biso   1.000  O
  H33      1.0000 0.65770  0.07620  0.07670  Biso   1.000  H
  H34      1.0000 0.60740  0.98320  0.97710  Biso   1.000  H
  N35      1.0000 0.81680  0.36900  0.17380  Biso   1.000  N
  N36      1.0000 0.87230  0.36950  0.12140  Biso   1.000  N
  C18      1.0000 0.94190  0.54100  0.05730  Biso   1.000  C
  O18      1.0000 0.82410  0.34490  0.17070  Biso   1.000  O
  H35      1.0000 0.92380  0.58150  0.07670  Biso   1.000  H
  H36      1.0000 0.01680  0.62420  0.97710  Biso   1.000  H
  N37      1.0000 0.55220  0.36900  0.32620  Biso   1.000  N
  N38      1.0000 0.49720  0.36950  0.37860  Biso   1.000  N
  C19      1.0000 0.59910  0.54100  0.44270  Biso   1.000  C
  O19      1.0000 0.52080  0.34490  0.32930  Biso   1.000  O
  H37      1.0000 0.65770  0.58150  0.42330  Biso   1.000  H
  H38      1.0000 0.60740  0.62420  0.52290  Biso   1.000  H
  N39      1.0000 0.81680  0.44780  0.32620  Biso   1.000  N
  N40      1.0000 0.87230  0.50280  0.37860  Biso   1.000  N
  C20      1.0000 0.94190  0.40090  0.44270  Biso   1.000  C
  O20      1.0000 0.82410  0.47920  0.32930  Biso   1.000  O
  H39      1.0000 0.92380  0.34230  0.42330  Biso   1.000  H
  H40      1.0000 0.01680  0.39260  0.52290  Biso   1.000  H
  N41      1.0000 0.63100  0.18320  0.32620  Biso   1.000  N
  N42      1.0000 0.63050  0.12770  0.37860  Biso   1.000  N
  C21      1.0000 0.45900  0.05810  0.44270  Biso   1.000  C
  O21      1.0000 0.65510  0.17590  0.32930  Biso   1.000  O
  H41      1.0000 0.41850  0.07620  0.42330  Biso   1.000  H
  H42      1.0000 0.37580  0.98320  0.52290  Biso   1.000  H
  N43      1.0000 0.44780  0.63100  0.82620  Biso   1.000  N
  N44      1.0000 0.50280  0.63050  0.87860  Biso   1.000  N
  C22      1.0000 0.40090  0.45900  0.94270  Biso   1.000  C
  O22      1.0000 0.47920  0.65510  0.82930  Biso   1.000  O
  H43      1.0000 0.34230  0.41850  0.92330  Biso   1.000  H
  H44      1.0000 0.39260  0.37580  0.02290  Biso   1.000  H
  N45      1.0000 0.18320  0.55220  0.82620  Biso   1.000  N
  N46      1.0000 0.12770  0.49720  0.87860  Biso   1.000  N
  C23      1.0000 0.05810  0.59910  0.94270  Biso   1.000  C
  O23      1.0000 0.17590  0.52080  0.82930  Biso   1.000  O
  H45      1.0000 0.07620  0.65770  0.92330  Biso   1.000  H
  H46      1.0000 0.98320  0.60740  0.02290  Biso   1.000  H
  N47      1.0000 0.36900  0.81680  0.82620  Biso   1.000  N
  N48      1.0000 0.36950  0.87230  0.87860  Biso   1.000  N
  C24      1.0000 0.54100  0.94190  0.94270  Biso   1.000  C
  O24      1.0000 0.34490  0.82410  0.82930  Biso   1.000  O
  H47      1.0000 0.58150  0.92380  0.92330  Biso   1.000  H
  H48      1.0000 0.62420  0.01680  0.02290  Biso   1.000  H
  Co1      1.0000 0.73534  0.47069  0.25000  Biso   1.000  Co
  Co2      1.0000 0.52931  0.26466  0.25000  Biso   1.000  Co
  Co3      1.0000 0.73534  0.26466  0.25000  Biso   1.000  Co
  Co4      1.0000 0.26466  0.52931  0.75000  Biso   1.000  Co
  Co5      1.0000 0.47069  0.73534  0.75000  Biso   1.000  Co
  Co6      1.0000 0.26466  0.73534  0.75000  Biso   1.000  Co
  O25      1.0000 0.66667  0.33333  0.25000  Biso   1.000  O
  O26      1.0000 0.33333  0.66667  0.75000  Biso   1.000  O
  C25      1.0000 0.54595  0.45405  0.41173  Biso   1.000  C
  C26      1.0000 0.51710  0.48290  0.47150  Biso   1.000  C
  C27      1.0000 0.57660  0.42340  0.35120  Biso   1.000  C
  C28      1.0000 0.54595  0.09190  0.41173  Biso   1.000  C
  C29      1.0000 0.51710  0.03420  0.47150  Biso   1.000  C
  C30      1.0000 0.57660  0.15320  0.35120  Biso   1.000  C
  C31      1.0000 0.90810  0.45405  0.41173  Biso   1.000  C
  C32      1.0000 0.96580  0.48290  0.47150  Biso   1.000  C
  C33      1.0000 0.84680  0.42340  0.35120  Biso   1.000  C
  C34      1.0000 0.45405  0.54595  0.91173  Biso   1.000  C
  C35      1.0000 0.48290  0.51710  0.97150  Biso   1.000  C
  C36      1.0000 0.42340  0.57660  0.85120  Biso   1.000  C
  C37      1.0000 0.45405  0.90810  0.91173  Biso   1.000  C
  C38      1.0000 0.48290  0.96580  0.97150  Biso   1.000  C
  C39      1.0000 0.42340  0.84680  0.85120  Biso   1.000  C
  C40      1.0000 0.09190  0.54595  0.91173  Biso   1.000  C
  C41      1.0000 0.03420  0.51710  0.97150  Biso   1.000  C
  C42      1.0000 0.15320  0.57660  0.85120  Biso   1.000  C
  C43      1.0000 0.45405  0.54595  0.58827  Biso   1.000  C
  C44      1.0000 0.48290  0.51710  0.52850  Biso   1.000  C
  C45      1.0000 0.42340  0.57660  0.64880  Biso   1.000  C
  C46      1.0000 0.09190  0.54595  0.58827  Biso   1.000  C
  C47      1.0000 0.03420  0.51710  0.52850  Biso   1.000  C
  C48      1.0000 0.15320  0.57660  0.64880  Biso   1.000  C
  C49      1.0000 0.45405  0.90810  0.58827  Biso   1.000  C
  C50      1.0000 0.48290  0.96580  0.52850  Biso   1.000  C
  C51      1.0000 0.42340  0.84680  0.64880  Biso   1.000  C
  C52      1.0000 0.54595  0.45405  0.08827  Biso   1.000  C
  C53      1.0000 0.51710  0.48290  0.02850  Biso   1.000  C
  C54      1.0000 0.57660  0.42340  0.14880  Biso   1.000  C
  C55      1.0000 0.90810  0.45405  0.08827  Biso   1.000  C
  C56      1.0000 0.96580  0.48290  0.02850  Biso   1.000  C
  C57      1.0000 0.84680  0.42340  0.14880  Biso   1.000  C
  C58      1.0000 0.54595  0.09190  0.08827  Biso   1.000  C
  C59      1.0000 0.51710  0.03420  0.02850  Biso   1.000  C
  C60      1.0000 0.57660  0.15320  0.14880  Biso   1.000  C
  C61      1.0000 0.43080  0.43080  0.50000  Biso   1.000  C
  C62      1.0000 0.56920  0.00000  0.50000  Biso   1.000  C
  C63      1.0000 0.00000  0.56920  0.50000  Biso   1.000  C
  C64      1.0000 0.56920  0.56920  0.00000  Biso   1.000  C
  C65      1.0000 0.43080  0.00000  0.00000  Biso   1.000  C
  C66      1.0000 0.00000  0.43080  0.00000  Biso   1.000  C
  C67      1.0000 0.56920  0.56920  0.50000  Biso   1.000  C
  C68      1.0000 0.43080  0.00000  0.50000  Biso   1.000  C
  C69      1.0000 0.00000  0.43080  0.50000  Biso   1.000  C
  C70      1.0000 0.43080  0.43080  0.00000  Biso   1.000  C
  C71      1.0000 0.56920  0.00000  0.00000  Biso   1.000  C
  C72      1.0000 0.00000  0.56920  0.00000  Biso   1.000  C
