data_image0
_cell_length_a       17.1243
_cell_length_b       17.1243
_cell_length_c       9.5607
_cell_angle_alpha    90
_cell_angle_beta     90
_cell_angle_gamma    90

_symmetry_space_group_name_H-M    "P 1"
_symmetry_int_tables_number       1

loop_
  _symmetry_equiv_pos_as_xyz
  'x, y, z'

loop_
  _atom_site_label
  _atom_site_occupancy
  _atom_site_fract_x
  _atom_site_fract_y
  _atom_site_fract_z
  _atom_site_thermal_displace_type
  _atom_site_B_iso_or_equiv
  _atom_site_type_symbol
  O1       1.0000 0.48520  0.61578  0.38560  Biso   1.000  O
  H1       1.0000 0.39200  0.45810  0.11380  Biso   1.000  H
  C1       1.0000 0.50400  0.77370  0.35230  Biso   1.000  C
  C2       1.0000 0.49500  0.78140  0.60270  Biso   1.000  C
  H2       1.0000 0.50760  0.74340  0.26930  Biso   1.000  H
  C3       1.0000 0.50400  0.85480  0.34430  Biso   1.000  C
  C4       1.0000 0.50500  0.86250  0.40530  Biso   1.000  C
  H3       1.0000 0.49240  0.75640  0.69130  Biso   1.000  H
  H4       1.0000 0.50740  0.87980  0.25580  Biso   1.000  H
  H5       1.0000 0.50780  0.89280  0.32230  Biso   1.000  H
  C5       1.0000 0.51960  0.41750  0.08060  Biso   1.000  C
  H6       1.0000 0.48040  0.37980  0.11570  Biso   1.000  H
  H7       1.0000 0.40150  0.42840  0.11570  Biso   1.000  H
  O2       1.0000 0.51480  0.38422  0.38560  Biso   1.000  O
  H8       1.0000 0.60800  0.54190  0.11380  Biso   1.000  H
  C6       1.0000 0.49600  0.22630  0.35230  Biso   1.000  C
  C7       1.0000 0.50500  0.21860  0.60270  Biso   1.000  C
  H9       1.0000 0.49240  0.25660  0.26930  Biso   1.000  H
  C8       1.0000 0.49600  0.14520  0.34430  Biso   1.000  C
  C9       1.0000 0.49500  0.13750  0.40530  Biso   1.000  C
  H10      1.0000 0.50760  0.24360  0.69130  Biso   1.000  H
  H11      1.0000 0.49260  0.12020  0.25580  Biso   1.000  H
  H12      1.0000 0.49220  0.10720  0.32230  Biso   1.000  H
  C10      1.0000 0.48040  0.58250  0.08060  Biso   1.000  C
  H13      1.0000 0.51960  0.62020  0.11570  Biso   1.000  H
  H14      1.0000 0.59850  0.57160  0.11570  Biso   1.000  H
  O3       1.0000 0.38422  0.48520  0.38560  Biso   1.000  O
  H15      1.0000 0.54190  0.39200  0.11380  Biso   1.000  H
  C11      1.0000 0.22630  0.50400  0.35230  Biso   1.000  C
  C12      1.0000 0.21860  0.49500  0.60270  Biso   1.000  C
  H16      1.0000 0.25660  0.50760  0.26930  Biso   1.000  H
  C13      1.0000 0.14520  0.50400  0.34430  Biso   1.000  C
  C14      1.0000 0.13750  0.50500  0.40530  Biso   1.000  C
  H17      1.0000 0.24360  0.49240  0.69130  Biso   1.000  H
  H18      1.0000 0.12020  0.50740  0.25580  Biso   1.000  H
  H19      1.0000 0.10720  0.50780  0.32230  Biso   1.000  H
  C15      1.0000 0.58250  0.51960  0.08060  Biso   1.000  C
  H20      1.0000 0.62020  0.48040  0.11570  Biso   1.000  H
  H21      1.0000 0.57160  0.40150  0.11570  Biso   1.000  H
  O4       1.0000 0.61578  0.51480  0.38560  Biso   1.000  O
  H22      1.0000 0.45810  0.60800  0.11380  Biso   1.000  H
  C16      1.0000 0.77370  0.49600  0.35230  Biso   1.000  C
  C17      1.0000 0.78140  0.50500  0.60270  Biso   1.000  C
  H23      1.0000 0.74340  0.49240  0.26930  Biso   1.000  H
  C18      1.0000 0.85480  0.49600  0.34430  Biso   1.000  C
  C19      1.0000 0.86250  0.49500  0.40530  Biso   1.000  C
  H24      1.0000 0.75640  0.50760  0.69130  Biso   1.000  H
  H25      1.0000 0.87980  0.49260  0.25580  Biso   1.000  H
  H26      1.0000 0.89280  0.49220  0.32230  Biso   1.000  H
  C20      1.0000 0.41750  0.48040  0.08060  Biso   1.000  C
  H27      1.0000 0.37980  0.51960  0.11570  Biso   1.000  H
  H28      1.0000 0.42840  0.59850  0.11570  Biso   1.000  H
  O5       1.0000 0.51480  0.61578  0.61440  Biso   1.000  O
  H29      1.0000 0.60800  0.45810  0.88620  Biso   1.000  H
  C21      1.0000 0.49600  0.77370  0.64770  Biso   1.000  C
  C22      1.0000 0.50500  0.78140  0.39730  Biso   1.000  C
  H30      1.0000 0.49240  0.74340  0.73070  Biso   1.000  H
  C23      1.0000 0.49600  0.85480  0.65570  Biso   1.000  C
  C24      1.0000 0.49500  0.86250  0.59470  Biso   1.000  C
  H31      1.0000 0.50760  0.75640  0.30870  Biso   1.000  H
  H32      1.0000 0.49260  0.87980  0.74420  Biso   1.000  H
  H33      1.0000 0.49220  0.89280  0.67770  Biso   1.000  H
  C25      1.0000 0.48040  0.41750  0.91940  Biso   1.000  C
  H34      1.0000 0.51960  0.37980  0.88430  Biso   1.000  H
  H35      1.0000 0.59850  0.42840  0.88430  Biso   1.000  H
  O6       1.0000 0.48520  0.38422  0.61440  Biso   1.000  O
  H36      1.0000 0.39200  0.54190  0.88620  Biso   1.000  H
  C26      1.0000 0.50400  0.22630  0.64770  Biso   1.000  C
  C27      1.0000 0.49500  0.21860  0.39730  Biso   1.000  C
  H37      1.0000 0.50760  0.25660  0.73070  Biso   1.000  H
  C28      1.0000 0.50400  0.14520  0.65570  Biso   1.000  C
  C29      1.0000 0.50500  0.13750  0.59470  Biso   1.000  C
  H38      1.0000 0.49240  0.24360  0.30870  Biso   1.000  H
  H39      1.0000 0.50740  0.12020  0.74420  Biso   1.000  H
  H40      1.0000 0.50780  0.10720  0.67770  Biso   1.000  H
  C30      1.0000 0.51960  0.58250  0.91940  Biso   1.000  C
  H41      1.0000 0.48040  0.62020  0.88430  Biso   1.000  H
  H42      1.0000 0.40150  0.57160  0.88430  Biso   1.000  H
  O7       1.0000 0.61578  0.48520  0.61440  Biso   1.000  O
  H43      1.0000 0.45810  0.39200  0.88620  Biso   1.000  H
  C31      1.0000 0.77370  0.50400  0.64770  Biso   1.000  C
  C32      1.0000 0.78140  0.49500  0.39730  Biso   1.000  C
  H44      1.0000 0.74340  0.50760  0.73070  Biso   1.000  H
  C33      1.0000 0.85480  0.50400  0.65570  Biso   1.000  C
  C34      1.0000 0.86250  0.50500  0.59470  Biso   1.000  C
  H45      1.0000 0.75640  0.49240  0.30870  Biso   1.000  H
  H46      1.0000 0.87980  0.50740  0.74420  Biso   1.000  H
  H47      1.0000 0.89280  0.50780  0.67770  Biso   1.000  H
  C35      1.0000 0.41750  0.51960  0.91940  Biso   1.000  C
  H48      1.0000 0.37980  0.48040  0.88430  Biso   1.000  H
  H49      1.0000 0.42840  0.40150  0.88430  Biso   1.000  H
  O8       1.0000 0.38422  0.51480  0.61440  Biso   1.000  O
  H50      1.0000 0.54190  0.60800  0.88620  Biso   1.000  H
  C36      1.0000 0.22630  0.49600  0.64770  Biso   1.000  C
  C37      1.0000 0.21860  0.50500  0.39730  Biso   1.000  C
  H51      1.0000 0.25660  0.49240  0.73070  Biso   1.000  H
  C38      1.0000 0.14520  0.49600  0.65570  Biso   1.000  C
  C39      1.0000 0.13750  0.49500  0.59470  Biso   1.000  C
  H52      1.0000 0.24360  0.50760  0.30870  Biso   1.000  H
  H53      1.0000 0.12020  0.49260  0.74420  Biso   1.000  H
  H54      1.0000 0.10720  0.49220  0.67770  Biso   1.000  H
  C40      1.0000 0.58250  0.48040  0.91940  Biso   1.000  C
  H55      1.0000 0.62020  0.51960  0.88430  Biso   1.000  H
  H56      1.0000 0.57160  0.59850  0.88430  Biso   1.000  H
  O9       1.0000 0.51480  0.38422  0.61440  Biso   1.000  O
  H57      1.0000 0.60800  0.54190  0.88620  Biso   1.000  H
  C41      1.0000 0.49600  0.22630  0.64770  Biso   1.000  C
  C42      1.0000 0.50500  0.21860  0.39730  Biso   1.000  C
  H58      1.0000 0.49240  0.25660  0.73070  Biso   1.000  H
  C43      1.0000 0.49600  0.14520  0.65570  Biso   1.000  C
  C44      1.0000 0.49500  0.13750  0.59470  Biso   1.000  C
  H59      1.0000 0.50760  0.24360  0.30870  Biso   1.000  H
  H60      1.0000 0.49260  0.12020  0.74420  Biso   1.000  H
  H61      1.0000 0.49220  0.10720  0.67770  Biso   1.000  H
  C45      1.0000 0.48040  0.58250  0.91940  Biso   1.000  C
  H62      1.0000 0.51960  0.62020  0.88430  Biso   1.000  H
  H63      1.0000 0.59850  0.57160  0.88430  Biso   1.000  H
  O10      1.0000 0.48520  0.61578  0.61440  Biso   1.000  O
  H64      1.0000 0.39200  0.45810  0.88620  Biso   1.000  H
  C46      1.0000 0.50400  0.77370  0.64770  Biso   1.000  C
  C47      1.0000 0.49500  0.78140  0.39730  Biso   1.000  C
  H65      1.0000 0.50760  0.74340  0.73070  Biso   1.000  H
  C48      1.0000 0.50400  0.85480  0.65570  Biso   1.000  C
  C49      1.0000 0.50500  0.86250  0.59470  Biso   1.000  C
  H66      1.0000 0.49240  0.75640  0.30870  Biso   1.000  H
  H67      1.0000 0.50740  0.87980  0.74420  Biso   1.000  H
  H68      1.0000 0.50780  0.89280  0.67770  Biso   1.000  H
  C50      1.0000 0.51960  0.41750  0.91940  Biso   1.000  C
  H69      1.0000 0.48040  0.37980  0.88430  Biso   1.000  H
  H70      1.0000 0.40150  0.42840  0.88430  Biso   1.000  H
  O11      1.0000 0.61578  0.51480  0.61440  Biso   1.000  O
  H71      1.0000 0.45810  0.60800  0.88620  Biso   1.000  H
  C51      1.0000 0.77370  0.49600  0.64770  Biso   1.000  C
  C52      1.0000 0.78140  0.50500  0.39730  Biso   1.000  C
  H72      1.0000 0.74340  0.49240  0.73070  Biso   1.000  H
  C53      1.0000 0.85480  0.49600  0.65570  Biso   1.000  C
  C54      1.0000 0.86250  0.49500  0.59470  Biso   1.000  C
  H73      1.0000 0.75640  0.50760  0.30870  Biso   1.000  H
  H74      1.0000 0.87980  0.49260  0.74420  Biso   1.000  H
  H75      1.0000 0.89280  0.49220  0.67770  Biso   1.000  H
  C55      1.0000 0.41750  0.48040  0.91940  Biso   1.000  C
  H76      1.0000 0.37980  0.51960  0.88430  Biso   1.000  H
  H77      1.0000 0.42840  0.59850  0.88430  Biso   1.000  H
  O12      1.0000 0.38422  0.48520  0.61440  Biso   1.000  O
  H78      1.0000 0.54190  0.39200  0.88620  Biso   1.000  H
  C56      1.0000 0.22630  0.50400  0.64770  Biso   1.000  C
  C57      1.0000 0.21860  0.49500  0.39730  Biso   1.000  C
  H79      1.0000 0.25660  0.50760  0.73070  Biso   1.000  H
  C58      1.0000 0.14520  0.50400  0.65570  Biso   1.000  C
  C59      1.0000 0.13750  0.50500  0.59470  Biso   1.000  C
  H80      1.0000 0.24360  0.49240  0.30870  Biso   1.000  H
  H81      1.0000 0.12020  0.50740  0.74420  Biso   1.000  H
  H82      1.0000 0.10720  0.50780  0.67770  Biso   1.000  H
  C60      1.0000 0.58250  0.51960  0.91940  Biso   1.000  C
  H83      1.0000 0.62020  0.48040  0.88430  Biso   1.000  H
  H84      1.0000 0.57160  0.40150  0.88430  Biso   1.000  H
  O13      1.0000 0.48520  0.38422  0.38560  Biso   1.000  O
  H85      1.0000 0.39200  0.54190  0.11380  Biso   1.000  H
  C61      1.0000 0.50400  0.22630  0.35230  Biso   1.000  C
  C62      1.0000 0.49500  0.21860  0.60270  Biso   1.000  C
  H86      1.0000 0.50760  0.25660  0.26930  Biso   1.000  H
  C63      1.0000 0.50400  0.14520  0.34430  Biso   1.000  C
  C64      1.0000 0.50500  0.13750  0.40530  Biso   1.000  C
  H87      1.0000 0.49240  0.24360  0.69130  Biso   1.000  H
  H88      1.0000 0.50740  0.12020  0.25580  Biso   1.000  H
  H89      1.0000 0.50780  0.10720  0.32230  Biso   1.000  H
  C65      1.0000 0.51960  0.58250  0.08060  Biso   1.000  C
  H90      1.0000 0.48040  0.62020  0.11570  Biso   1.000  H
  H91      1.0000 0.40150  0.57160  0.11570  Biso   1.000  H
  O14      1.0000 0.51480  0.61578  0.38560  Biso   1.000  O
  H92      1.0000 0.60800  0.45810  0.11380  Biso   1.000  H
  C66      1.0000 0.49600  0.77370  0.35230  Biso   1.000  C
  C67      1.0000 0.50500  0.78140  0.60270  Biso   1.000  C
  H93      1.0000 0.49240  0.74340  0.26930  Biso   1.000  H
  C68      1.0000 0.49600  0.85480  0.34430  Biso   1.000  C
  C69      1.0000 0.49500  0.86250  0.40530  Biso   1.000  C
  H94      1.0000 0.50760  0.75640  0.69130  Biso   1.000  H
  H95      1.0000 0.49260  0.87980  0.25580  Biso   1.000  H
  H96      1.0000 0.49220  0.89280  0.32230  Biso   1.000  H
  C70      1.0000 0.48040  0.41750  0.08060  Biso   1.000  C
  H97      1.0000 0.51960  0.37980  0.11570  Biso   1.000  H
  H98      1.0000 0.59850  0.42840  0.11570  Biso   1.000  H
  O15      1.0000 0.38422  0.51480  0.38560  Biso   1.000  O
  H99      1.0000 0.54190  0.60800  0.11380  Biso   1.000  H
  C71      1.0000 0.22630  0.49600  0.35230  Biso   1.000  C
  C72      1.0000 0.21860  0.50500  0.60270  Biso   1.000  C
  H100     1.0000 0.25660  0.49240  0.26930  Biso   1.000  H
  C73      1.0000 0.14520  0.49600  0.34430  Biso   1.000  C
  C74      1.0000 0.13750  0.49500  0.40530  Biso   1.000  C
  H101     1.0000 0.24360  0.50760  0.69130  Biso   1.000  H
  H102     1.0000 0.12020  0.49260  0.25580  Biso   1.000  H
  H103     1.0000 0.10720  0.49220  0.32230  Biso   1.000  H
  C75      1.0000 0.58250  0.48040  0.08060  Biso   1.000  C
  H104     1.0000 0.62020  0.51960  0.11570  Biso   1.000  H
  H105     1.0000 0.57160  0.59850  0.11570  Biso   1.000  H
  O16      1.0000 0.61578  0.48520  0.38560  Biso   1.000  O
  H106     1.0000 0.45810  0.39200  0.11380  Biso   1.000  H
  C76      1.0000 0.77370  0.50400  0.35230  Biso   1.000  C
  C77      1.0000 0.78140  0.49500  0.60270  Biso   1.000  C
  H107     1.0000 0.74340  0.50760  0.26930  Biso   1.000  H
  C78      1.0000 0.85480  0.50400  0.34430  Biso   1.000  C
  C79      1.0000 0.86250  0.50500  0.40530  Biso   1.000  C
  H108     1.0000 0.75640  0.49240  0.69130  Biso   1.000  H
  H109     1.0000 0.87980  0.50740  0.25580  Biso   1.000  H
  H110     1.0000 0.89280  0.50780  0.32230  Biso   1.000  H
  C80      1.0000 0.41750  0.51960  0.08060  Biso   1.000  C
  H111     1.0000 0.37980  0.48040  0.11570  Biso   1.000  H
  H112     1.0000 0.42840  0.40150  0.11570  Biso   1.000  H
  Zn1      1.0000 0.50000  0.50000  0.34758  Biso   1.000  Zn
  N1       1.0000 0.50000  0.50000  0.13380  Biso   1.000  N
  Zn2      1.0000 0.50000  0.50000  0.65242  Biso   1.000  Zn
  N2       1.0000 0.50000  0.50000  0.86620  Biso   1.000  N
  C81      1.0000 0.44490  0.44490  0.07940  Biso   1.000  C
  C82      1.0000 0.55510  0.55510  0.07940  Biso   1.000  C
  C83      1.0000 0.55510  0.44490  0.07940  Biso   1.000  C
  C84      1.0000 0.44490  0.55510  0.07940  Biso   1.000  C
  C85      1.0000 0.55510  0.44490  0.92060  Biso   1.000  C
  C86      1.0000 0.44490  0.55510  0.92060  Biso   1.000  C
  C87      1.0000 0.44490  0.44490  0.92060  Biso   1.000  C
  C88      1.0000 0.55510  0.55510  0.92060  Biso   1.000  C
  C89      1.0000 0.50000  0.64930  0.50000  Biso   1.000  C
  C90      1.0000 0.50000  0.35070  0.50000  Biso   1.000  C
  C91      1.0000 0.35070  0.50000  0.50000  Biso   1.000  C
  C92      1.0000 0.64930  0.50000  0.50000  Biso   1.000  C
  C93      1.0000 0.50000  0.73710  0.48160  Biso   1.000  C
  C94      1.0000 0.50000  0.89920  0.46550  Biso   1.000  C
  N3       1.0000 0.50000  0.98100  0.44560  Biso   1.000  N
  C95      1.0000 0.50000  0.26290  0.48160  Biso   1.000  C
  C96      1.0000 0.50000  0.10080  0.46550  Biso   1.000  C
  N4       1.0000 0.50000  0.01900  0.44560  Biso   1.000  N
  C97      1.0000 0.26290  0.50000  0.48160  Biso   1.000  C
  C98      1.0000 0.10080  0.50000  0.46550  Biso   1.000  C
  N5       1.0000 0.01900  0.50000  0.44560  Biso   1.000  N
  C99      1.0000 0.73710  0.50000  0.48160  Biso   1.000  C
  C100     1.0000 0.89920  0.50000  0.46550  Biso   1.000  C
  N6       1.0000 0.98100  0.50000  0.44560  Biso   1.000  N
  C101     1.0000 0.50000  0.73710  0.51840  Biso   1.000  C
  C102     1.0000 0.50000  0.89920  0.53450  Biso   1.000  C
  N7       1.0000 0.50000  0.98100  0.55440  Biso   1.000  N
  C103     1.0000 0.50000  0.26290  0.51840  Biso   1.000  C
  C104     1.0000 0.50000  0.10080  0.53450  Biso   1.000  C
  N8       1.0000 0.50000  0.01900  0.55440  Biso   1.000  N
  C105     1.0000 0.73710  0.50000  0.51840  Biso   1.000  C
  C106     1.0000 0.89920  0.50000  0.53450  Biso   1.000  C
  N9       1.0000 0.98100  0.50000  0.55440  Biso   1.000  N
  C107     1.0000 0.26290  0.50000  0.51840  Biso   1.000  C
  C108     1.0000 0.10080  0.50000  0.53450  Biso   1.000  C
  N10      1.0000 0.01900  0.50000  0.55440  Biso   1.000  N
  O17      1.0000 0.98520  0.11578  0.88560  Biso   1.000  O
  H113     1.0000 0.89200  0.95810  0.61380  Biso   1.000  H
  C109     1.0000 0.00400  0.27370  0.85230  Biso   1.000  C
  C110     1.0000 0.99500  0.28140  0.10270  Biso   1.000  C
  H114     1.0000 0.00760  0.24340  0.76930  Biso   1.000  H
  C111     1.0000 0.00400  0.35480  0.84430  Biso   1.000  C
  C112     1.0000 0.00500  0.36250  0.90530  Biso   1.000  C
  H115     1.0000 0.99240  0.25640  0.19130  Biso   1.000  H
  H116     1.0000 0.00740  0.37980  0.75580  Biso   1.000  H
  H117     1.0000 0.00780  0.39280  0.82230  Biso   1.000  H
  C113     1.0000 0.01960  0.91750  0.58060  Biso   1.000  C
  H118     1.0000 0.98040  0.87980  0.61570  Biso   1.000  H
  H119     1.0000 0.90150  0.92840  0.61570  Biso   1.000  H
  O18      1.0000 0.01480  0.88422  0.88560  Biso   1.000  O
  H120     1.0000 0.10800  0.04190  0.61380  Biso   1.000  H
  C114     1.0000 0.99600  0.72630  0.85230  Biso   1.000  C
  C115     1.0000 0.00500  0.71860  0.10270  Biso   1.000  C
  H121     1.0000 0.99240  0.75660  0.76930  Biso   1.000  H
  C116     1.0000 0.99600  0.64520  0.84430  Biso   1.000  C
  C117     1.0000 0.99500  0.63750  0.90530  Biso   1.000  C
  H122     1.0000 0.00760  0.74360  0.19130  Biso   1.000  H
  H123     1.0000 0.99260  0.62020  0.75580  Biso   1.000  H
  H124     1.0000 0.99220  0.60720  0.82230  Biso   1.000  H
  C118     1.0000 0.98040  0.08250  0.58060  Biso   1.000  C
  H125     1.0000 0.01960  0.12020  0.61570  Biso   1.000  H
  H126     1.0000 0.09850  0.07160  0.61570  Biso   1.000  H
  O19      1.0000 0.88422  0.98520  0.88560  Biso   1.000  O
  H127     1.0000 0.04190  0.89200  0.61380  Biso   1.000  H
  C119     1.0000 0.72630  0.00400  0.85230  Biso   1.000  C
  C120     1.0000 0.71860  0.99500  0.10270  Biso   1.000  C
  H128     1.0000 0.75660  0.00760  0.76930  Biso   1.000  H
  C121     1.0000 0.64520  0.00400  0.84430  Biso   1.000  C
  C122     1.0000 0.63750  0.00500  0.90530  Biso   1.000  C
  H129     1.0000 0.74360  0.99240  0.19130  Biso   1.000  H
  H130     1.0000 0.62020  0.00740  0.75580  Biso   1.000  H
  H131     1.0000 0.60720  0.00780  0.82230  Biso   1.000  H
  C123     1.0000 0.08250  0.01960  0.58060  Biso   1.000  C
  H132     1.0000 0.12020  0.98040  0.61570  Biso   1.000  H
  H133     1.0000 0.07160  0.90150  0.61570  Biso   1.000  H
  O20      1.0000 0.11578  0.01480  0.88560  Biso   1.000  O
  H134     1.0000 0.95810  0.10800  0.61380  Biso   1.000  H
  C124     1.0000 0.27370  0.99600  0.85230  Biso   1.000  C
  C125     1.0000 0.28140  0.00500  0.10270  Biso   1.000  C
  H135     1.0000 0.24340  0.99240  0.76930  Biso   1.000  H
  C126     1.0000 0.35480  0.99600  0.84430  Biso   1.000  C
  C127     1.0000 0.36250  0.99500  0.90530  Biso   1.000  C
  H136     1.0000 0.25640  0.00760  0.19130  Biso   1.000  H
  H137     1.0000 0.37980  0.99260  0.75580  Biso   1.000  H
  H138     1.0000 0.39280  0.99220  0.82230  Biso   1.000  H
  C128     1.0000 0.91750  0.98040  0.58060  Biso   1.000  C
  H139     1.0000 0.87980  0.01960  0.61570  Biso   1.000  H
  H140     1.0000 0.92840  0.09850  0.61570  Biso   1.000  H
  O21      1.0000 0.01480  0.11578  0.11440  Biso   1.000  O
  H141     1.0000 0.10800  0.95810  0.38620  Biso   1.000  H
  C129     1.0000 0.99600  0.27370  0.14770  Biso   1.000  C
  C130     1.0000 0.00500  0.28140  0.89730  Biso   1.000  C
  H142     1.0000 0.99240  0.24340  0.23070  Biso   1.000  H
  C131     1.0000 0.99600  0.35480  0.15570  Biso   1.000  C
  C132     1.0000 0.99500  0.36250  0.09470  Biso   1.000  C
  H143     1.0000 0.00760  0.25640  0.80870  Biso   1.000  H
  H144     1.0000 0.99260  0.37980  0.24420  Biso   1.000  H
  H145     1.0000 0.99220  0.39280  0.17770  Biso   1.000  H
  C133     1.0000 0.98040  0.91750  0.41940  Biso   1.000  C
  H146     1.0000 0.01960  0.87980  0.38430  Biso   1.000  H
  H147     1.0000 0.09850  0.92840  0.38430  Biso   1.000  H
  O22      1.0000 0.98520  0.88422  0.11440  Biso   1.000  O
  H148     1.0000 0.89200  0.04190  0.38620  Biso   1.000  H
  C134     1.0000 0.00400  0.72630  0.14770  Biso   1.000  C
  C135     1.0000 0.99500  0.71860  0.89730  Biso   1.000  C
  H149     1.0000 0.00760  0.75660  0.23070  Biso   1.000  H
  C136     1.0000 0.00400  0.64520  0.15570  Biso   1.000  C
  C137     1.0000 0.00500  0.63750  0.09470  Biso   1.000  C
  H150     1.0000 0.99240  0.74360  0.80870  Biso   1.000  H
  H151     1.0000 0.00740  0.62020  0.24420  Biso   1.000  H
  H152     1.0000 0.00780  0.60720  0.17770  Biso   1.000  H
  C138     1.0000 0.01960  0.08250  0.41940  Biso   1.000  C
  H153     1.0000 0.98040  0.12020  0.38430  Biso   1.000  H
  H154     1.0000 0.90150  0.07160  0.38430  Biso   1.000  H
  O23      1.0000 0.11578  0.98520  0.11440  Biso   1.000  O
  H155     1.0000 0.95810  0.89200  0.38620  Biso   1.000  H
  C139     1.0000 0.27370  0.00400  0.14770  Biso   1.000  C
  C140     1.0000 0.28140  0.99500  0.89730  Biso   1.000  C
  H156     1.0000 0.24340  0.00760  0.23070  Biso   1.000  H
  C141     1.0000 0.35480  0.00400  0.15570  Biso   1.000  C
  C142     1.0000 0.36250  0.00500  0.09470  Biso   1.000  C
  H157     1.0000 0.25640  0.99240  0.80870  Biso   1.000  H
  H158     1.0000 0.37980  0.00740  0.24420  Biso   1.000  H
  H159     1.0000 0.39280  0.00780  0.17770  Biso   1.000  H
  C143     1.0000 0.91750  0.01960  0.41940  Biso   1.000  C
  H160     1.0000 0.87980  0.98040  0.38430  Biso   1.000  H
  H161     1.0000 0.92840  0.90150  0.38430  Biso   1.000  H
  O24      1.0000 0.88422  0.01480  0.11440  Biso   1.000  O
  H162     1.0000 0.04190  0.10800  0.38620  Biso   1.000  H
  C144     1.0000 0.72630  0.99600  0.14770  Biso   1.000  C
  C145     1.0000 0.71860  0.00500  0.89730  Biso   1.000  C
  H163     1.0000 0.75660  0.99240  0.23070  Biso   1.000  H
  C146     1.0000 0.64520  0.99600  0.15570  Biso   1.000  C
  C147     1.0000 0.63750  0.99500  0.09470  Biso   1.000  C
  H164     1.0000 0.74360  0.00760  0.80870  Biso   1.000  H
  H165     1.0000 0.62020  0.99260  0.24420  Biso   1.000  H
  H166     1.0000 0.60720  0.99220  0.17770  Biso   1.000  H
  C148     1.0000 0.08250  0.98040  0.41940  Biso   1.000  C
  H167     1.0000 0.12020  0.01960  0.38430  Biso   1.000  H
  H168     1.0000 0.07160  0.09850  0.38430  Biso   1.000  H
  O25      1.0000 0.01480  0.88422  0.11440  Biso   1.000  O
  H169     1.0000 0.10800  0.04190  0.38620  Biso   1.000  H
  C149     1.0000 0.99600  0.72630  0.14770  Biso   1.000  C
  C150     1.0000 0.00500  0.71860  0.89730  Biso   1.000  C
  H170     1.0000 0.99240  0.75660  0.23070  Biso   1.000  H
  C151     1.0000 0.99600  0.64520  0.15570  Biso   1.000  C
  C152     1.0000 0.99500  0.63750  0.09470  Biso   1.000  C
  H171     1.0000 0.00760  0.74360  0.80870  Biso   1.000  H
  H172     1.0000 0.99260  0.62020  0.24420  Biso   1.000  H
  H173     1.0000 0.99220  0.60720  0.17770  Biso   1.000  H
  C153     1.0000 0.98040  0.08250  0.41940  Biso   1.000  C
  H174     1.0000 0.01960  0.12020  0.38430  Biso   1.000  H
  H175     1.0000 0.09850  0.07160  0.38430  Biso   1.000  H
  O26      1.0000 0.98520  0.11578  0.11440  Biso   1.000  O
  H176     1.0000 0.89200  0.95810  0.38620  Biso   1.000  H
  C154     1.0000 0.00400  0.27370  0.14770  Biso   1.000  C
  C155     1.0000 0.99500  0.28140  0.89730  Biso   1.000  C
  H177     1.0000 0.00760  0.24340  0.23070  Biso   1.000  H
  C156     1.0000 0.00400  0.35480  0.15570  Biso   1.000  C
  C157     1.0000 0.00500  0.36250  0.09470  Biso   1.000  C
  H178     1.0000 0.99240  0.25640  0.80870  Biso   1.000  H
  H179     1.0000 0.00740  0.37980  0.24420  Biso   1.000  H
  H180     1.0000 0.00780  0.39280  0.17770  Biso   1.000  H
  C158     1.0000 0.01960  0.91750  0.41940  Biso   1.000  C
  H181     1.0000 0.98040  0.87980  0.38430  Biso   1.000  H
  H182     1.0000 0.90150  0.92840  0.38430  Biso   1.000  H
  O27      1.0000 0.11578  0.01480  0.11440  Biso   1.000  O
  H183     1.0000 0.95810  0.10800  0.38620  Biso   1.000  H
  C159     1.0000 0.27370  0.99600  0.14770  Biso   1.000  C
  C160     1.0000 0.28140  0.00500  0.89730  Biso   1.000  C
  H184     1.0000 0.24340  0.99240  0.23070  Biso   1.000  H
  C161     1.0000 0.35480  0.99600  0.15570  Biso   1.000  C
  C162     1.0000 0.36250  0.99500  0.09470  Biso   1.000  C
  H185     1.0000 0.25640  0.00760  0.80870  Biso   1.000  H
  H186     1.0000 0.37980  0.99260  0.24420  Biso   1.000  H
  H187     1.0000 0.39280  0.99220  0.17770  Biso   1.000  H
  C163     1.0000 0.91750  0.98040  0.41940  Biso   1.000  C
  H188     1.0000 0.87980  0.01960  0.38430  Biso   1.000  H
  H189     1.0000 0.92840  0.09850  0.38430  Biso   1.000  H
  O28      1.0000 0.88422  0.98520  0.11440  Biso   1.000  O
  H190     1.0000 0.04190  0.89200  0.38620  Biso   1.000  H
  C164     1.0000 0.72630  0.00400  0.14770  Biso   1.000  C
  C165     1.0000 0.71860  0.99500  0.89730  Biso   1.000  C
  H191     1.0000 0.75660  0.00760  0.23070  Biso   1.000  H
  C166     1.0000 0.64520  0.00400  0.15570  Biso   1.000  C
  C167     1.0000 0.63750  0.00500  0.09470  Biso   1.000  C
  H192     1.0000 0.74360  0.99240  0.80870  Biso   1.000  H
  H193     1.0000 0.62020  0.00740  0.24420  Biso   1.000  H
  H194     1.0000 0.60720  0.00780  0.17770  Biso   1.000  H
  C168     1.0000 0.08250  0.01960  0.41940  Biso   1.000  C
  H195     1.0000 0.12020  0.98040  0.38430  Biso   1.000  H
  H196     1.0000 0.07160  0.90150  0.38430  Biso   1.000  H
  O29      1.0000 0.98520  0.88422  0.88560  Biso   1.000  O
  H197     1.0000 0.89200  0.04190  0.61380  Biso   1.000  H
  C169     1.0000 0.00400  0.72630  0.85230  Biso   1.000  C
  C170     1.0000 0.99500  0.71860  0.10270  Biso   1.000  C
  H198     1.0000 0.00760  0.75660  0.76930  Biso   1.000  H
  C171     1.0000 0.00400  0.64520  0.84430  Biso   1.000  C
  C172     1.0000 0.00500  0.63750  0.90530  Biso   1.000  C
  H199     1.0000 0.99240  0.74360  0.19130  Biso   1.000  H
  H200     1.0000 0.00740  0.62020  0.75580  Biso   1.000  H
  H201     1.0000 0.00780  0.60720  0.82230  Biso   1.000  H
  C173     1.0000 0.01960  0.08250  0.58060  Biso   1.000  C
  H202     1.0000 0.98040  0.12020  0.61570  Biso   1.000  H
  H203     1.0000 0.90150  0.07160  0.61570  Biso   1.000  H
  O30      1.0000 0.01480  0.11578  0.88560  Biso   1.000  O
  H204     1.0000 0.10800  0.95810  0.61380  Biso   1.000  H
  C174     1.0000 0.99600  0.27370  0.85230  Biso   1.000  C
  C175     1.0000 0.00500  0.28140  0.10270  Biso   1.000  C
  H205     1.0000 0.99240  0.24340  0.76930  Biso   1.000  H
  C176     1.0000 0.99600  0.35480  0.84430  Biso   1.000  C
  C177     1.0000 0.99500  0.36250  0.90530  Biso   1.000  C
  H206     1.0000 0.00760  0.25640  0.19130  Biso   1.000  H
  H207     1.0000 0.99260  0.37980  0.75580  Biso   1.000  H
  H208     1.0000 0.99220  0.39280  0.82230  Biso   1.000  H
  C178     1.0000 0.98040  0.91750  0.58060  Biso   1.000  C
  H209     1.0000 0.01960  0.87980  0.61570  Biso   1.000  H
  H210     1.0000 0.09850  0.92840  0.61570  Biso   1.000  H
  O31      1.0000 0.88422  0.01480  0.88560  Biso   1.000  O
  H211     1.0000 0.04190  0.10800  0.61380  Biso   1.000  H
  C179     1.0000 0.72630  0.99600  0.85230  Biso   1.000  C
  C180     1.0000 0.71860  0.00500  0.10270  Biso   1.000  C
  H212     1.0000 0.75660  0.99240  0.76930  Biso   1.000  H
  C181     1.0000 0.64520  0.99600  0.84430  Biso   1.000  C
  C182     1.0000 0.63750  0.99500  0.90530  Biso   1.000  C
  H213     1.0000 0.74360  0.00760  0.19130  Biso   1.000  H
  H214     1.0000 0.62020  0.99260  0.75580  Biso   1.000  H
  H215     1.0000 0.60720  0.99220  0.82230  Biso   1.000  H
  C183     1.0000 0.08250  0.98040  0.58060  Biso   1.000  C
  H216     1.0000 0.12020  0.01960  0.61570  Biso   1.000  H
  H217     1.0000 0.07160  0.09850  0.61570  Biso   1.000  H
  O32      1.0000 0.11578  0.98520  0.88560  Biso   1.000  O
  H218     1.0000 0.95810  0.89200  0.61380  Biso   1.000  H
  C184     1.0000 0.27370  0.00400  0.85230  Biso   1.000  C
  C185     1.0000 0.28140  0.99500  0.10270  Biso   1.000  C
  H219     1.0000 0.24340  0.00760  0.76930  Biso   1.000  H
  C186     1.0000 0.35480  0.00400  0.84430  Biso   1.000  C
  C187     1.0000 0.36250  0.00500  0.90530  Biso   1.000  C
  H220     1.0000 0.25640  0.99240  0.19130  Biso   1.000  H
  H221     1.0000 0.37980  0.00740  0.75580  Biso   1.000  H
  H222     1.0000 0.39280  0.00780  0.82230  Biso   1.000  H
  C188     1.0000 0.91750  0.01960  0.58060  Biso   1.000  C
  H223     1.0000 0.87980  0.98040  0.61570  Biso   1.000  H
  H224     1.0000 0.92840  0.90150  0.61570  Biso   1.000  H
  Zn3      1.0000 0.00000  0.00000  0.84758  Biso   1.000  Zn
  N11      1.0000 0.00000  0.00000  0.63380  Biso   1.000  N
  Zn4      1.0000 0.00000  0.00000  0.15242  Biso   1.000  Zn
  N12      1.0000 0.00000  0.00000  0.36620  Biso   1.000  N
  C189     1.0000 0.94490  0.94490  0.57940  Biso   1.000  C
  C190     1.0000 0.05510  0.05510  0.57940  Biso   1.000  C
  C191     1.0000 0.05510  0.94490  0.57940  Biso   1.000  C
  C192     1.0000 0.94490  0.05510  0.57940  Biso   1.000  C
  C193     1.0000 0.05510  0.94490  0.42060  Biso   1.000  C
  C194     1.0000 0.94490  0.05510  0.42060  Biso   1.000  C
  C195     1.0000 0.94490  0.94490  0.42060  Biso   1.000  C
  C196     1.0000 0.05510  0.05510  0.42060  Biso   1.000  C
  C197     1.0000 0.00000  0.14930  0.00000  Biso   1.000  C
  C198     1.0000 0.00000  0.85070  0.00000  Biso   1.000  C
  C199     1.0000 0.85070  0.00000  0.00000  Biso   1.000  C
  C200     1.0000 0.14930  0.00000  0.00000  Biso   1.000  C
  C201     1.0000 0.00000  0.23710  0.98160  Biso   1.000  C
  C202     1.0000 0.00000  0.39920  0.96550  Biso   1.000  C
  N13      1.0000 0.00000  0.48100  0.94560  Biso   1.000  N
  C203     1.0000 0.00000  0.76290  0.98160  Biso   1.000  C
  C204     1.0000 0.00000  0.60080  0.96550  Biso   1.000  C
  N14      1.0000 0.00000  0.51900  0.94560  Biso   1.000  N
  C205     1.0000 0.76290  0.00000  0.98160  Biso   1.000  C
  C206     1.0000 0.60080  0.00000  0.96550  Biso   1.000  C
  N15      1.0000 0.51900  0.00000  0.94560  Biso   1.000  N
  C207     1.0000 0.23710  0.00000  0.98160  Biso   1.000  C
  C208     1.0000 0.39920  0.00000  0.96550  Biso   1.000  C
  N16      1.0000 0.48100  0.00000  0.94560  Biso   1.000  N
  C209     1.0000 0.00000  0.23710  0.01840  Biso   1.000  C
  C210     1.0000 0.00000  0.39920  0.03450  Biso   1.000  C
  N17      1.0000 0.00000  0.48100  0.05440  Biso   1.000  N
  C211     1.0000 0.00000  0.76290  0.01840  Biso   1.000  C
  C212     1.0000 0.00000  0.60080  0.03450  Biso   1.000  C
  N18      1.0000 0.00000  0.51900  0.05440  Biso   1.000  N
  C213     1.0000 0.23710  0.00000  0.01840  Biso   1.000  C
  C214     1.0000 0.39920  0.00000  0.03450  Biso   1.000  C
  N19      1.0000 0.48100  0.00000  0.05440  Biso   1.000  N
  C215     1.0000 0.76290  0.00000  0.01840  Biso   1.000  C
  C216     1.0000 0.60080  0.00000  0.03450  Biso   1.000  C
  N20      1.0000 0.51900  0.00000  0.05440  Biso   1.000  N
