data_image0
_cell_length_a       16.834
_cell_length_b       16.834
_cell_length_c       25.705
_cell_angle_alpha    90
_cell_angle_beta     90
_cell_angle_gamma    120

_symmetry_space_group_name_H-M    "P 1"
_symmetry_int_tables_number       1

loop_
  _symmetry_equiv_pos_as_xyz
  'x, y, z'

loop_
  _atom_site_label
  _atom_site_occupancy
  _atom_site_fract_x
  _atom_site_fract_y
  _atom_site_fract_z
  _atom_site_thermal_displace_type
  _atom_site_B_iso_or_equiv
  _atom_site_type_symbol
  O1       1.0000 0.82382  0.34506  0.30697  Biso   1.000  O
  C1       1.0000 0.88660  0.37390  0.40990  Biso   1.000  C
  H1       1.0000 0.85820  0.31370  0.39810  Biso   1.000  H
  C2       1.0000 0.93360  0.39900  0.45700  Biso   1.000  C
  H2       1.0000 0.92930  0.35460  0.48020  Biso   1.000  H
  C3       1.0000 0.94080  0.40270  0.39130  Biso   1.000  C
  H3       1.0000 0.94210  0.35740  0.37130  Biso   1.000  H
  C4       1.0000 0.98080  0.42260  0.44040  Biso   1.000  C
  H4       1.0000 0.02150  0.40280  0.44940  Biso   1.000  H
  C5       1.0000 0.95980  0.47300  0.47700  Biso   1.000  C
  O2       1.0000 0.65494  0.47876  0.30697  Biso   1.000  O
  C6       1.0000 0.62610  0.51270  0.40990  Biso   1.000  C
  H5       1.0000 0.68630  0.54450  0.39810  Biso   1.000  H
  C7       1.0000 0.60100  0.53460  0.45700  Biso   1.000  C
  H6       1.0000 0.64540  0.57470  0.48020  Biso   1.000  H
  C8       1.0000 0.59730  0.53810  0.39130  Biso   1.000  C
  H7       1.0000 0.64260  0.58470  0.37130  Biso   1.000  H
  C9       1.0000 0.57740  0.55820  0.44040  Biso   1.000  C
  H8       1.0000 0.59720  0.61870  0.44940  Biso   1.000  H
  C10      1.0000 0.52700  0.48680  0.47700  Biso   1.000  C
  O3       1.0000 0.52124  0.17618  0.30697  Biso   1.000  O
  C11      1.0000 0.48730  0.11340  0.40990  Biso   1.000  C
  H9       1.0000 0.45550  0.14180  0.39810  Biso   1.000  H
  C12      1.0000 0.46540  0.06640  0.45700  Biso   1.000  C
  H10      1.0000 0.42530  0.07070  0.48020  Biso   1.000  H
  C13      1.0000 0.46190  0.05920  0.39130  Biso   1.000  C
  H11      1.0000 0.41530  0.05790  0.37130  Biso   1.000  H
  C14      1.0000 0.44180  0.01920  0.44040  Biso   1.000  C
  H12      1.0000 0.38130  0.97850  0.44940  Biso   1.000  H
  C15      1.0000 0.51320  0.04020  0.47700  Biso   1.000  C
  O4       1.0000 0.17618  0.65494  0.80697  Biso   1.000  O
  C16      1.0000 0.11340  0.62610  0.90990  Biso   1.000  C
  H13      1.0000 0.14180  0.68630  0.89810  Biso   1.000  H
  C17      1.0000 0.06640  0.60100  0.95700  Biso   1.000  C
  H14      1.0000 0.07070  0.64540  0.98020  Biso   1.000  H
  C18      1.0000 0.05920  0.59730  0.89130  Biso   1.000  C
  H15      1.0000 0.05790  0.64260  0.87130  Biso   1.000  H
  C19      1.0000 0.01920  0.57740  0.94040  Biso   1.000  C
  H16      1.0000 0.97850  0.59720  0.94940  Biso   1.000  H
  C20      1.0000 0.04020  0.52700  0.97700  Biso   1.000  C
  O5       1.0000 0.34506  0.52124  0.80697  Biso   1.000  O
  C21      1.0000 0.37390  0.48730  0.90990  Biso   1.000  C
  H17      1.0000 0.31370  0.45550  0.89810  Biso   1.000  H
  C22      1.0000 0.39900  0.46540  0.95700  Biso   1.000  C
  H18      1.0000 0.35460  0.42530  0.98020  Biso   1.000  H
  C23      1.0000 0.40270  0.46190  0.89130  Biso   1.000  C
  H19      1.0000 0.35740  0.41530  0.87130  Biso   1.000  H
  C24      1.0000 0.42260  0.44180  0.94040  Biso   1.000  C
  H20      1.0000 0.40280  0.38130  0.94940  Biso   1.000  H
  C25      1.0000 0.47300  0.51320  0.97700  Biso   1.000  C
  O6       1.0000 0.47876  0.82382  0.80697  Biso   1.000  O
  C26      1.0000 0.51270  0.88660  0.90990  Biso   1.000  C
  H21      1.0000 0.54450  0.85820  0.89810  Biso   1.000  H
  C27      1.0000 0.53460  0.93360  0.95700  Biso   1.000  C
  H22      1.0000 0.57470  0.92930  0.98020  Biso   1.000  H
  C28      1.0000 0.53810  0.94080  0.89130  Biso   1.000  C
  H23      1.0000 0.58470  0.94210  0.87130  Biso   1.000  H
  C29      1.0000 0.55820  0.98080  0.94040  Biso   1.000  C
  H24      1.0000 0.61870  0.02150  0.94940  Biso   1.000  H
  C30      1.0000 0.48680  0.95980  0.97700  Biso   1.000  C
  O7       1.0000 0.34506  0.82382  0.69303  Biso   1.000  O
  C31      1.0000 0.37390  0.88660  0.59010  Biso   1.000  C
  H25      1.0000 0.31370  0.85820  0.60190  Biso   1.000  H
  C32      1.0000 0.39900  0.93360  0.54300  Biso   1.000  C
  H26      1.0000 0.35460  0.92930  0.51980  Biso   1.000  H
  C33      1.0000 0.40270  0.94080  0.60870  Biso   1.000  C
  H27      1.0000 0.35740  0.94210  0.62870  Biso   1.000  H
  C34      1.0000 0.42260  0.98080  0.55960  Biso   1.000  C
  H28      1.0000 0.40280  0.02150  0.55060  Biso   1.000  H
  C35      1.0000 0.47300  0.95980  0.52300  Biso   1.000  C
  O8       1.0000 0.47876  0.65494  0.69303  Biso   1.000  O
  C36      1.0000 0.51270  0.62610  0.59010  Biso   1.000  C
  H29      1.0000 0.54450  0.68630  0.60190  Biso   1.000  H
  C37      1.0000 0.53460  0.60100  0.54300  Biso   1.000  C
  H30      1.0000 0.57470  0.64540  0.51980  Biso   1.000  H
  C38      1.0000 0.53810  0.59730  0.60870  Biso   1.000  C
  H31      1.0000 0.58470  0.64260  0.62870  Biso   1.000  H
  C39      1.0000 0.55820  0.57740  0.55960  Biso   1.000  C
  H32      1.0000 0.61870  0.59720  0.55060  Biso   1.000  H
  C40      1.0000 0.48680  0.52700  0.52300  Biso   1.000  C
  O9       1.0000 0.17618  0.52124  0.69303  Biso   1.000  O
  C41      1.0000 0.11340  0.48730  0.59010  Biso   1.000  C
  H33      1.0000 0.14180  0.45550  0.60190  Biso   1.000  H
  C42      1.0000 0.06640  0.46540  0.54300  Biso   1.000  C
  H34      1.0000 0.07070  0.42530  0.51980  Biso   1.000  H
  C43      1.0000 0.05920  0.46190  0.60870  Biso   1.000  C
  H35      1.0000 0.05790  0.41530  0.62870  Biso   1.000  H
  C44      1.0000 0.01920  0.44180  0.55960  Biso   1.000  C
  H36      1.0000 0.97850  0.38130  0.55060  Biso   1.000  H
  C45      1.0000 0.04020  0.51320  0.52300  Biso   1.000  C
  O10      1.0000 0.65494  0.17618  0.19303  Biso   1.000  O
  C46      1.0000 0.62610  0.11340  0.09010  Biso   1.000  C
  H37      1.0000 0.68630  0.14180  0.10190  Biso   1.000  H
  C47      1.0000 0.60100  0.06640  0.04300  Biso   1.000  C
  H38      1.0000 0.64540  0.07070  0.01980  Biso   1.000  H
  C48      1.0000 0.59730  0.05920  0.10870  Biso   1.000  C
  H39      1.0000 0.64260  0.05790  0.12870  Biso   1.000  H
  C49      1.0000 0.57740  0.01920  0.05960  Biso   1.000  C
  H40      1.0000 0.59720  0.97850  0.05060  Biso   1.000  H
  C50      1.0000 0.52700  0.04020  0.02300  Biso   1.000  C
  O11      1.0000 0.52124  0.34506  0.19303  Biso   1.000  O
  C51      1.0000 0.48730  0.37390  0.09010  Biso   1.000  C
  H41      1.0000 0.45550  0.31370  0.10190  Biso   1.000  H
  C52      1.0000 0.46540  0.39900  0.04300  Biso   1.000  C
  H42      1.0000 0.42530  0.35460  0.01980  Biso   1.000  H
  C53      1.0000 0.46190  0.40270  0.10870  Biso   1.000  C
  H43      1.0000 0.41530  0.35740  0.12870  Biso   1.000  H
  C54      1.0000 0.44180  0.42260  0.05960  Biso   1.000  C
  H44      1.0000 0.38130  0.40280  0.05060  Biso   1.000  H
  C55      1.0000 0.51320  0.47300  0.02300  Biso   1.000  C
  O12      1.0000 0.82382  0.47876  0.19303  Biso   1.000  O
  C56      1.0000 0.88660  0.51270  0.09010  Biso   1.000  C
  H45      1.0000 0.85820  0.54450  0.10190  Biso   1.000  H
  C57      1.0000 0.93360  0.53460  0.04300  Biso   1.000  C
  H46      1.0000 0.92930  0.57470  0.01980  Biso   1.000  H
  C58      1.0000 0.94080  0.53810  0.10870  Biso   1.000  C
  H47      1.0000 0.94210  0.58470  0.12870  Biso   1.000  H
  C59      1.0000 0.98080  0.55820  0.05960  Biso   1.000  C
  H48      1.0000 0.02150  0.61870  0.05060  Biso   1.000  H
  C60      1.0000 0.95980  0.48680  0.02300  Biso   1.000  C
  O13      1.0000 0.17618  0.65494  0.69303  Biso   1.000  O
  C61      1.0000 0.11340  0.62610  0.59010  Biso   1.000  C
  H49      1.0000 0.14180  0.68630  0.60190  Biso   1.000  H
  C62      1.0000 0.06640  0.60100  0.54300  Biso   1.000  C
  H50      1.0000 0.07070  0.64540  0.51980  Biso   1.000  H
  C63      1.0000 0.05920  0.59730  0.60870  Biso   1.000  C
  H51      1.0000 0.05790  0.64260  0.62870  Biso   1.000  H
  C64      1.0000 0.01920  0.57740  0.55960  Biso   1.000  C
  H52      1.0000 0.97850  0.59720  0.55060  Biso   1.000  H
  C65      1.0000 0.04020  0.52700  0.52300  Biso   1.000  C
  O14      1.0000 0.34506  0.52124  0.69303  Biso   1.000  O
  C66      1.0000 0.37390  0.48730  0.59010  Biso   1.000  C
  H53      1.0000 0.31370  0.45550  0.60190  Biso   1.000  H
  C67      1.0000 0.39900  0.46540  0.54300  Biso   1.000  C
  H54      1.0000 0.35460  0.42530  0.51980  Biso   1.000  H
  C68      1.0000 0.40270  0.46190  0.60870  Biso   1.000  C
  H55      1.0000 0.35740  0.41530  0.62870  Biso   1.000  H
  C69      1.0000 0.42260  0.44180  0.55960  Biso   1.000  C
  H56      1.0000 0.40280  0.38130  0.55060  Biso   1.000  H
  C70      1.0000 0.47300  0.51320  0.52300  Biso   1.000  C
  O15      1.0000 0.47876  0.82382  0.69303  Biso   1.000  O
  C71      1.0000 0.51270  0.88660  0.59010  Biso   1.000  C
  H57      1.0000 0.54450  0.85820  0.60190  Biso   1.000  H
  C72      1.0000 0.53460  0.93360  0.54300  Biso   1.000  C
  H58      1.0000 0.57470  0.92930  0.51980  Biso   1.000  H
  C73      1.0000 0.53810  0.94080  0.60870  Biso   1.000  C
  H59      1.0000 0.58470  0.94210  0.62870  Biso   1.000  H
  C74      1.0000 0.55820  0.98080  0.55960  Biso   1.000  C
  H60      1.0000 0.61870  0.02150  0.55060  Biso   1.000  H
  C75      1.0000 0.48680  0.95980  0.52300  Biso   1.000  C
  O16      1.0000 0.82382  0.34506  0.19303  Biso   1.000  O
  C76      1.0000 0.88660  0.37390  0.09010  Biso   1.000  C
  H61      1.0000 0.85820  0.31370  0.10190  Biso   1.000  H
  C77      1.0000 0.93360  0.39900  0.04300  Biso   1.000  C
  H62      1.0000 0.92930  0.35460  0.01980  Biso   1.000  H
  C78      1.0000 0.94080  0.40270  0.10870  Biso   1.000  C
  H63      1.0000 0.94210  0.35740  0.12870  Biso   1.000  H
  C79      1.0000 0.98080  0.42260  0.05960  Biso   1.000  C
  H64      1.0000 0.02150  0.40280  0.05060  Biso   1.000  H
  C80      1.0000 0.95980  0.47300  0.02300  Biso   1.000  C
  O17      1.0000 0.65494  0.47876  0.19303  Biso   1.000  O
  C81      1.0000 0.62610  0.51270  0.09010  Biso   1.000  C
  H65      1.0000 0.68630  0.54450  0.10190  Biso   1.000  H
  C82      1.0000 0.60100  0.53460  0.04300  Biso   1.000  C
  H66      1.0000 0.64540  0.57470  0.01980  Biso   1.000  H
  C83      1.0000 0.59730  0.53810  0.10870  Biso   1.000  C
  H67      1.0000 0.64260  0.58470  0.12870  Biso   1.000  H
  C84      1.0000 0.57740  0.55820  0.05960  Biso   1.000  C
  H68      1.0000 0.59720  0.61870  0.05060  Biso   1.000  H
  C85      1.0000 0.52700  0.48680  0.02300  Biso   1.000  C
  O18      1.0000 0.52124  0.17618  0.19303  Biso   1.000  O
  C86      1.0000 0.48730  0.11340  0.09010  Biso   1.000  C
  H69      1.0000 0.45550  0.14180  0.10190  Biso   1.000  H
  C87      1.0000 0.46540  0.06640  0.04300  Biso   1.000  C
  H70      1.0000 0.42530  0.07070  0.01980  Biso   1.000  H
  C88      1.0000 0.46190  0.05920  0.10870  Biso   1.000  C
  H71      1.0000 0.41530  0.05790  0.12870  Biso   1.000  H
  C89      1.0000 0.44180  0.01920  0.05960  Biso   1.000  C
  H72      1.0000 0.38130  0.97850  0.05060  Biso   1.000  H
  C90      1.0000 0.51320  0.04020  0.02300  Biso   1.000  C
  O19      1.0000 0.65494  0.17618  0.30697  Biso   1.000  O
  C91      1.0000 0.62610  0.11340  0.40990  Biso   1.000  C
  H73      1.0000 0.68630  0.14180  0.39810  Biso   1.000  H
  C92      1.0000 0.60100  0.06640  0.45700  Biso   1.000  C
  H74      1.0000 0.64540  0.07070  0.48020  Biso   1.000  H
  C93      1.0000 0.59730  0.05920  0.39130  Biso   1.000  C
  H75      1.0000 0.64260  0.05790  0.37130  Biso   1.000  H
  C94      1.0000 0.57740  0.01920  0.44040  Biso   1.000  C
  H76      1.0000 0.59720  0.97850  0.44940  Biso   1.000  H
  C95      1.0000 0.52700  0.04020  0.47700  Biso   1.000  C
  O20      1.0000 0.52124  0.34506  0.30697  Biso   1.000  O
  C96      1.0000 0.48730  0.37390  0.40990  Biso   1.000  C
  H77      1.0000 0.45550  0.31370  0.39810  Biso   1.000  H
  C97      1.0000 0.46540  0.39900  0.45700  Biso   1.000  C
  H78      1.0000 0.42530  0.35460  0.48020  Biso   1.000  H
  C98      1.0000 0.46190  0.40270  0.39130  Biso   1.000  C
  H79      1.0000 0.41530  0.35740  0.37130  Biso   1.000  H
  C99      1.0000 0.44180  0.42260  0.44040  Biso   1.000  C
  H80      1.0000 0.38130  0.40280  0.44940  Biso   1.000  H
  C100     1.0000 0.51320  0.47300  0.47700  Biso   1.000  C
  O21      1.0000 0.82382  0.47876  0.30697  Biso   1.000  O
  C101     1.0000 0.88660  0.51270  0.40990  Biso   1.000  C
  H81      1.0000 0.85820  0.54450  0.39810  Biso   1.000  H
  C102     1.0000 0.93360  0.53460  0.45700  Biso   1.000  C
  H82      1.0000 0.92930  0.57470  0.48020  Biso   1.000  H
  C103     1.0000 0.94080  0.53810  0.39130  Biso   1.000  C
  H83      1.0000 0.94210  0.58470  0.37130  Biso   1.000  H
  C104     1.0000 0.98080  0.55820  0.44040  Biso   1.000  C
  H84      1.0000 0.02150  0.61870  0.44940  Biso   1.000  H
  C105     1.0000 0.95980  0.48680  0.47700  Biso   1.000  C
  O22      1.0000 0.34506  0.82382  0.80697  Biso   1.000  O
  C106     1.0000 0.37390  0.88660  0.90990  Biso   1.000  C
  H85      1.0000 0.31370  0.85820  0.89810  Biso   1.000  H
  C107     1.0000 0.39900  0.93360  0.95700  Biso   1.000  C
  H86      1.0000 0.35460  0.92930  0.98020  Biso   1.000  H
  C108     1.0000 0.40270  0.94080  0.89130  Biso   1.000  C
  H87      1.0000 0.35740  0.94210  0.87130  Biso   1.000  H
  C109     1.0000 0.42260  0.98080  0.94040  Biso   1.000  C
  H88      1.0000 0.40280  0.02150  0.94940  Biso   1.000  H
  C110     1.0000 0.47300  0.95980  0.97700  Biso   1.000  C
  O23      1.0000 0.47876  0.65494  0.80697  Biso   1.000  O
  C111     1.0000 0.51270  0.62610  0.90990  Biso   1.000  C
  H89      1.0000 0.54450  0.68630  0.89810  Biso   1.000  H
  C112     1.0000 0.53460  0.60100  0.95700  Biso   1.000  C
  H90      1.0000 0.57470  0.64540  0.98020  Biso   1.000  H
  C113     1.0000 0.53810  0.59730  0.89130  Biso   1.000  C
  H91      1.0000 0.58470  0.64260  0.87130  Biso   1.000  H
  C114     1.0000 0.55820  0.57740  0.94040  Biso   1.000  C
  H92      1.0000 0.61870  0.59720  0.94940  Biso   1.000  H
  C115     1.0000 0.48680  0.52700  0.97700  Biso   1.000  C
  O24      1.0000 0.17618  0.52124  0.80697  Biso   1.000  O
  C116     1.0000 0.11340  0.48730  0.90990  Biso   1.000  C
  H93      1.0000 0.14180  0.45550  0.89810  Biso   1.000  H
  C117     1.0000 0.06640  0.46540  0.95700  Biso   1.000  C
  H94      1.0000 0.07070  0.42530  0.98020  Biso   1.000  H
  C118     1.0000 0.05920  0.46190  0.89130  Biso   1.000  C
  H95      1.0000 0.05790  0.41530  0.87130  Biso   1.000  H
  C119     1.0000 0.01920  0.44180  0.94040  Biso   1.000  C
  H96      1.0000 0.97850  0.38130  0.94940  Biso   1.000  H
  C120     1.0000 0.04020  0.51320  0.97700  Biso   1.000  C
  Co1      1.0000 0.73611  0.26389  0.25000  Biso   1.000  Co
  N1       1.0000 0.80904  0.19096  0.25000  Biso   1.000  N
  C121     1.0000 0.90410  0.09590  0.25000  Biso   1.000  C
  C122     1.0000 0.95520  0.04480  0.25000  Biso   1.000  C
  Co2      1.0000 0.73611  0.47222  0.25000  Biso   1.000  Co
  N2       1.0000 0.80904  0.61808  0.25000  Biso   1.000  N
  C123     1.0000 0.90410  0.80820  0.25000  Biso   1.000  C
  C124     1.0000 0.95520  0.91040  0.25000  Biso   1.000  C
  Co3      1.0000 0.52778  0.26389  0.25000  Biso   1.000  Co
  N3       1.0000 0.38192  0.19096  0.25000  Biso   1.000  N
  C125     1.0000 0.19180  0.09590  0.25000  Biso   1.000  C
  C126     1.0000 0.08960  0.04480  0.25000  Biso   1.000  C
  Co4      1.0000 0.26389  0.73611  0.75000  Biso   1.000  Co
  N4       1.0000 0.19096  0.80904  0.75000  Biso   1.000  N
  C127     1.0000 0.09590  0.90410  0.75000  Biso   1.000  C
  C128     1.0000 0.04480  0.95520  0.75000  Biso   1.000  C
  Co5      1.0000 0.26389  0.52778  0.75000  Biso   1.000  Co
  N5       1.0000 0.19096  0.38192  0.75000  Biso   1.000  N
  C129     1.0000 0.09590  0.19180  0.75000  Biso   1.000  C
  C130     1.0000 0.04480  0.08960  0.75000  Biso   1.000  C
  Co6      1.0000 0.47222  0.73611  0.75000  Biso   1.000  Co
  N6       1.0000 0.61808  0.80904  0.75000  Biso   1.000  N
  C131     1.0000 0.80820  0.90410  0.75000  Biso   1.000  C
  C132     1.0000 0.91040  0.95520  0.75000  Biso   1.000  C
  O25      1.0000 0.66667  0.33333  0.25000  Biso   1.000  O
  O26      1.0000 0.33333  0.66667  0.75000  Biso   1.000  O
  N7       1.0000 0.04685  0.09370  0.25000  Biso   1.000  N
  N8       1.0000 0.90630  0.95315  0.25000  Biso   1.000  N
  N9       1.0000 0.04685  0.95315  0.25000  Biso   1.000  N
  N10      1.0000 0.95315  0.90630  0.75000  Biso   1.000  N
  N11      1.0000 0.09370  0.04685  0.75000  Biso   1.000  N
  N12      1.0000 0.95315  0.04685  0.75000  Biso   1.000  N
  C133     1.0000 0.84010  0.42005  0.32580  Biso   1.000  C
  C134     1.0000 0.88380  0.44190  0.38130  Biso   1.000  C
  C135     1.0000 0.98850  0.49425  0.46900  Biso   1.000  C
  C136     1.0000 0.89950  0.44975  0.37200  Biso   1.000  C
  C137     1.0000 0.57995  0.42005  0.32580  Biso   1.000  C
  C138     1.0000 0.55810  0.44190  0.38130  Biso   1.000  C
  C139     1.0000 0.50575  0.49425  0.46900  Biso   1.000  C
  C140     1.0000 0.55025  0.44975  0.37200  Biso   1.000  C
  C141     1.0000 0.57995  0.15990  0.32580  Biso   1.000  C
  C142     1.0000 0.55810  0.11620  0.38130  Biso   1.000  C
  C143     1.0000 0.50575  0.01150  0.46900  Biso   1.000  C
  C144     1.0000 0.55025  0.10050  0.37200  Biso   1.000  C
  C145     1.0000 0.15990  0.57995  0.82580  Biso   1.000  C
  C146     1.0000 0.11620  0.55810  0.88130  Biso   1.000  C
  C147     1.0000 0.01150  0.50575  0.96900  Biso   1.000  C
  C148     1.0000 0.10050  0.55025  0.87200  Biso   1.000  C
  C149     1.0000 0.42005  0.57995  0.82580  Biso   1.000  C
  C150     1.0000 0.44190  0.55810  0.88130  Biso   1.000  C
  C151     1.0000 0.49425  0.50575  0.96900  Biso   1.000  C
  C152     1.0000 0.44975  0.55025  0.87200  Biso   1.000  C
  C153     1.0000 0.42005  0.84010  0.82580  Biso   1.000  C
  C154     1.0000 0.44190  0.88380  0.88130  Biso   1.000  C
  C155     1.0000 0.49425  0.98850  0.96900  Biso   1.000  C
  C156     1.0000 0.44975  0.89950  0.87200  Biso   1.000  C
  C157     1.0000 0.42005  0.84010  0.67420  Biso   1.000  C
  C158     1.0000 0.44190  0.88380  0.61870  Biso   1.000  C
  C159     1.0000 0.49425  0.98850  0.53100  Biso   1.000  C
  C160     1.0000 0.44975  0.89950  0.62800  Biso   1.000  C
  C161     1.0000 0.42005  0.57995  0.67420  Biso   1.000  C
  C162     1.0000 0.44190  0.55810  0.61870  Biso   1.000  C
  C163     1.0000 0.49425  0.50575  0.53100  Biso   1.000  C
  C164     1.0000 0.44975  0.55025  0.62800  Biso   1.000  C
  C165     1.0000 0.15990  0.57995  0.67420  Biso   1.000  C
  C166     1.0000 0.11620  0.55810  0.61870  Biso   1.000  C
  C167     1.0000 0.01150  0.50575  0.53100  Biso   1.000  C
  C168     1.0000 0.10050  0.55025  0.62800  Biso   1.000  C
  C169     1.0000 0.57995  0.15990  0.17420  Biso   1.000  C
  C170     1.0000 0.55810  0.11620  0.11870  Biso   1.000  C
  C171     1.0000 0.50575  0.01150  0.03100  Biso   1.000  C
  C172     1.0000 0.55025  0.10050  0.12800  Biso   1.000  C
  C173     1.0000 0.57995  0.42005  0.17420  Biso   1.000  C
  C174     1.0000 0.55810  0.44190  0.11870  Biso   1.000  C
  C175     1.0000 0.50575  0.49425  0.03100  Biso   1.000  C
  C176     1.0000 0.55025  0.44975  0.12800  Biso   1.000  C
  C177     1.0000 0.84010  0.42005  0.17420  Biso   1.000  C
  C178     1.0000 0.88380  0.44190  0.11870  Biso   1.000  C
  C179     1.0000 0.98850  0.49425  0.03100  Biso   1.000  C
  C180     1.0000 0.89950  0.44975  0.12800  Biso   1.000  C
  C181     1.0000 0.90160  0.23590  0.25000  Biso   1.000  C
  H97      1.0000 0.93330  0.29970  0.25000  Biso   1.000  H
  C182     1.0000 0.95070  0.19070  0.25000  Biso   1.000  C
  H98      1.0000 0.01450  0.22350  0.25000  Biso   1.000  H
  C183     1.0000 0.76410  0.66570  0.25000  Biso   1.000  C
  H99      1.0000 0.70030  0.63360  0.25000  Biso   1.000  H
  C184     1.0000 0.80930  0.76000  0.25000  Biso   1.000  C
  H100     1.0000 0.77650  0.79100  0.25000  Biso   1.000  H
  C185     1.0000 0.33430  0.09840  0.25000  Biso   1.000  C
  H101     1.0000 0.36640  0.06670  0.25000  Biso   1.000  H
  C186     1.0000 0.24000  0.04930  0.25000  Biso   1.000  C
  H102     1.0000 0.20900  0.98550  0.25000  Biso   1.000  H
  C187     1.0000 0.09840  0.76410  0.75000  Biso   1.000  C
  H103     1.0000 0.06670  0.70030  0.75000  Biso   1.000  H
  C188     1.0000 0.04930  0.80930  0.75000  Biso   1.000  C
  H104     1.0000 0.98550  0.77650  0.75000  Biso   1.000  H
  C189     1.0000 0.23590  0.33430  0.75000  Biso   1.000  C
  H105     1.0000 0.29970  0.36640  0.75000  Biso   1.000  H
  C190     1.0000 0.19070  0.24000  0.75000  Biso   1.000  C
  H106     1.0000 0.22350  0.20900  0.75000  Biso   1.000  H
  C191     1.0000 0.66570  0.90160  0.75000  Biso   1.000  C
  H107     1.0000 0.63360  0.93330  0.75000  Biso   1.000  H
  C192     1.0000 0.76000  0.95070  0.75000  Biso   1.000  C
  H108     1.0000 0.79100  0.01450  0.75000  Biso   1.000  H
  C193     1.0000 0.23590  0.90160  0.75000  Biso   1.000  C
  H109     1.0000 0.29970  0.93330  0.75000  Biso   1.000  H
  C194     1.0000 0.19070  0.95070  0.75000  Biso   1.000  C
  H110     1.0000 0.22350  0.01450  0.75000  Biso   1.000  H
  C195     1.0000 0.66570  0.76410  0.75000  Biso   1.000  C
  H111     1.0000 0.63360  0.70030  0.75000  Biso   1.000  H
  C196     1.0000 0.76000  0.80930  0.75000  Biso   1.000  C
  H112     1.0000 0.79100  0.77650  0.75000  Biso   1.000  H
  C197     1.0000 0.09840  0.33430  0.75000  Biso   1.000  C
  H113     1.0000 0.06670  0.36640  0.75000  Biso   1.000  H
  C198     1.0000 0.04930  0.24000  0.75000  Biso   1.000  C
  H114     1.0000 0.98550  0.20900  0.75000  Biso   1.000  H
  C199     1.0000 0.76410  0.09840  0.25000  Biso   1.000  C
  H115     1.0000 0.70030  0.06670  0.25000  Biso   1.000  H
  C200     1.0000 0.80930  0.04930  0.25000  Biso   1.000  C
  H116     1.0000 0.77650  0.98550  0.25000  Biso   1.000  H
  C201     1.0000 0.33430  0.23590  0.25000  Biso   1.000  C
  H117     1.0000 0.36640  0.29970  0.25000  Biso   1.000  H
  C202     1.0000 0.24000  0.19070  0.25000  Biso   1.000  C
  H118     1.0000 0.20900  0.22350  0.25000  Biso   1.000  H
  C203     1.0000 0.90160  0.66570  0.25000  Biso   1.000  C
  H119     1.0000 0.93330  0.63360  0.25000  Biso   1.000  H
  C204     1.0000 0.95070  0.76000  0.25000  Biso   1.000  C
  H120     1.0000 0.01450  0.79100  0.25000  Biso   1.000  H
