data_image0
_cell_length_a       12.4591
_cell_length_b       19.3631
_cell_length_c       25.259
_cell_angle_alpha    90
_cell_angle_beta     100.66
_cell_angle_gamma    90

_symmetry_space_group_name_H-M    "P 1"
_symmetry_int_tables_number       1

loop_
  _symmetry_equiv_pos_as_xyz
  'x, y, z'

loop_
  _atom_site_label
  _atom_site_occupancy
  _atom_site_fract_x
  _atom_site_fract_y
  _atom_site_fract_z
  _atom_site_thermal_displace_type
  _atom_site_B_iso_or_equiv
  _atom_site_type_symbol
  U1       1.0000 0.80382  0.11577  0.36220  Biso   1.000  U
  U2       1.0000 0.90338  0.08740  0.22769  Biso   1.000  U
  U3       1.0000 0.60535  0.14415  0.22740  Biso   1.000  U
  U4       1.0000 0.14969  0.09145  0.34846  Biso   1.000  U
  U5       1.0000 0.24768  0.11497  0.21356  Biso   1.000  U
  U6       1.0000 0.44584  0.14368  0.34700  Biso   1.000  U
  O1       1.0000 0.93370  0.08750  0.43980  Biso   1.000  O
  O2       1.0000 0.10630  0.08530  0.43410  Biso   1.000  O
  O3       1.0000 0.85610  0.19220  0.74360  Biso   1.000  O
  O4       1.0000 0.85990  0.07920  0.75620  Biso   1.000  O
  O5       1.0000 0.73600  0.12140  0.16690  Biso   1.000  O
  O6       1.0000 0.72000  0.16550  0.08300  Biso   1.000  O
  O7       1.0000 0.50150  0.84920  0.85890  Biso   1.000  O
  O8       1.0000 0.67880  0.85410  0.86300  Biso   1.000  O
  O9       1.0000 0.95400  0.08320  0.14310  Biso   1.000  O
  O10      1.0000 0.12590  0.06580  0.13900  Biso   1.000  O
  O11      1.0000 0.23680  0.33820  0.93770  Biso   1.000  O
  O12      1.0000 0.06040  0.35720  0.93170  Biso   1.000  O
  O13      1.0000 0.76890  0.11230  0.27180  Biso   1.000  O
  O14      1.0000 0.27660  0.12420  0.30240  Biso   1.000  O
  O15      1.0000 0.95720  0.06250  0.32650  Biso   1.000  O
  H1       1.0000 0.96260  0.01830  0.33050  Biso   1.000  H
  O16      1.0000 0.09590  0.06100  0.25110  Biso   1.000  O
  H2       1.0000 0.08280  0.01450  0.25610  Biso   1.000  H
  O17      1.0000 0.62460  0.16590  0.32590  Biso   1.000  O
  H3       1.0000 0.62130  0.21130  0.31460  Biso   1.000  H
  O18      1.0000 0.42860  0.17070  0.24980  Biso   1.000  O
  H4       1.0000 0.42440  0.21820  0.23640  Biso   1.000  H
  C1       1.0000 0.03250  0.09020  0.46030  Biso   1.000  C
  C2       1.0000 0.06800  0.09810  0.51930  Biso   1.000  C
  H5       1.0000 0.13040  0.13060  0.52570  Biso   1.000  H
  H6       1.0000 0.09540  0.05280  0.53420  Biso   1.000  H
  C3       1.0000 0.98220  0.12380  0.55140  Biso   1.000  C
  H7       1.0000 0.95880  0.17100  0.53940  Biso   1.000  H
  H8       1.0000 0.91730  0.09330  0.54400  Biso   1.000  H
  C4       1.0000 0.02670  0.12460  0.61170  Biso   1.000  C
  H9       1.0000 0.05540  0.07810  0.62280  Biso   1.000  H
  H10      1.0000 0.08860  0.15740  0.61900  Biso   1.000  H
  C5       1.0000 0.94330  0.14450  0.64540  Biso   1.000  C
  H11      1.0000 0.87400  0.11980  0.63200  Biso   1.000  H
  H12      1.0000 0.92870  0.19470  0.64170  Biso   1.000  H
  C6       1.0000 0.98310  0.12700  0.70490  Biso   1.000  C
  H13      1.0000 0.01180  0.07920  0.70780  Biso   1.000  H
  H14      1.0000 0.04380  0.15840  0.72000  Biso   1.000  H
  C7       1.0000 0.89380  0.13320  0.73780  Biso   1.000  C
  C8       1.0000 0.71730  0.11660  0.11360  Biso   1.000  C
  C9       1.0000 0.69180  0.04390  0.09280  Biso   1.000  C
  H15      1.0000 0.62600  0.02750  0.10580  Biso   1.000  H
  H16      1.0000 0.75320  0.01340  0.10870  Biso   1.000  H
  C10      1.0000 0.67190  0.03590  0.03030  Biso   1.000  C
  H17      1.0000 0.60590  0.06210  0.01380  Biso   1.000  H
  H18      1.0000 0.73500  0.05480  0.01620  Biso   1.000  H
  C11      1.0000 0.65710  0.95970  0.01580  Biso   1.000  C
  H19      1.0000 0.72340  0.93440  0.03310  Biso   1.000  H
  H20      1.0000 0.59500  0.94150  0.03110  Biso   1.000  H
  C12      1.0000 0.63660  0.94480  0.95680  Biso   1.000  C
  H21      1.0000 0.70150  0.95870  0.94190  Biso   1.000  H
  H22      1.0000 0.57390  0.97290  0.93880  Biso   1.000  H
  C13      1.0000 0.61280  0.86950  0.94430  Biso   1.000  C
  H23      1.0000 0.67440  0.84100  0.96270  Biso   1.000  H
  H24      1.0000 0.54630  0.85560  0.95780  Biso   1.000  H
  C14      1.0000 0.59620  0.85730  0.88480  Biso   1.000  C
  C15      1.0000 0.02810  0.07090  0.11710  Biso   1.000  C
  C16      1.0000 0.99270  0.05640  0.05850  Biso   1.000  C
  H25      1.0000 0.92400  0.02940  0.05270  Biso   1.000  H
  H26      1.0000 0.04920  0.02860  0.04550  Biso   1.000  H
  C17      1.0000 0.97500  0.12270  0.02730  Biso   1.000  C
  H27      1.0000 0.91380  0.14770  0.03870  Biso   1.000  H
  H28      1.0000 0.95190  0.11110  0.98860  Biso   1.000  H
  C18      1.0000 0.07330  0.17190  0.03280  Biso   1.000  C
  H29      1.0000 0.08420  0.19270  0.06920  Biso   1.000  H
  H30      1.0000 0.13900  0.14390  0.03090  Biso   1.000  H
  C19      1.0000 0.06780  0.22740  0.99390  Biso   1.000  C
  H31      1.0000 0.99620  0.25030  0.99230  Biso   1.000  H
  H32      1.0000 0.06610  0.20560  0.95830  Biso   1.000  H
  C20      1.0000 0.15230  0.28390  0.99930  Biso   1.000  C
  H33      1.0000 0.14540  0.31210  0.03120  Biso   1.000  H
  H34      1.0000 0.22540  0.26200  0.00680  Biso   1.000  H
  C21      1.0000 0.14850  0.33130  0.95270  Biso   1.000  C
  O19      1.0000 0.32310  0.11520  0.41360  Biso   1.000  O
  O20      1.0000 0.30510  0.18630  0.47870  Biso   1.000  O
  O21      1.0000 0.67690  0.87900  0.58970  Biso   1.000  O
  O22      1.0000 0.65760  0.83210  0.50930  Biso   1.000  O
  C22      1.0000 0.32800  0.12760  0.46170  Biso   1.000  C
  C23      1.0000 0.38200  0.07670  0.50460  Biso   1.000  C
  H35      1.0000 0.46140  0.08570  0.51430  Biso   1.000  H
  H36      1.0000 0.34980  0.08290  0.53730  Biso   1.000  H
  C24      1.0000 0.36210  0.00420  0.48420  Biso   1.000  C
  H37      1.0000 0.33670  0.97510  0.51170  Biso   1.000  H
  H38      1.0000 0.30530  0.00380  0.45110  Biso   1.000  H
  C25      1.0000 0.46880  0.97530  0.47190  Biso   1.000  C
  H39      1.0000 0.48610  0.99750  0.43920  Biso   1.000  H
  H40      1.0000 0.46310  0.92480  0.46580  Biso   1.000  H
  C26      1.0000 0.55760  0.99130  0.52050  Biso   1.000  C
  H41      1.0000 0.53550  0.97420  0.55390  Biso   1.000  H
  H42      1.0000 0.56920  0.04180  0.52390  Biso   1.000  H
  C27      1.0000 0.66090  0.95490  0.51330  Biso   1.000  C
  H43      1.0000 0.66320  0.95160  0.47440  Biso   1.000  H
  H44      1.0000 0.72540  0.98140  0.53120  Biso   1.000  H
  C28      1.0000 0.66100  0.88340  0.53930  Biso   1.000  C
  U7       1.0000 0.69618  0.61577  0.13780  Biso   1.000  U
  U8       1.0000 0.59662  0.58740  0.27231  Biso   1.000  U
  U9       1.0000 0.89465  0.64415  0.27260  Biso   1.000  U
  U10      1.0000 0.35031  0.59145  0.15154  Biso   1.000  U
  U11      1.0000 0.25232  0.61497  0.28644  Biso   1.000  U
  U12      1.0000 0.05416  0.64368  0.15300  Biso   1.000  U
  O23      1.0000 0.56630  0.58750  0.06020  Biso   1.000  O
  O24      1.0000 0.39370  0.58530  0.06590  Biso   1.000  O
  O25      1.0000 0.64390  0.69220  0.75640  Biso   1.000  O
  O26      1.0000 0.64010  0.57920  0.74380  Biso   1.000  O
  O27      1.0000 0.76400  0.62140  0.33310  Biso   1.000  O
  O28      1.0000 0.78000  0.66550  0.41700  Biso   1.000  O
  O29      1.0000 0.99850  0.34920  0.64110  Biso   1.000  O
  O30      1.0000 0.82120  0.35410  0.63700  Biso   1.000  O
  O31      1.0000 0.54600  0.58320  0.35690  Biso   1.000  O
  O32      1.0000 0.37410  0.56580  0.36100  Biso   1.000  O
  O33      1.0000 0.26320  0.83820  0.56230  Biso   1.000  O
  O34      1.0000 0.43960  0.85720  0.56830  Biso   1.000  O
  O35      1.0000 0.73110  0.61230  0.22820  Biso   1.000  O
  O36      1.0000 0.22340  0.62420  0.19760  Biso   1.000  O
  O37      1.0000 0.54280  0.56250  0.17350  Biso   1.000  O
  H45      1.0000 0.53740  0.51830  0.16950  Biso   1.000  H
  O38      1.0000 0.40410  0.56100  0.24890  Biso   1.000  O
  H46      1.0000 0.41720  0.51450  0.24390  Biso   1.000  H
  O39      1.0000 0.87540  0.66590  0.17410  Biso   1.000  O
  H47      1.0000 0.87870  0.71130  0.18540  Biso   1.000  H
  O40      1.0000 0.07140  0.67070  0.25020  Biso   1.000  O
  H48      1.0000 0.07560  0.71820  0.26360  Biso   1.000  H
  C29      1.0000 0.46750  0.59020  0.03970  Biso   1.000  C
  C30      1.0000 0.43200  0.59810  0.98070  Biso   1.000  C
  H49      1.0000 0.36960  0.63060  0.97430  Biso   1.000  H
  H50      1.0000 0.40460  0.55280  0.96580  Biso   1.000  H
  C31      1.0000 0.51780  0.62380  0.94860  Biso   1.000  C
  H51      1.0000 0.54120  0.67100  0.96060  Biso   1.000  H
  H52      1.0000 0.58270  0.59330  0.95600  Biso   1.000  H
  C32      1.0000 0.47330  0.62460  0.88830  Biso   1.000  C
  H53      1.0000 0.44460  0.57810  0.87720  Biso   1.000  H
  H54      1.0000 0.41140  0.65740  0.88100  Biso   1.000  H
  C33      1.0000 0.55670  0.64450  0.85460  Biso   1.000  C
  H55      1.0000 0.62600  0.61980  0.86800  Biso   1.000  H
  H56      1.0000 0.57130  0.69470  0.85830  Biso   1.000  H
  C34      1.0000 0.51690  0.62700  0.79510  Biso   1.000  C
  H57      1.0000 0.48820  0.57920  0.79220  Biso   1.000  H
  H58      1.0000 0.45620  0.65840  0.78000  Biso   1.000  H
  C35      1.0000 0.60620  0.63320  0.76220  Biso   1.000  C
  C36      1.0000 0.78270  0.61660  0.38640  Biso   1.000  C
  C37      1.0000 0.80820  0.54390  0.40720  Biso   1.000  C
  H59      1.0000 0.87400  0.52750  0.39420  Biso   1.000  H
  H60      1.0000 0.74680  0.51340  0.39130  Biso   1.000  H
  C38      1.0000 0.82810  0.53590  0.46970  Biso   1.000  C
  H61      1.0000 0.89410  0.56210  0.48620  Biso   1.000  H
  H62      1.0000 0.76500  0.55480  0.48380  Biso   1.000  H
  C39      1.0000 0.84290  0.45970  0.48420  Biso   1.000  C
  H63      1.0000 0.77660  0.43440  0.46690  Biso   1.000  H
  H64      1.0000 0.90500  0.44150  0.46890  Biso   1.000  H
  C40      1.0000 0.86340  0.44480  0.54320  Biso   1.000  C
  H65      1.0000 0.79850  0.45870  0.55810  Biso   1.000  H
  H66      1.0000 0.92610  0.47290  0.56120  Biso   1.000  H
  C41      1.0000 0.88720  0.36950  0.55570  Biso   1.000  C
  H67      1.0000 0.82560  0.34100  0.53730  Biso   1.000  H
  H68      1.0000 0.95370  0.35560  0.54220  Biso   1.000  H
  C42      1.0000 0.90380  0.35730  0.61520  Biso   1.000  C
  C43      1.0000 0.47190  0.57090  0.38290  Biso   1.000  C
  C44      1.0000 0.50730  0.55640  0.44150  Biso   1.000  C
  H69      1.0000 0.57600  0.52940  0.44730  Biso   1.000  H
  H70      1.0000 0.45080  0.52860  0.45450  Biso   1.000  H
  C45      1.0000 0.52500  0.62270  0.47270  Biso   1.000  C
  H71      1.0000 0.58620  0.64770  0.46130  Biso   1.000  H
  H72      1.0000 0.54810  0.61110  0.51140  Biso   1.000  H
  C46      1.0000 0.42670  0.67190  0.46720  Biso   1.000  C
  H73      1.0000 0.41580  0.69270  0.43080  Biso   1.000  H
  H74      1.0000 0.36100  0.64390  0.46910  Biso   1.000  H
  C47      1.0000 0.43220  0.72740  0.50610  Biso   1.000  C
  H75      1.0000 0.50380  0.75030  0.50770  Biso   1.000  H
  H76      1.0000 0.43390  0.70560  0.54170  Biso   1.000  H
  C48      1.0000 0.34770  0.78390  0.50070  Biso   1.000  C
  H77      1.0000 0.35460  0.81210  0.46880  Biso   1.000  H
  H78      1.0000 0.27460  0.76200  0.49320  Biso   1.000  H
  C49      1.0000 0.35150  0.83130  0.54730  Biso   1.000  C
  O41      1.0000 0.17690  0.61520  0.08640  Biso   1.000  O
  O42      1.0000 0.19490  0.68630  0.02130  Biso   1.000  O
  O43      1.0000 0.82310  0.37900  0.91030  Biso   1.000  O
  O44      1.0000 0.84240  0.33210  0.99070  Biso   1.000  O
  C50      1.0000 0.17200  0.62760  0.03830  Biso   1.000  C
  C51      1.0000 0.11800  0.57670  0.99540  Biso   1.000  C
  H79      1.0000 0.03860  0.58570  0.98570  Biso   1.000  H
  H80      1.0000 0.15020  0.58290  0.96270  Biso   1.000  H
  C52      1.0000 0.13790  0.50420  0.01580  Biso   1.000  C
  H81      1.0000 0.16330  0.47510  0.98830  Biso   1.000  H
  H82      1.0000 0.19470  0.50380  0.04890  Biso   1.000  H
  C53      1.0000 0.03120  0.47530  0.02810  Biso   1.000  C
  H83      1.0000 0.01390  0.49750  0.06080  Biso   1.000  H
  H84      1.0000 0.03690  0.42480  0.03420  Biso   1.000  H
  C54      1.0000 0.94240  0.49130  0.97950  Biso   1.000  C
  H85      1.0000 0.96450  0.47420  0.94610  Biso   1.000  H
  H86      1.0000 0.93080  0.54180  0.97610  Biso   1.000  H
  C55      1.0000 0.83910  0.45490  0.98670  Biso   1.000  C
  H87      1.0000 0.83680  0.45160  0.02560  Biso   1.000  H
  H88      1.0000 0.77460  0.48140  0.96880  Biso   1.000  H
  C56      1.0000 0.83900  0.38340  0.96070  Biso   1.000  C
  U13      1.0000 0.19618  0.88423  0.63780  Biso   1.000  U
  U14      1.0000 0.09662  0.91260  0.77231  Biso   1.000  U
  U15      1.0000 0.39465  0.85585  0.77260  Biso   1.000  U
  U16      1.0000 0.85031  0.90855  0.65154  Biso   1.000  U
  U17      1.0000 0.75232  0.88503  0.78644  Biso   1.000  U
  U18      1.0000 0.55416  0.85632  0.65300  Biso   1.000  U
  O45      1.0000 0.06630  0.91250  0.56020  Biso   1.000  O
  O46      1.0000 0.89370  0.91470  0.56590  Biso   1.000  O
  O47      1.0000 0.14390  0.80780  0.25640  Biso   1.000  O
  O48      1.0000 0.14010  0.92080  0.24380  Biso   1.000  O
  O49      1.0000 0.26400  0.87860  0.83310  Biso   1.000  O
  O50      1.0000 0.28000  0.83450  0.91700  Biso   1.000  O
  O51      1.0000 0.49850  0.15080  0.14110  Biso   1.000  O
  O52      1.0000 0.32120  0.14590  0.13700  Biso   1.000  O
  O53      1.0000 0.04600  0.91680  0.85690  Biso   1.000  O
  O54      1.0000 0.87410  0.93420  0.86100  Biso   1.000  O
  O55      1.0000 0.76320  0.66180  0.06230  Biso   1.000  O
  O56      1.0000 0.93960  0.64280  0.06830  Biso   1.000  O
  O57      1.0000 0.23110  0.88770  0.72820  Biso   1.000  O
  O58      1.0000 0.72340  0.87580  0.69760  Biso   1.000  O
  O59      1.0000 0.04280  0.93750  0.67350  Biso   1.000  O
  H89      1.0000 0.03740  0.98170  0.66950  Biso   1.000  H
  O60      1.0000 0.90410  0.93900  0.74890  Biso   1.000  O
  H90      1.0000 0.91720  0.98550  0.74390  Biso   1.000  H
  O61      1.0000 0.37540  0.83410  0.67410  Biso   1.000  O
  H91      1.0000 0.37870  0.78870  0.68540  Biso   1.000  H
  O62      1.0000 0.57140  0.82930  0.75020  Biso   1.000  O
  H92      1.0000 0.57560  0.78180  0.76360  Biso   1.000  H
  C57      1.0000 0.96750  0.90980  0.53970  Biso   1.000  C
  C58      1.0000 0.93200  0.90190  0.48070  Biso   1.000  C
  H93      1.0000 0.86960  0.86940  0.47430  Biso   1.000  H
  H94      1.0000 0.90460  0.94720  0.46580  Biso   1.000  H
  C59      1.0000 0.01780  0.87620  0.44860  Biso   1.000  C
  H95      1.0000 0.04120  0.82900  0.46060  Biso   1.000  H
  H96      1.0000 0.08270  0.90670  0.45600  Biso   1.000  H
  C60      1.0000 0.97330  0.87540  0.38830  Biso   1.000  C
  H97      1.0000 0.94460  0.92190  0.37720  Biso   1.000  H
  H98      1.0000 0.91140  0.84260  0.38100  Biso   1.000  H
  C61      1.0000 0.05670  0.85550  0.35460  Biso   1.000  C
  H99      1.0000 0.12600  0.88020  0.36800  Biso   1.000  H
  H100     1.0000 0.07130  0.80530  0.35830  Biso   1.000  H
  C62      1.0000 0.01690  0.87300  0.29510  Biso   1.000  C
  H101     1.0000 0.98820  0.92080  0.29220  Biso   1.000  H
  H102     1.0000 0.95620  0.84160  0.28000  Biso   1.000  H
  C63      1.0000 0.10620  0.86680  0.26220  Biso   1.000  C
  C64      1.0000 0.28270  0.88340  0.88640  Biso   1.000  C
  C65      1.0000 0.30820  0.95610  0.90720  Biso   1.000  C
  H103     1.0000 0.37400  0.97250  0.89420  Biso   1.000  H
  H104     1.0000 0.24680  0.98660  0.89130  Biso   1.000  H
  C66      1.0000 0.32810  0.96410  0.96970  Biso   1.000  C
  H105     1.0000 0.39410  0.93790  0.98620  Biso   1.000  H
  H106     1.0000 0.26500  0.94520  0.98380  Biso   1.000  H
  C67      1.0000 0.34290  0.04030  0.98420  Biso   1.000  C
  H107     1.0000 0.27660  0.06560  0.96690  Biso   1.000  H
  H108     1.0000 0.40500  0.05850  0.96890  Biso   1.000  H
  C68      1.0000 0.36340  0.05520  0.04320  Biso   1.000  C
  H109     1.0000 0.29850  0.04130  0.05810  Biso   1.000  H
  H110     1.0000 0.42610  0.02710  0.06120  Biso   1.000  H
  C69      1.0000 0.38720  0.13050  0.05570  Biso   1.000  C
  H111     1.0000 0.32560  0.15900  0.03730  Biso   1.000  H
  H112     1.0000 0.45370  0.14440  0.04220  Biso   1.000  H
  C70      1.0000 0.40380  0.14270  0.11520  Biso   1.000  C
  C71      1.0000 0.97190  0.92910  0.88290  Biso   1.000  C
  C72      1.0000 0.00730  0.94360  0.94150  Biso   1.000  C
  H113     1.0000 0.07600  0.97060  0.94730  Biso   1.000  H
  H114     1.0000 0.95080  0.97140  0.95450  Biso   1.000  H
  C73      1.0000 0.02500  0.87730  0.97270  Biso   1.000  C
  H115     1.0000 0.08620  0.85230  0.96130  Biso   1.000  H
  H116     1.0000 0.04810  0.88890  0.01140  Biso   1.000  H
  C74      1.0000 0.92670  0.82810  0.96720  Biso   1.000  C
  H117     1.0000 0.91580  0.80730  0.93080  Biso   1.000  H
  H118     1.0000 0.86100  0.85610  0.96910  Biso   1.000  H
  C75      1.0000 0.93220  0.77260  0.00610  Biso   1.000  C
  H119     1.0000 0.00380  0.74970  0.00770  Biso   1.000  H
  H120     1.0000 0.93390  0.79440  0.04170  Biso   1.000  H
  C76      1.0000 0.84770  0.71610  0.00070  Biso   1.000  C
  H121     1.0000 0.85460  0.68790  0.96880  Biso   1.000  H
  H122     1.0000 0.77460  0.73800  0.99320  Biso   1.000  H
  C77      1.0000 0.85150  0.66870  0.04730  Biso   1.000  C
  O63      1.0000 0.67690  0.88480  0.58640  Biso   1.000  O
  O64      1.0000 0.69490  0.81370  0.52130  Biso   1.000  O
  O65      1.0000 0.32310  0.12100  0.41030  Biso   1.000  O
  O66      1.0000 0.34240  0.16790  0.49070  Biso   1.000  O
  C78      1.0000 0.67200  0.87240  0.53830  Biso   1.000  C
  C79      1.0000 0.61800  0.92330  0.49540  Biso   1.000  C
  H123     1.0000 0.53860  0.91430  0.48570  Biso   1.000  H
  H124     1.0000 0.65020  0.91710  0.46270  Biso   1.000  H
  C80      1.0000 0.63790  0.99580  0.51580  Biso   1.000  C
  H125     1.0000 0.66330  0.02490  0.48830  Biso   1.000  H
  H126     1.0000 0.69470  0.99620  0.54890  Biso   1.000  H
  C81      1.0000 0.53120  0.02470  0.52810  Biso   1.000  C
  H127     1.0000 0.51390  0.00250  0.56080  Biso   1.000  H
  H128     1.0000 0.53690  0.07520  0.53420  Biso   1.000  H
  C82      1.0000 0.44240  0.00870  0.47950  Biso   1.000  C
  H129     1.0000 0.46450  0.02580  0.44610  Biso   1.000  H
  H130     1.0000 0.43080  0.95820  0.47610  Biso   1.000  H
  C83      1.0000 0.33910  0.04510  0.48670  Biso   1.000  C
  H131     1.0000 0.33680  0.04840  0.52560  Biso   1.000  H
  H132     1.0000 0.27460  0.01860  0.46880  Biso   1.000  H
  C84      1.0000 0.33900  0.11660  0.46070  Biso   1.000  C
  U19      1.0000 0.30382  0.38423  0.86220  Biso   1.000  U
  U20      1.0000 0.40338  0.41260  0.72769  Biso   1.000  U
  U21      1.0000 0.10535  0.35585  0.72740  Biso   1.000  U
  U22      1.0000 0.64969  0.40855  0.84846  Biso   1.000  U
  U23      1.0000 0.74768  0.38503  0.71356  Biso   1.000  U
  U24      1.0000 0.94584  0.35632  0.84700  Biso   1.000  U
  O67      1.0000 0.43370  0.41250  0.93980  Biso   1.000  O
  O68      1.0000 0.60630  0.41470  0.93410  Biso   1.000  O
  O69      1.0000 0.35610  0.30780  0.24360  Biso   1.000  O
  O70      1.0000 0.35990  0.42080  0.25620  Biso   1.000  O
  O71      1.0000 0.23600  0.37860  0.66690  Biso   1.000  O
  O72      1.0000 0.22000  0.33450  0.58300  Biso   1.000  O
  O73      1.0000 0.00150  0.65080  0.35890  Biso   1.000  O
  O74      1.0000 0.17880  0.64590  0.36300  Biso   1.000  O
  O75      1.0000 0.45400  0.41680  0.64310  Biso   1.000  O
  O76      1.0000 0.62590  0.43420  0.63900  Biso   1.000  O
  O77      1.0000 0.73680  0.16180  0.43770  Biso   1.000  O
  O78      1.0000 0.56040  0.14280  0.43170  Biso   1.000  O
  O79      1.0000 0.26890  0.38770  0.77180  Biso   1.000  O
  O80      1.0000 0.77660  0.37580  0.80240  Biso   1.000  O
  O81      1.0000 0.45720  0.43750  0.82650  Biso   1.000  O
  H133     1.0000 0.46260  0.48170  0.83050  Biso   1.000  H
  O82      1.0000 0.59590  0.43900  0.75110  Biso   1.000  O
  H134     1.0000 0.58280  0.48550  0.75610  Biso   1.000  H
  O83      1.0000 0.12460  0.33410  0.82590  Biso   1.000  O
  H135     1.0000 0.12130  0.28870  0.81460  Biso   1.000  H
  O84      1.0000 0.92860  0.32930  0.74980  Biso   1.000  O
  H136     1.0000 0.92440  0.28180  0.73640  Biso   1.000  H
  C85      1.0000 0.53250  0.40980  0.96030  Biso   1.000  C
  C86      1.0000 0.56800  0.40190  0.01930  Biso   1.000  C
  H137     1.0000 0.63040  0.36940  0.02570  Biso   1.000  H
  H138     1.0000 0.59540  0.44720  0.03420  Biso   1.000  H
  C87      1.0000 0.48220  0.37620  0.05140  Biso   1.000  C
  H139     1.0000 0.45880  0.32900  0.03940  Biso   1.000  H
  H140     1.0000 0.41730  0.40670  0.04400  Biso   1.000  H
  C88      1.0000 0.52670  0.37540  0.11170  Biso   1.000  C
  H141     1.0000 0.55540  0.42190  0.12280  Biso   1.000  H
  H142     1.0000 0.58860  0.34260  0.11900  Biso   1.000  H
  C89      1.0000 0.44330  0.35550  0.14540  Biso   1.000  C
  H143     1.0000 0.37400  0.38020  0.13200  Biso   1.000  H
  H144     1.0000 0.42870  0.30530  0.14170  Biso   1.000  H
  C90      1.0000 0.48310  0.37300  0.20490  Biso   1.000  C
  H145     1.0000 0.51180  0.42080  0.20780  Biso   1.000  H
  H146     1.0000 0.54380  0.34160  0.22000  Biso   1.000  H
  C91      1.0000 0.39380  0.36680  0.23780  Biso   1.000  C
  C92      1.0000 0.21730  0.38340  0.61360  Biso   1.000  C
  C93      1.0000 0.19180  0.45610  0.59280  Biso   1.000  C
  H147     1.0000 0.12600  0.47250  0.60580  Biso   1.000  H
  H148     1.0000 0.25320  0.48660  0.60870  Biso   1.000  H
  C94      1.0000 0.17190  0.46410  0.53030  Biso   1.000  C
  H149     1.0000 0.10590  0.43790  0.51380  Biso   1.000  H
  H150     1.0000 0.23500  0.44520  0.51620  Biso   1.000  H
  C95      1.0000 0.15710  0.54030  0.51580  Biso   1.000  C
  H151     1.0000 0.22340  0.56560  0.53310  Biso   1.000  H
  H152     1.0000 0.09500  0.55850  0.53110  Biso   1.000  H
  C96      1.0000 0.13660  0.55520  0.45680  Biso   1.000  C
  H153     1.0000 0.20150  0.54130  0.44190  Biso   1.000  H
  H154     1.0000 0.07390  0.52710  0.43880  Biso   1.000  H
  C97      1.0000 0.11280  0.63050  0.44430  Biso   1.000  C
  H155     1.0000 0.17440  0.65900  0.46270  Biso   1.000  H
  H156     1.0000 0.04630  0.64440  0.45780  Biso   1.000  H
  C98      1.0000 0.09620  0.64270  0.38480  Biso   1.000  C
  C99      1.0000 0.52810  0.42910  0.61710  Biso   1.000  C
  C100     1.0000 0.49270  0.44360  0.55850  Biso   1.000  C
  H157     1.0000 0.42400  0.47060  0.55270  Biso   1.000  H
  H158     1.0000 0.54920  0.47140  0.54550  Biso   1.000  H
  C101     1.0000 0.47500  0.37730  0.52730  Biso   1.000  C
  H159     1.0000 0.41380  0.35230  0.53870  Biso   1.000  H
  H160     1.0000 0.45190  0.38890  0.48860  Biso   1.000  H
  C102     1.0000 0.57330  0.32810  0.53280  Biso   1.000  C
  H161     1.0000 0.58420  0.30730  0.56920  Biso   1.000  H
  H162     1.0000 0.63900  0.35610  0.53090  Biso   1.000  H
  C103     1.0000 0.56780  0.27260  0.49390  Biso   1.000  C
  H163     1.0000 0.49620  0.24970  0.49230  Biso   1.000  H
  H164     1.0000 0.56610  0.29440  0.45830  Biso   1.000  H
  C104     1.0000 0.65230  0.21610  0.49930  Biso   1.000  C
  H165     1.0000 0.64540  0.18790  0.53120  Biso   1.000  H
  H166     1.0000 0.72540  0.23800  0.50680  Biso   1.000  H
  C105     1.0000 0.64850  0.16870  0.45270  Biso   1.000  C
  O85      1.0000 0.82310  0.38480  0.91360  Biso   1.000  O
  O86      1.0000 0.80510  0.31370  0.97870  Biso   1.000  O
  O87      1.0000 0.17690  0.62100  0.08970  Biso   1.000  O
  O88      1.0000 0.15760  0.66790  0.00930  Biso   1.000  O
  C106     1.0000 0.82800  0.37240  0.96170  Biso   1.000  C
  C107     1.0000 0.88200  0.42330  0.00460  Biso   1.000  C
  H167     1.0000 0.96140  0.41430  0.01430  Biso   1.000  H
  H168     1.0000 0.84980  0.41710  0.03730  Biso   1.000  H
  C108     1.0000 0.86210  0.49580  0.98420  Biso   1.000  C
  H169     1.0000 0.83670  0.52490  0.01170  Biso   1.000  H
  H170     1.0000 0.80530  0.49620  0.95110  Biso   1.000  H
  C109     1.0000 0.96880  0.52470  0.97190  Biso   1.000  C
  H171     1.0000 0.98610  0.50250  0.93920  Biso   1.000  H
  H172     1.0000 0.96310  0.57520  0.96580  Biso   1.000  H
  C110     1.0000 0.05760  0.50870  0.02050  Biso   1.000  C
  H173     1.0000 0.03550  0.52580  0.05390  Biso   1.000  H
  H174     1.0000 0.06920  0.45820  0.02390  Biso   1.000  H
  C111     1.0000 0.16090  0.54510  0.01330  Biso   1.000  C
  H175     1.0000 0.16320  0.54840  0.97440  Biso   1.000  H
  H176     1.0000 0.22540  0.51860  0.03120  Biso   1.000  H
  C112     1.0000 0.16100  0.61660  0.03930  Biso   1.000  C
