data_image0
_cell_length_a       16.28
_cell_length_b       18.43
_cell_length_c       23.55
_cell_angle_alpha    89.061
_cell_angle_beta     89.688
_cell_angle_gamma    77.706

_symmetry_space_group_name_H-M    "P 1"
_symmetry_int_tables_number       1

loop_
  _symmetry_equiv_pos_as_xyz
  'x, y, z'

loop_
  _atom_site_label
  _atom_site_occupancy
  _atom_site_fract_x
  _atom_site_fract_y
  _atom_site_fract_z
  _atom_site_thermal_displace_type
  _atom_site_B_iso_or_equiv
  _atom_site_type_symbol
  Co1      1.0000 0.75710  0.61740  0.66672  Biso   1.000  Co
  Co2      1.0000 0.77730  0.10698  0.15561  Biso   1.000  Co
  Mn1      1.0000 0.76220  0.21368  0.48766  Biso   1.000  Mn
  Mn2      1.0000 0.62149  0.98886  0.84895  Biso   1.000  Mn
  Mn3      1.0000 0.76244  0.81815  0.85318  Biso   1.000  Mn
  Mn4      1.0000 0.63677  0.49720  0.02566  Biso   1.000  Mn
  Mn5      1.0000 0.83853  0.55527  0.99513  Biso   1.000  Mn
  O1       1.0000 0.77370  0.70958  0.81836  Biso   1.000  O
  O2       1.0000 0.53480  0.58700  0.60770  Biso   1.000  O
  O3       1.0000 0.75140  0.31910  0.54350  Biso   1.000  O
  O4       1.0000 0.73890  0.33550  0.44870  Biso   1.000  O
  O5       1.0000 0.82410  0.58840  0.38410  Biso   1.000  O
  O6       1.0000 0.75170  0.67950  0.42610  Biso   1.000  O
  O7       1.0000 0.14030  0.73550  0.67495  Biso   1.000  O
  O8       1.0000 0.15660  0.51820  0.81036  Biso   1.000  O
  O9       1.0000 0.03700  0.49320  0.84328  Biso   1.000  O
  O10      1.0000 0.89370  0.41280  0.70167  Biso   1.000  O
  O11      1.0000 0.36630  0.37610  0.75731  Biso   1.000  O
  O12      1.0000 0.83120  0.74900  0.54780  Biso   1.000  O
  O13      1.0000 0.46980  0.96410  0.56794  Biso   1.000  O
  O14      1.0000 0.51080  0.86720  0.51380  Biso   1.000  O
  O15      1.0000 0.59670  0.97400  0.75755  Biso   1.000  O
  O16      1.0000 0.70380  0.88410  0.78275  Biso   1.000  O
  O17      1.0000 0.50830  0.39080  0.80295  Biso   1.000  O
  O18      1.0000 0.69390  0.47030  0.94478  Biso   1.000  O
  O19      1.0000 0.79140  0.53080  0.91576  Biso   1.000  O
  O20      1.0000 0.71530  0.30065  0.23817  Biso   1.000  O
  O21      1.0000 0.64390  0.94815  0.18116  Biso   1.000  O
  O22      1.0000 0.93040  0.76640  0.13092  Biso   1.000  O
  O23      1.0000 0.93520  0.73600  0.03960  Biso   1.000  O
  O24      1.0000 0.75710  0.91830  0.89974  Biso   1.000  O
  O25      1.0000 0.65440  0.99980  0.93726  Biso   1.000  O
  O26      1.0000 0.74873  0.42952  0.06226  Biso   1.000  O
  O27      1.0000 0.87463  0.44682  0.03468  Biso   1.000  O
  O28      1.0000 0.12500  0.24160  0.09929  Biso   1.000  O
  O29      1.0000 0.10556  0.17821  0.17660  Biso   1.000  O
  O30      1.0000 0.99840  0.98004  0.20767  Biso   1.000  O
  O31      1.0000 0.75170  0.18830  0.99465  Biso   1.000  O
  O32      1.0000 0.57370  0.41087  0.01156  Biso   1.000  O
  O33      1.0000 0.43970  0.40550  0.00943  Biso   1.000  O
  O34      1.0000 0.34660  0.19580  0.10268  Biso   1.000  O
  O35      1.0000 0.44320  0.09460  0.12837  Biso   1.000  O
  O36      1.0000 0.77670  0.83500  0.37970  Biso   1.000  O
  O37      1.0000 0.85000  0.80540  0.30210  Biso   1.000  O
  O38      1.0000 0.76390  0.09510  0.45383  Biso   1.000  O
  O39      1.0000 0.78570  0.18130  0.39370  Biso   1.000  O
  N1       1.0000 0.80800  0.65730  0.73073  Biso   1.000  N
  N2       1.0000 0.66050  0.64810  0.70981  Biso   1.000  N
  N3       1.0000 0.67700  0.58670  0.61612  Biso   1.000  N
  N4       1.0000 0.78790  0.51810  0.70117  Biso   1.000  N
  N5       1.0000 0.85460  0.58250  0.62536  Biso   1.000  N
  N6       1.0000 0.75880  0.70630  0.62204  Biso   1.000  N
  N7       1.0000 0.78980  0.20320  0.18472  Biso   1.000  N
  N8       1.0000 0.69090  0.12170  0.20898  Biso   1.000  N
  N9       1.0000 0.73450  0.01730  0.14257  Biso   1.000  N
  N10      1.0000 0.86240  0.05040  0.20718  Biso   1.000  N
  N11      1.0000 0.86870  0.08910  0.10613  Biso   1.000  N
  N12      1.0000 0.72220  0.15920  0.08820  Biso   1.000  N
  C1       1.0000 0.75610  0.68160  0.77320  Biso   1.000  C
  C2       1.0000 0.66830  0.67400  0.76170  Biso   1.000  C
  C3       1.0000 0.60100  0.68750  0.79850  Biso   1.000  C
  H1       1.0000 0.60640  0.70540  0.83470  Biso   1.000  H
  C4       1.0000 0.52480  0.67360  0.78030  Biso   1.000  C
  H2       1.0000 0.47860  0.68230  0.80460  Biso   1.000  H
  C5       1.0000 0.51700  0.64660  0.72570  Biso   1.000  C
  H3       1.0000 0.46620  0.63730  0.71310  Biso   1.000  H
  C6       1.0000 0.58780  0.63410  0.69120  Biso   1.000  C
  C7       1.0000 0.59670  0.60010  0.63420  Biso   1.000  C
  C8       1.0000 0.69760  0.55250  0.56310  Biso   1.000  C
  C9       1.0000 0.70910  0.47680  0.55690  Biso   1.000  C
  H4       1.0000 0.70280  0.44720  0.58830  Biso   1.000  H
  C10      1.0000 0.72990  0.44390  0.50480  Biso   1.000  C
  C11      1.0000 0.74300  0.48870  0.45850  Biso   1.000  C
  H5       1.0000 0.75730  0.46760  0.42320  Biso   1.000  H
  C12      1.0000 0.73460  0.56400  0.46520  Biso   1.000  C
  C13      1.0000 0.71100  0.59550  0.51670  Biso   1.000  C
  H6       1.0000 0.70380  0.64660  0.52050  Biso   1.000  H
  C14      1.0000 0.74180  0.36140  0.49830  Biso   1.000  C
  C15      1.0000 0.75960  0.61590  0.42060  Biso   1.000  C
  C16      1.0000 0.89570  0.65420  0.73610  Biso   1.000  C
  C17      1.0000 0.93460  0.69830  0.70260  Biso   1.000  C
  H7       1.0000 0.90350  0.73360  0.67810  Biso   1.000  H
  C18      1.0000 0.02320  0.68920  0.70610  Biso   1.000  C
  C19      1.0000 0.07030  0.63710  0.74180  Biso   1.000  C
  H8       1.0000 0.12840  0.63150  0.74340  Biso   1.000  H
  C20      1.0000 0.02950  0.59280  0.77580  Biso   1.000  C
  C21      1.0000 0.94270  0.60220  0.77356  Biso   1.000  C
  H9       1.0000 0.91560  0.57360  0.79720  Biso   1.000  H
  C22      1.0000 0.07770  0.53070  0.81330  Biso   1.000  C
  C23      1.0000 0.06420  0.73440  0.66570  Biso   1.000  C
  C24      1.0000 0.85940  0.47650  0.68440  Biso   1.000  C
  C25      1.0000 0.90000  0.51430  0.63790  Biso   1.000  C
  C26      1.0000 0.97560  0.48820  0.61060  Biso   1.000  C
  H10      1.0000 0.00760  0.44120  0.61890  Biso   1.000  H
  C27      1.0000 0.00240  0.53380  0.57060  Biso   1.000  C
  H11      1.0000 0.05390  0.51770  0.55260  Biso   1.000  H
  C28      1.0000 0.95290  0.60420  0.55660  Biso   1.000  C
  H12      1.0000 0.96930  0.63400  0.52830  Biso   1.000  H
  C29      1.0000 0.87860  0.62720  0.58650  Biso   1.000  C
  C30      1.0000 0.82000  0.70100  0.58260  Biso   1.000  C
  C31      1.0000 0.70200  0.77670  0.62900  Biso   1.000  C
  C32      1.0000 0.64090  0.80540  0.58920  Biso   1.000  C
  H13      1.0000 0.63610  0.77920  0.55640  Biso   1.000  H
  C33      1.0000 0.58640  0.87370  0.59860  Biso   1.000  C
  C34      1.0000 0.59090  0.91100  0.64830  Biso   1.000  C
  H14      1.0000 0.55440  0.95650  0.65400  Biso   1.000  H
  C35      1.0000 0.64970  0.88150  0.69030  Biso   1.000  C
  C36      1.0000 0.70730  0.81500  0.67900  Biso   1.000  C
  H15      1.0000 0.74950  0.79630  0.70510  Biso   1.000  H
  C37      1.0000 0.51980  0.90130  0.55520  Biso   1.000  C
  C38      1.0000 0.65060  0.91540  0.74610  Biso   1.000  C
  C39      1.0000 0.74090  0.49340  0.74630  Biso   1.000  C
  C40      1.0000 0.66990  0.46660  0.73460  Biso   1.000  C
  H16      1.0000 0.65530  0.45960  0.69730  Biso   1.000  H
  C41      1.0000 0.62020  0.45000  0.77970  Biso   1.000  C
  C42      1.0000 0.64180  0.45870  0.83470  Biso   1.000  C
  H17      1.0000 0.60810  0.44770  0.86420  Biso   1.000  H
  C43      1.0000 0.71410  0.48370  0.84640  Biso   1.000  C
  C44      1.0000 0.76280  0.50240  0.80242  Biso   1.000  C
  H18      1.0000 0.81020  0.52100  0.81040  Biso   1.000  H
  C45      1.0000 0.54050  0.42430  0.76710  Biso   1.000  C
  C46      1.0000 0.73550  0.49580  0.90730  Biso   1.000  C
  C47      1.0000 0.73040  0.23600  0.22000  Biso   1.000  C
  C48      1.0000 0.67850  0.18240  0.24005  Biso   1.000  C
  C49      1.0000 0.62400  0.19030  0.28680  Biso   1.000  C
  H19      1.0000 0.61420  0.23290  0.30860  Biso   1.000  H
  C50      1.0000 0.58550  0.13240  0.29920  Biso   1.000  C
  H20      1.0000 0.55060  0.13530  0.33090  Biso   1.000  H
  C51      1.0000 0.59700  0.07000  0.26590  Biso   1.000  C
  H21      1.0000 0.56910  0.03190  0.27390  Biso   1.000  H
  C52      1.0000 0.65180  0.06580  0.21980  Biso   1.000  C
  C53      1.0000 0.67760  0.00360  0.17920  Biso   1.000  C
  C54      1.0000 0.76210  0.96520  0.09830  Biso   1.000  C
  C55      1.0000 0.82030  0.90000  0.10950  Biso   1.000  C
  H22      1.0000 0.84110  0.88930  0.14610  Biso   1.000  H
  C56      1.0000 0.84750  0.85070  0.06600  Biso   1.000  C
  C57      1.0000 0.81670  0.86750  0.01070  Biso   1.000  C
  H23      1.0000 0.83570  0.83510  0.98130  Biso   1.000  H
  C58      1.0000 0.75800  0.93250  0.00020  Biso   1.000  C
  C59      1.0000 0.73070  0.98100  0.04420  Biso   1.000  C
  H24      1.0000 0.69080  0.02450  0.03720  Biso   1.000  H
  C60      1.0000 0.91070  0.77920  0.07870  Biso   1.000  C
  C61      1.0000 0.72170  0.95080  0.94250  Biso   1.000  C
  C62      1.0000 0.84420  0.24410  0.15809  Biso   1.000  C
  C63      1.0000 0.93010  0.21920  0.16357  Biso   1.000  C
  H25      1.0000 0.95160  0.18040  0.18860  Biso   1.000  H
  C64      1.0000 0.98470  0.25280  0.13125  Biso   1.000  C
  C65      1.0000 0.95330  0.31320  0.09565  Biso   1.000  C
  H26      1.0000 0.98940  0.33460  0.07350  Biso   1.000  H
  C66      1.0000 0.86640  0.34120  0.09375  Biso   1.000  C
  C67      1.0000 0.81290  0.30560  0.12399  Biso   1.000  C
  H27      1.0000 0.75510  0.32330  0.12140  Biso   1.000  H
  C68      1.0000 0.07710  0.22190  0.13602  Biso   1.000  C
  C69      1.0000 0.82740  0.41120  0.06080  Biso   1.000  C
  C70      1.0000 0.93770  0.02250  0.18420  Biso   1.000  C
  C71      1.0000 0.94220  0.05000  0.12500  Biso   1.000  C
  C72      1.0000 0.01370  0.04040  0.09000  Biso   1.000  C
  H28      1.0000 0.06500  0.01220  0.10230  Biso   1.000  H
  C73      1.0000 0.00570  0.07370  0.03750  Biso   1.000  C
  H29      1.0000 0.05260  0.06880  0.01400  Biso   1.000  H
  C74      1.0000 0.92940  0.11460  0.01850  Biso   1.000  C
  H30      1.0000 0.92430  0.13740  0.98280  Biso   1.000  H
  C75      1.0000 0.86030  0.12070  0.05450  Biso   1.000  C
  C76      1.0000 0.77210  0.16110  0.04297  Biso   1.000  C
  C77      1.0000 0.63670  0.19780  0.08274  Biso   1.000  C
  C78      1.0000 0.61640  0.26990  0.06036  Biso   1.000  C
  H31      1.0000 0.65910  0.29480  0.05200  Biso   1.000  H
  C79      1.0000 0.53360  0.30470  0.05038  Biso   1.000  C
  C80      1.0000 0.46960  0.26840  0.06490  Biso   1.000  C
  H32      1.0000 0.41380  0.29150  0.05820  Biso   1.000  H
  C81      1.0000 0.48900  0.19750  0.08940  Biso   1.000  C
  C82      1.0000 0.57190  0.16200  0.09700  Biso   1.000  C
  H33      1.0000 0.58470  0.11390  0.11180  Biso   1.000  H
  C83      1.0000 0.51410  0.38080  0.02199  Biso   1.000  C
  C84      1.0000 0.42070  0.15940  0.10760  Biso   1.000  C
  C85      1.0000 0.84550  0.02760  0.26266  Biso   1.000  C
  C86      1.0000 0.84090  0.95360  0.27380  Biso   1.000  C
  H34      1.0000 0.85370  0.91860  0.24530  Biso   1.000  H
  C87      1.0000 0.81760  0.93250  0.32720  Biso   1.000  C
  C88      1.0000 0.79760  0.98500  0.36870  Biso   1.000  C
  H35      1.0000 0.78030  0.97090  0.40420  Biso   1.000  H
  C89      1.0000 0.80250  0.05880  0.35910  Biso   1.000  C
  C90      1.0000 0.82690  0.07880  0.30560  Biso   1.000  C
  H36      1.0000 0.83090  0.12770  0.29840  Biso   1.000  H
  C91      1.0000 0.81460  0.85360  0.33690  Biso   1.000  C
  C92      1.0000 0.78270  0.11480  0.40400  Biso   1.000  C
  O40      1.0000 0.54180  0.39510  0.71440  Biso   1.000  O
  O41      1.0000 0.03250  0.75190  0.61630  Biso   1.000  O
  Mn6      1.0000 0.42215  0.41155  0.67265  Biso   1.000  Mn
  Mn7      1.0000 0.81889  0.71154  0.35376  Biso   1.000  Mn
  O42      1.0000 0.38840  0.41680  0.64370  Biso   1.000  O
  O43      1.0000 0.30170  0.41430  0.63760  Biso   1.000  O
  O44      1.0000 0.48140  0.47840  0.73050  Biso   1.000  O
  O45      1.0000 0.01790  0.79540  0.64720  Biso   1.000  O
  Mn8      1.0000 0.35168  0.48869  0.70909  Biso   1.000  Mn
  O46      1.0000 0.38200  0.52400  0.70270  Biso   1.000  O
  Co3      1.0000 0.24290  0.38260  0.33328  Biso   1.000  Co
  Co4      1.0000 0.22270  0.89302  0.84439  Biso   1.000  Co
  Mn9      1.0000 0.23780  0.78632  0.51234  Biso   1.000  Mn
  Mn10     1.0000 0.37851  0.01114  0.15105  Biso   1.000  Mn
  Mn11     1.0000 0.23756  0.18185  0.14682  Biso   1.000  Mn
  Mn12     1.0000 0.36323  0.50280  0.97434  Biso   1.000  Mn
  Mn13     1.0000 0.16147  0.44473  0.00487  Biso   1.000  Mn
  O47      1.0000 0.22630  0.29042  0.18164  Biso   1.000  O
  O48      1.0000 0.46520  0.41300  0.39230  Biso   1.000  O
  O49      1.0000 0.24860  0.68090  0.45650  Biso   1.000  O
  O50      1.0000 0.26110  0.66450  0.55130  Biso   1.000  O
  O51      1.0000 0.17590  0.41160  0.61590  Biso   1.000  O
  O52      1.0000 0.24830  0.32050  0.57390  Biso   1.000  O
  O53      1.0000 0.85970  0.26450  0.32505  Biso   1.000  O
  O54      1.0000 0.84340  0.48180  0.18964  Biso   1.000  O
  O55      1.0000 0.96300  0.50680  0.15672  Biso   1.000  O
  O56      1.0000 0.10630  0.58720  0.29833  Biso   1.000  O
  O57      1.0000 0.63370  0.62390  0.24269  Biso   1.000  O
  O58      1.0000 0.16880  0.25100  0.45220  Biso   1.000  O
  O59      1.0000 0.53020  0.03590  0.43206  Biso   1.000  O
  O60      1.0000 0.48920  0.13280  0.48620  Biso   1.000  O
  O61      1.0000 0.40330  0.02600  0.24245  Biso   1.000  O
  O62      1.0000 0.29620  0.11590  0.21725  Biso   1.000  O
  O63      1.0000 0.49170  0.60920  0.19705  Biso   1.000  O
  O64      1.0000 0.30610  0.52970  0.05522  Biso   1.000  O
  O65      1.0000 0.20860  0.46920  0.08424  Biso   1.000  O
  O66      1.0000 0.28470  0.69935  0.76183  Biso   1.000  O
  O67      1.0000 0.35610  0.05185  0.81884  Biso   1.000  O
  O68      1.0000 0.06960  0.23360  0.86908  Biso   1.000  O
  O69      1.0000 0.06480  0.26400  0.96040  Biso   1.000  O
  O70      1.0000 0.24290  0.08170  0.10026  Biso   1.000  O
  O71      1.0000 0.34560  0.00020  0.06274  Biso   1.000  O
  O72      1.0000 0.25127  0.57048  0.93774  Biso   1.000  O
  O73      1.0000 0.12537  0.55318  0.96532  Biso   1.000  O
  O74      1.0000 0.87500  0.75840  0.90071  Biso   1.000  O
  O75      1.0000 0.89444  0.82179  0.82340  Biso   1.000  O
  O76      1.0000 0.00160  0.01996  0.79233  Biso   1.000  O
  O77      1.0000 0.24830  0.81170  0.00535  Biso   1.000  O
  O78      1.0000 0.42630  0.58913  0.98844  Biso   1.000  O
  O79      1.0000 0.56030  0.59450  0.99057  Biso   1.000  O
  O80      1.0000 0.65340  0.80420  0.89732  Biso   1.000  O
  O81      1.0000 0.55680  0.90540  0.87163  Biso   1.000  O
  O82      1.0000 0.22330  0.16500  0.62030  Biso   1.000  O
  O83      1.0000 0.15000  0.19460  0.69790  Biso   1.000  O
  O84      1.0000 0.23610  0.90490  0.54617  Biso   1.000  O
  O85      1.0000 0.21430  0.81870  0.60630  Biso   1.000  O
  N13      1.0000 0.19200  0.34270  0.26927  Biso   1.000  N
  N14      1.0000 0.33950  0.35190  0.29019  Biso   1.000  N
  N15      1.0000 0.32300  0.41330  0.38388  Biso   1.000  N
  N16      1.0000 0.21210  0.48190  0.29883  Biso   1.000  N
  N17      1.0000 0.14540  0.41750  0.37464  Biso   1.000  N
  N18      1.0000 0.24120  0.29370  0.37796  Biso   1.000  N
  N19      1.0000 0.21020  0.79680  0.81528  Biso   1.000  N
  N20      1.0000 0.30910  0.87830  0.79102  Biso   1.000  N
  N21      1.0000 0.26550  0.98270  0.85743  Biso   1.000  N
  N22      1.0000 0.13760  0.94960  0.79282  Biso   1.000  N
  N23      1.0000 0.13130  0.91090  0.89387  Biso   1.000  N
  N24      1.0000 0.27780  0.84080  0.91180  Biso   1.000  N
  C93      1.0000 0.24390  0.31840  0.22680  Biso   1.000  C
  C94      1.0000 0.33170  0.32600  0.23830  Biso   1.000  C
  C95      1.0000 0.39900  0.31250  0.20150  Biso   1.000  C
  H37      1.0000 0.39360  0.29460  0.16530  Biso   1.000  H
  C96      1.0000 0.47520  0.32640  0.21970  Biso   1.000  C
  H38      1.0000 0.52140  0.31770  0.19540  Biso   1.000  H
  C97      1.0000 0.48300  0.35340  0.27430  Biso   1.000  C
  H39      1.0000 0.53380  0.36270  0.28690  Biso   1.000  H
  C98      1.0000 0.41220  0.36590  0.30880  Biso   1.000  C
  C99      1.0000 0.40330  0.39990  0.36580  Biso   1.000  C
  C100     1.0000 0.30240  0.44750  0.43690  Biso   1.000  C
  C101     1.0000 0.29090  0.52320  0.44310  Biso   1.000  C
  H40      1.0000 0.29720  0.55280  0.41170  Biso   1.000  H
  C102     1.0000 0.27010  0.55610  0.49520  Biso   1.000  C
  C103     1.0000 0.25700  0.51130  0.54150  Biso   1.000  C
  H41      1.0000 0.24270  0.53240  0.57680  Biso   1.000  H
  C104     1.0000 0.26540  0.43600  0.53480  Biso   1.000  C
  C105     1.0000 0.28900  0.40450  0.48330  Biso   1.000  C
  H42      1.0000 0.29620  0.35340  0.47950  Biso   1.000  H
  C106     1.0000 0.25820  0.63860  0.50170  Biso   1.000  C
  C107     1.0000 0.24040  0.38410  0.57940  Biso   1.000  C
  C108     1.0000 0.10430  0.34580  0.26390  Biso   1.000  C
  C109     1.0000 0.06540  0.30170  0.29740  Biso   1.000  C
  H43      1.0000 0.09650  0.26640  0.32190  Biso   1.000  H
  C110     1.0000 0.97680  0.31080  0.29390  Biso   1.000  C
  C111     1.0000 0.92970  0.36290  0.25820  Biso   1.000  C
  H44      1.0000 0.87160  0.36850  0.25660  Biso   1.000  H
  C112     1.0000 0.97050  0.40720  0.22420  Biso   1.000  C
  C113     1.0000 0.05730  0.39780  0.22644  Biso   1.000  C
  H45      1.0000 0.08440  0.42640  0.20280  Biso   1.000  H
  C114     1.0000 0.92230  0.46930  0.18670  Biso   1.000  C
  C115     1.0000 0.93580  0.26560  0.33430  Biso   1.000  C
  C116     1.0000 0.14060  0.52350  0.31560  Biso   1.000  C
  C117     1.0000 0.10000  0.48570  0.36210  Biso   1.000  C
  C118     1.0000 0.02440  0.51180  0.38940  Biso   1.000  C
  H46      1.0000 0.99240  0.55880  0.38110  Biso   1.000  H
  C119     1.0000 0.99760  0.46620  0.42940  Biso   1.000  C
  H47      1.0000 0.94610  0.48230  0.44740  Biso   1.000  H
  C120     1.0000 0.04710  0.39580  0.44340  Biso   1.000  C
  H48      1.0000 0.03070  0.36600  0.47170  Biso   1.000  H
  C121     1.0000 0.12140  0.37280  0.41350  Biso   1.000  C
  C122     1.0000 0.18000  0.29900  0.41740  Biso   1.000  C
  C123     1.0000 0.29800  0.22330  0.37100  Biso   1.000  C
  C124     1.0000 0.35910  0.19460  0.41080  Biso   1.000  C
  H49      1.0000 0.36390  0.22080  0.44360  Biso   1.000  H
  C125     1.0000 0.41360  0.12630  0.40140  Biso   1.000  C
  C126     1.0000 0.40910  0.08900  0.35170  Biso   1.000  C
  H50      1.0000 0.44560  0.04350  0.34600  Biso   1.000  H
  C127     1.0000 0.35030  0.11850  0.30970  Biso   1.000  C
  C128     1.0000 0.29270  0.18500  0.32100  Biso   1.000  C
  H51      1.0000 0.25050  0.20370  0.29490  Biso   1.000  H
  C129     1.0000 0.48020  0.09870  0.44480  Biso   1.000  C
  C130     1.0000 0.34940  0.08460  0.25390  Biso   1.000  C
  C131     1.0000 0.25910  0.50660  0.25370  Biso   1.000  C
  C132     1.0000 0.33010  0.53340  0.26540  Biso   1.000  C
  H52      1.0000 0.34470  0.54040  0.30270  Biso   1.000  H
  C133     1.0000 0.37980  0.55000  0.22030  Biso   1.000  C
  C134     1.0000 0.35820  0.54130  0.16530  Biso   1.000  C
  H53      1.0000 0.39190  0.55230  0.13580  Biso   1.000  H
  C135     1.0000 0.28590  0.51630  0.15360  Biso   1.000  C
  C136     1.0000 0.23720  0.49760  0.19758  Biso   1.000  C
  H54      1.0000 0.18980  0.47900  0.18960  Biso   1.000  H
  C137     1.0000 0.45950  0.57570  0.23290  Biso   1.000  C
  C138     1.0000 0.26450  0.50420  0.09270  Biso   1.000  C
  C139     1.0000 0.26960  0.76400  0.78000  Biso   1.000  C
  C140     1.0000 0.32150  0.81760  0.75995  Biso   1.000  C
  C141     1.0000 0.37600  0.80970  0.71320  Biso   1.000  C
  H55      1.0000 0.38580  0.76710  0.69140  Biso   1.000  H
  C142     1.0000 0.41450  0.86760  0.70080  Biso   1.000  C
  H56      1.0000 0.44940  0.86470  0.66910  Biso   1.000  H
  C143     1.0000 0.40300  0.93000  0.73410  Biso   1.000  C
  H57      1.0000 0.43090  0.96810  0.72610  Biso   1.000  H
  C144     1.0000 0.34820  0.93420  0.78020  Biso   1.000  C
  C145     1.0000 0.32240  0.99640  0.82080  Biso   1.000  C
  C146     1.0000 0.23790  0.03480  0.90170  Biso   1.000  C
  C147     1.0000 0.17970  0.10000  0.89050  Biso   1.000  C
  H58      1.0000 0.15890  0.11070  0.85390  Biso   1.000  H
  C148     1.0000 0.15250  0.14930  0.93400  Biso   1.000  C
  C149     1.0000 0.18330  0.13250  0.98930  Biso   1.000  C
  H59      1.0000 0.16430  0.16490  0.01870  Biso   1.000  H
  C150     1.0000 0.24200  0.06750  0.99980  Biso   1.000  C
  C151     1.0000 0.26930  0.01900  0.95580  Biso   1.000  C
  H60      1.0000 0.30920  0.97550  0.96280  Biso   1.000  H
  C152     1.0000 0.08930  0.22080  0.92130  Biso   1.000  C
  C153     1.0000 0.27830  0.04920  0.05750  Biso   1.000  C
  C154     1.0000 0.15580  0.75590  0.84191  Biso   1.000  C
  C155     1.0000 0.06990  0.78080  0.83643  Biso   1.000  C
  H61      1.0000 0.04840  0.81960  0.81140  Biso   1.000  H
  C156     1.0000 0.01530  0.74720  0.86875  Biso   1.000  C
  C157     1.0000 0.04670  0.68680  0.90435  Biso   1.000  C
  H62      1.0000 0.01060  0.66540  0.92650  Biso   1.000  H
  C158     1.0000 0.13360  0.65880  0.90625  Biso   1.000  C
  C159     1.0000 0.18710  0.69440  0.87601  Biso   1.000  C
  H63      1.0000 0.24490  0.67670  0.87860  Biso   1.000  H
  C160     1.0000 0.92290  0.77810  0.86398  Biso   1.000  C
  C161     1.0000 0.17260  0.58880  0.93920  Biso   1.000  C
  C162     1.0000 0.06230  0.97750  0.81580  Biso   1.000  C
  C163     1.0000 0.05780  0.95000  0.87500  Biso   1.000  C
  C164     1.0000 0.98630  0.95960  0.91000  Biso   1.000  C
  H64      1.0000 0.93500  0.98780  0.89770  Biso   1.000  H
  C165     1.0000 0.99430  0.92630  0.96250  Biso   1.000  C
  H65      1.0000 0.94740  0.93120  0.98600  Biso   1.000  H
  C166     1.0000 0.07060  0.88540  0.98150  Biso   1.000  C
  H66      1.0000 0.07570  0.86260  0.01720  Biso   1.000  H
  C167     1.0000 0.13970  0.87930  0.94550  Biso   1.000  C
  C168     1.0000 0.22790  0.83890  0.95703  Biso   1.000  C
  C169     1.0000 0.36330  0.80220  0.91726  Biso   1.000  C
  C170     1.0000 0.38360  0.73010  0.93964  Biso   1.000  C
  H67      1.0000 0.34090  0.70520  0.94800  Biso   1.000  H
  C171     1.0000 0.46640  0.69530  0.94962  Biso   1.000  C
  C172     1.0000 0.53040  0.73160  0.93510  Biso   1.000  C
  H68      1.0000 0.58620  0.70850  0.94180  Biso   1.000  H
  C173     1.0000 0.51100  0.80250  0.91060  Biso   1.000  C
  C174     1.0000 0.42810  0.83800  0.90300  Biso   1.000  C
  H69      1.0000 0.41530  0.88610  0.88820  Biso   1.000  H
  C175     1.0000 0.48590  0.61920  0.97801  Biso   1.000  C
  C176     1.0000 0.57930  0.84060  0.89240  Biso   1.000  C
  C177     1.0000 0.15450  0.97240  0.73734  Biso   1.000  C
  C178     1.0000 0.15910  0.04640  0.72620  Biso   1.000  C
  H70      1.0000 0.14630  0.08140  0.75470  Biso   1.000  H
  C179     1.0000 0.18240  0.06750  0.67280  Biso   1.000  C
  C180     1.0000 0.20240  0.01500  0.63130  Biso   1.000  C
  H71      1.0000 0.21970  0.02910  0.59580  Biso   1.000  H
  C181     1.0000 0.19750  0.94120  0.64090  Biso   1.000  C
  C182     1.0000 0.17310  0.92120  0.69440  Biso   1.000  C
  H72      1.0000 0.16910  0.87230  0.70160  Biso   1.000  H
  C183     1.0000 0.18540  0.14640  0.66310  Biso   1.000  C
  C184     1.0000 0.21730  0.88520  0.59600  Biso   1.000  C
  O86      1.0000 0.45820  0.60490  0.28560  Biso   1.000  O
  O87      1.0000 0.96750  0.24810  0.38370  Biso   1.000  O
  Mn14     1.0000 0.57785  0.58845  0.32735  Biso   1.000  Mn
  Mn15     1.0000 0.18111  0.28846  0.64624  Biso   1.000  Mn
  O88      1.0000 0.61160  0.58320  0.35630  Biso   1.000  O
  O89      1.0000 0.69830  0.58570  0.36240  Biso   1.000  O
  O90      1.0000 0.51860  0.52160  0.26950  Biso   1.000  O
  O91      1.0000 0.98210  0.20460  0.35280  Biso   1.000  O
  Mn16     1.0000 0.64832  0.51131  0.29091  Biso   1.000  Mn
  O92      1.0000 0.61800  0.47600  0.29730  Biso   1.000  O
