data_image0
_cell_length_a       25.1117
_cell_length_b       25.1117
_cell_length_c       13.2033
_cell_angle_alpha    90
_cell_angle_beta     90
_cell_angle_gamma    120

_symmetry_space_group_name_H-M    "P 1"
_symmetry_int_tables_number       1

loop_
  _symmetry_equiv_pos_as_xyz
  'x, y, z'

loop_
  _atom_site_label
  _atom_site_occupancy
  _atom_site_fract_x
  _atom_site_fract_y
  _atom_site_fract_z
  _atom_site_thermal_displace_type
  _atom_site_B_iso_or_equiv
  _atom_site_type_symbol
  Zn1      1.0000 0.42879  0.33157  0.00124  Biso   1.000  Zn
  N1       1.0000 0.41530  0.25240  0.05340  Biso   1.000  N
  C1       1.0000 0.39700  0.39030  0.17660  Biso   1.000  C
  C2       1.0000 0.37580  0.21610  0.13260  Biso   1.000  C
  N2       1.0000 0.51750  0.39670  0.99450  Biso   1.000  N
  N3       1.0000 0.31800  0.38910  0.11920  Biso   1.000  N
  N4       1.0000 0.38690  0.36640  0.08670  Biso   1.000  N
  C3       1.0000 0.34180  0.22750  0.20230  Biso   1.000  C
  H1       1.0000 0.34330  0.26530  0.20440  Biso   1.000  H
  N5       1.0000 0.33730  0.36770  0.05100  Biso   1.000  N
  N6       1.0000 0.35400  0.40380  0.20160  Biso   1.000  N
  N7       1.0000 0.55860  0.38740  0.03880  Biso   1.000  N
  C4       1.0000 0.30490  0.18000  0.26990  Biso   1.000  C
  H2       1.0000 0.27990  0.18570  0.31560  Biso   1.000  H
  C5       1.0000 0.44430  0.39250  0.24790  Biso   1.000  C
  H3       1.0000 0.47040  0.38080  0.21260  Biso   1.000  H
  H4       1.0000 0.46870  0.43340  0.27380  Biso   1.000  H
  H5       1.0000 0.42430  0.36450  0.30300  Biso   1.000  H
  H6       1.0000 0.47210  0.45590  0.90440  Biso   1.000  H
  H7       1.0000 0.51670  0.51740  0.96050  Biso   1.000  H
  H8       1.0000 0.53460  0.50340  0.85400  Biso   1.000  H
  H9       1.0000 0.48920  0.20860  0.90410  Biso   1.000  H
  H10      1.0000 0.46240  0.24970  0.86710  Biso   1.000  H
  H11      1.0000 0.51770  0.27630  0.94340  Biso   1.000  H
  Zn2      1.0000 0.09546  0.66490  0.33457  Biso   1.000  Zn
  N8       1.0000 0.08197  0.58573  0.38673  Biso   1.000  N
  C6       1.0000 0.06367  0.72363  0.50993  Biso   1.000  C
  C7       1.0000 0.04247  0.54943  0.46593  Biso   1.000  C
  N9       1.0000 0.18417  0.73003  0.32783  Biso   1.000  N
  N10      1.0000 0.98467  0.72243  0.45253  Biso   1.000  N
  N11      1.0000 0.05357  0.69973  0.42003  Biso   1.000  N
  C8       1.0000 0.00847  0.56083  0.53563  Biso   1.000  C
  H12      1.0000 0.00997  0.59863  0.53773  Biso   1.000  H
  N12      1.0000 0.00397  0.70103  0.38433  Biso   1.000  N
  N13      1.0000 0.02067  0.73713  0.53493  Biso   1.000  N
  N14      1.0000 0.22527  0.72073  0.37213  Biso   1.000  N
  C9       1.0000 0.97157  0.51333  0.60323  Biso   1.000  C
  H13      1.0000 0.94657  0.51903  0.64893  Biso   1.000  H
  C10      1.0000 0.11097  0.72583  0.58123  Biso   1.000  C
  H14      1.0000 0.13707  0.71413  0.54593  Biso   1.000  H
  H15      1.0000 0.13537  0.76673  0.60713  Biso   1.000  H
  H16      1.0000 0.09097  0.69783  0.63633  Biso   1.000  H
  H17      1.0000 0.13877  0.78923  0.23773  Biso   1.000  H
  H18      1.0000 0.18337  0.85073  0.29383  Biso   1.000  H
  H19      1.0000 0.20127  0.83673  0.18733  Biso   1.000  H
  H20      1.0000 0.15587  0.54193  0.23743  Biso   1.000  H
  H21      1.0000 0.12907  0.58303  0.20043  Biso   1.000  H
  H22      1.0000 0.18437  0.60963  0.27673  Biso   1.000  H
  Zn3      1.0000 0.76212  0.99824  0.66791  Biso   1.000  Zn
  N15      1.0000 0.74863  0.91907  0.72007  Biso   1.000  N
  C11      1.0000 0.73033  0.05697  0.84327  Biso   1.000  C
  C12      1.0000 0.70913  0.88277  0.79927  Biso   1.000  C
  N16      1.0000 0.85083  0.06337  0.66117  Biso   1.000  N
  N17      1.0000 0.65133  0.05577  0.78587  Biso   1.000  N
  N18      1.0000 0.72023  0.03307  0.75337  Biso   1.000  N
  C13      1.0000 0.67513  0.89417  0.86897  Biso   1.000  C
  H23      1.0000 0.67663  0.93197  0.87107  Biso   1.000  H
  N19      1.0000 0.67063  0.03437  0.71767  Biso   1.000  N
  N20      1.0000 0.68733  0.07047  0.86827  Biso   1.000  N
  N21      1.0000 0.89193  0.05407  0.70547  Biso   1.000  N
  C14      1.0000 0.63823  0.84667  0.93657  Biso   1.000  C
  H24      1.0000 0.61323  0.85237  0.98227  Biso   1.000  H
  C15      1.0000 0.77763  0.05917  0.91457  Biso   1.000  C
  H25      1.0000 0.80373  0.04747  0.87927  Biso   1.000  H
  H26      1.0000 0.80203  0.10007  0.94047  Biso   1.000  H
  H27      1.0000 0.75763  0.03117  0.96967  Biso   1.000  H
  H28      1.0000 0.80543  0.12257  0.57107  Biso   1.000  H
  H29      1.0000 0.85003  0.18407  0.62717  Biso   1.000  H
  H30      1.0000 0.86793  0.17007  0.52067  Biso   1.000  H
  H31      1.0000 0.82253  0.87527  0.57077  Biso   1.000  H
  H32      1.0000 0.79573  0.91637  0.53377  Biso   1.000  H
  H33      1.0000 0.85103  0.94297  0.61007  Biso   1.000  H
  Zn4      1.0000 0.66843  0.09722  0.00124  Biso   1.000  Zn
  N22      1.0000 0.74760  0.16290  0.05340  Biso   1.000  N
  C16      1.0000 0.60970  0.00670  0.17660  Biso   1.000  C
  C17      1.0000 0.78390  0.15970  0.13260  Biso   1.000  C
  N23      1.0000 0.60330  0.12080  0.99450  Biso   1.000  N
  N24      1.0000 0.61090  0.92890  0.11920  Biso   1.000  N
  N25      1.0000 0.63360  0.02050  0.08670  Biso   1.000  N
  C18      1.0000 0.77250  0.11430  0.20230  Biso   1.000  C
  H34      1.0000 0.73470  0.07800  0.20440  Biso   1.000  H
  N26      1.0000 0.63230  0.96960  0.05100  Biso   1.000  N
  N27      1.0000 0.59620  0.95020  0.20160  Biso   1.000  N
  N28      1.0000 0.61260  0.17120  0.03880  Biso   1.000  N
  C19      1.0000 0.82000  0.12490  0.26990  Biso   1.000  C
  H35      1.0000 0.81430  0.09420  0.31560  Biso   1.000  H
  C20      1.0000 0.60750  0.05180  0.24790  Biso   1.000  C
  H36      1.0000 0.61920  0.08960  0.21260  Biso   1.000  H
  H37      1.0000 0.56660  0.03530  0.27380  Biso   1.000  H
  H38      1.0000 0.63550  0.05980  0.30300  Biso   1.000  H
  H39      1.0000 0.54410  0.01620  0.90440  Biso   1.000  H
  H40      1.0000 0.48260  0.99930  0.96050  Biso   1.000  H
  H41      1.0000 0.49660  0.03120  0.85400  Biso   1.000  H
  H42      1.0000 0.79140  0.28060  0.90410  Biso   1.000  H
  H43      1.0000 0.75030  0.21270  0.86710  Biso   1.000  H
  H44      1.0000 0.72370  0.24140  0.94340  Biso   1.000  H
  Zn5      1.0000 0.33510  0.43055  0.33457  Biso   1.000  Zn
  N29      1.0000 0.41427  0.49623  0.38673  Biso   1.000  N
  C21      1.0000 0.27637  0.34003  0.50993  Biso   1.000  C
  C22      1.0000 0.45057  0.49303  0.46593  Biso   1.000  C
  N30      1.0000 0.26997  0.45413  0.32783  Biso   1.000  N
  N31      1.0000 0.27757  0.26223  0.45253  Biso   1.000  N
  N32      1.0000 0.30027  0.35383  0.42003  Biso   1.000  N
  C23      1.0000 0.43917  0.44763  0.53563  Biso   1.000  C
  H45      1.0000 0.40137  0.41133  0.53773  Biso   1.000  H
  N33      1.0000 0.29897  0.30293  0.38433  Biso   1.000  N
  N34      1.0000 0.26287  0.28353  0.53493  Biso   1.000  N
  N35      1.0000 0.27927  0.50453  0.37213  Biso   1.000  N
  C24      1.0000 0.48667  0.45823  0.60323  Biso   1.000  C
  H46      1.0000 0.48097  0.42753  0.64893  Biso   1.000  H
  C25      1.0000 0.27417  0.38513  0.58123  Biso   1.000  C
  H47      1.0000 0.28587  0.42293  0.54593  Biso   1.000  H
  H48      1.0000 0.23327  0.36863  0.60713  Biso   1.000  H
  H49      1.0000 0.30217  0.39313  0.63633  Biso   1.000  H
  H50      1.0000 0.21077  0.34953  0.23773  Biso   1.000  H
  H51      1.0000 0.14927  0.33263  0.29383  Biso   1.000  H
  H52      1.0000 0.16327  0.36453  0.18733  Biso   1.000  H
  H53      1.0000 0.45807  0.61393  0.23743  Biso   1.000  H
  H54      1.0000 0.41697  0.54603  0.20043  Biso   1.000  H
  H55      1.0000 0.39037  0.57473  0.27673  Biso   1.000  H
  Zn6      1.0000 0.00176  0.76389  0.66791  Biso   1.000  Zn
  N36      1.0000 0.08093  0.82957  0.72007  Biso   1.000  N
  C26      1.0000 0.94303  0.67337  0.84327  Biso   1.000  C
  C27      1.0000 0.11723  0.82637  0.79927  Biso   1.000  C
  N37      1.0000 0.93663  0.78747  0.66117  Biso   1.000  N
  N38      1.0000 0.94423  0.59557  0.78587  Biso   1.000  N
  N39      1.0000 0.96693  0.68717  0.75337  Biso   1.000  N
  C28      1.0000 0.10583  0.78097  0.86897  Biso   1.000  C
  H56      1.0000 0.06803  0.74467  0.87107  Biso   1.000  H
  N40      1.0000 0.96563  0.63627  0.71767  Biso   1.000  N
  N41      1.0000 0.92953  0.61687  0.86827  Biso   1.000  N
  N42      1.0000 0.94593  0.83787  0.70547  Biso   1.000  N
  C29      1.0000 0.15333  0.79157  0.93657  Biso   1.000  C
  H57      1.0000 0.14763  0.76087  0.98227  Biso   1.000  H
  C30      1.0000 0.94083  0.71847  0.91457  Biso   1.000  C
  H58      1.0000 0.95253  0.75627  0.87927  Biso   1.000  H
  H59      1.0000 0.89993  0.70197  0.94047  Biso   1.000  H
  H60      1.0000 0.96883  0.72647  0.96967  Biso   1.000  H
  H61      1.0000 0.87743  0.68287  0.57107  Biso   1.000  H
  H62      1.0000 0.81593  0.66597  0.62717  Biso   1.000  H
  H63      1.0000 0.82993  0.69787  0.52067  Biso   1.000  H
  H64      1.0000 0.12473  0.94727  0.57077  Biso   1.000  H
  H65      1.0000 0.08363  0.87937  0.53377  Biso   1.000  H
  H66      1.0000 0.05703  0.90807  0.61007  Biso   1.000  H
  Zn7      1.0000 0.90278  0.57121  0.00124  Biso   1.000  Zn
  N43      1.0000 0.83710  0.58470  0.05340  Biso   1.000  N
  C31      1.0000 0.99330  0.60300  0.17660  Biso   1.000  C
  C32      1.0000 0.84030  0.62420  0.13260  Biso   1.000  C
  N44      1.0000 0.87920  0.48250  0.99450  Biso   1.000  N
  N45      1.0000 0.07110  0.68200  0.11920  Biso   1.000  N
  N46      1.0000 0.97950  0.61310  0.08670  Biso   1.000  N
  C33      1.0000 0.88570  0.65820  0.20230  Biso   1.000  C
  H67      1.0000 0.92200  0.65670  0.20440  Biso   1.000  H
  N47      1.0000 0.03040  0.66270  0.05100  Biso   1.000  N
  N48      1.0000 0.04980  0.64600  0.20160  Biso   1.000  N
  N49      1.0000 0.82880  0.44140  0.03880  Biso   1.000  N
  C34      1.0000 0.87510  0.69510  0.26990  Biso   1.000  C
  H68      1.0000 0.90580  0.72010  0.31560  Biso   1.000  H
  C35      1.0000 0.94820  0.55570  0.24790  Biso   1.000  C
  H69      1.0000 0.91040  0.52960  0.21260  Biso   1.000  H
  H70      1.0000 0.96470  0.53130  0.27380  Biso   1.000  H
  H71      1.0000 0.94020  0.57570  0.30300  Biso   1.000  H
  H72      1.0000 0.98380  0.52790  0.90440  Biso   1.000  H
  H73      1.0000 0.00070  0.48330  0.96050  Biso   1.000  H
  H74      1.0000 0.96880  0.46540  0.85400  Biso   1.000  H
  H75      1.0000 0.71940  0.51080  0.90410  Biso   1.000  H
  H76      1.0000 0.78730  0.53760  0.86710  Biso   1.000  H
  H77      1.0000 0.75860  0.48230  0.94340  Biso   1.000  H
  Zn8      1.0000 0.56945  0.90454  0.33457  Biso   1.000  Zn
  N50      1.0000 0.50377  0.91803  0.38673  Biso   1.000  N
  C36      1.0000 0.65997  0.93633  0.50993  Biso   1.000  C
  C37      1.0000 0.50697  0.95753  0.46593  Biso   1.000  C
  N51      1.0000 0.54587  0.81583  0.32783  Biso   1.000  N
  N52      1.0000 0.73777  0.01533  0.45253  Biso   1.000  N
  N53      1.0000 0.64617  0.94643  0.42003  Biso   1.000  N
  C38      1.0000 0.55237  0.99153  0.53563  Biso   1.000  C
  H78      1.0000 0.58867  0.99003  0.53773  Biso   1.000  H
  N54      1.0000 0.69707  0.99603  0.38433  Biso   1.000  N
  N55      1.0000 0.71647  0.97933  0.53493  Biso   1.000  N
  N56      1.0000 0.49547  0.77473  0.37213  Biso   1.000  N
  C39      1.0000 0.54177  0.02843  0.60323  Biso   1.000  C
  H79      1.0000 0.57247  0.05343  0.64893  Biso   1.000  H
  C40      1.0000 0.61487  0.88903  0.58123  Biso   1.000  C
  H80      1.0000 0.57707  0.86293  0.54593  Biso   1.000  H
  H81      1.0000 0.63137  0.86463  0.60713  Biso   1.000  H
  H82      1.0000 0.60687  0.90903  0.63633  Biso   1.000  H
  H83      1.0000 0.65047  0.86123  0.23773  Biso   1.000  H
  H84      1.0000 0.66737  0.81663  0.29383  Biso   1.000  H
  H85      1.0000 0.63547  0.79873  0.18733  Biso   1.000  H
  H86      1.0000 0.38607  0.84413  0.23743  Biso   1.000  H
  H87      1.0000 0.45397  0.87093  0.20043  Biso   1.000  H
  H88      1.0000 0.42527  0.81563  0.27673  Biso   1.000  H
  Zn9      1.0000 0.23611  0.23788  0.66791  Biso   1.000  Zn
  N57      1.0000 0.17043  0.25137  0.72007  Biso   1.000  N
  C41      1.0000 0.32663  0.26967  0.84327  Biso   1.000  C
  C42      1.0000 0.17363  0.29087  0.79927  Biso   1.000  C
  N58      1.0000 0.21253  0.14917  0.66117  Biso   1.000  N
  N59      1.0000 0.40443  0.34867  0.78587  Biso   1.000  N
  N60      1.0000 0.31283  0.27977  0.75337  Biso   1.000  N
  C43      1.0000 0.21903  0.32487  0.86897  Biso   1.000  C
  H89      1.0000 0.25533  0.32337  0.87107  Biso   1.000  H
  N61      1.0000 0.36373  0.32937  0.71767  Biso   1.000  N
  N62      1.0000 0.38313  0.31267  0.86827  Biso   1.000  N
  N63      1.0000 0.16213  0.10807  0.70547  Biso   1.000  N
  C44      1.0000 0.20843  0.36177  0.93657  Biso   1.000  C
  H90      1.0000 0.23913  0.38677  0.98227  Biso   1.000  H
  C45      1.0000 0.28153  0.22237  0.91457  Biso   1.000  C
  H91      1.0000 0.24373  0.19627  0.87927  Biso   1.000  H
  H92      1.0000 0.29803  0.19797  0.94047  Biso   1.000  H
  H93      1.0000 0.27353  0.24237  0.96967  Biso   1.000  H
  H94      1.0000 0.31713  0.19457  0.57107  Biso   1.000  H
  H95      1.0000 0.33403  0.14997  0.62717  Biso   1.000  H
  H96      1.0000 0.30213  0.13207  0.52067  Biso   1.000  H
  H97      1.0000 0.05273  0.17747  0.57077  Biso   1.000  H
  H98      1.0000 0.12063  0.20427  0.53377  Biso   1.000  H
  H99      1.0000 0.09193  0.14897  0.61007  Biso   1.000  H
  Zn10     1.0000 0.66843  0.57121  0.00124  Biso   1.000  Zn
  N64      1.0000 0.74760  0.58470  0.05340  Biso   1.000  N
  C46      1.0000 0.60970  0.60300  0.17660  Biso   1.000  C
  C47      1.0000 0.78390  0.62420  0.13260  Biso   1.000  C
  N65      1.0000 0.60330  0.48250  0.99450  Biso   1.000  N
  N66      1.0000 0.61090  0.68200  0.11920  Biso   1.000  N
  N67      1.0000 0.63360  0.61310  0.08670  Biso   1.000  N
  C48      1.0000 0.77250  0.65820  0.20230  Biso   1.000  C
  H100     1.0000 0.73470  0.65670  0.20440  Biso   1.000  H
  N68      1.0000 0.63230  0.66270  0.05100  Biso   1.000  N
  N69      1.0000 0.59620  0.64600  0.20160  Biso   1.000  N
  N70      1.0000 0.61260  0.44140  0.03880  Biso   1.000  N
  C49      1.0000 0.82000  0.69510  0.26990  Biso   1.000  C
  H101     1.0000 0.81430  0.72010  0.31560  Biso   1.000  H
  C50      1.0000 0.60750  0.55570  0.24790  Biso   1.000  C
  H102     1.0000 0.61920  0.52960  0.21260  Biso   1.000  H
  H103     1.0000 0.56660  0.53130  0.27380  Biso   1.000  H
  H104     1.0000 0.63550  0.57570  0.30300  Biso   1.000  H
  H105     1.0000 0.54410  0.52790  0.90440  Biso   1.000  H
  H106     1.0000 0.48260  0.48330  0.96050  Biso   1.000  H
  H107     1.0000 0.49660  0.46540  0.85400  Biso   1.000  H
  H108     1.0000 0.79140  0.51080  0.90410  Biso   1.000  H
  H109     1.0000 0.75030  0.53760  0.86710  Biso   1.000  H
  H110     1.0000 0.72370  0.48230  0.94340  Biso   1.000  H
  Zn11     1.0000 0.33510  0.90454  0.33457  Biso   1.000  Zn
  N71      1.0000 0.41427  0.91803  0.38673  Biso   1.000  N
  C51      1.0000 0.27637  0.93633  0.50993  Biso   1.000  C
  C52      1.0000 0.45057  0.95753  0.46593  Biso   1.000  C
  N72      1.0000 0.26997  0.81583  0.32783  Biso   1.000  N
  N73      1.0000 0.27757  0.01533  0.45253  Biso   1.000  N
  N74      1.0000 0.30027  0.94643  0.42003  Biso   1.000  N
  C53      1.0000 0.43917  0.99153  0.53563  Biso   1.000  C
  H111     1.0000 0.40137  0.99003  0.53773  Biso   1.000  H
  N75      1.0000 0.29897  0.99603  0.38433  Biso   1.000  N
  N76      1.0000 0.26287  0.97933  0.53493  Biso   1.000  N
  N77      1.0000 0.27927  0.77473  0.37213  Biso   1.000  N
  C54      1.0000 0.48667  0.02843  0.60323  Biso   1.000  C
  H112     1.0000 0.48097  0.05343  0.64893  Biso   1.000  H
  C55      1.0000 0.27417  0.88903  0.58123  Biso   1.000  C
  H113     1.0000 0.28587  0.86293  0.54593  Biso   1.000  H
  H114     1.0000 0.23327  0.86463  0.60713  Biso   1.000  H
  H115     1.0000 0.30217  0.90903  0.63633  Biso   1.000  H
  H116     1.0000 0.21077  0.86123  0.23773  Biso   1.000  H
  H117     1.0000 0.14927  0.81663  0.29383  Biso   1.000  H
  H118     1.0000 0.16327  0.79873  0.18733  Biso   1.000  H
  H119     1.0000 0.45807  0.84413  0.23743  Biso   1.000  H
  H120     1.0000 0.41697  0.87093  0.20043  Biso   1.000  H
  H121     1.0000 0.39037  0.81563  0.27673  Biso   1.000  H
  Zn12     1.0000 0.00176  0.23788  0.66791  Biso   1.000  Zn
  N78      1.0000 0.08093  0.25137  0.72007  Biso   1.000  N
  C56      1.0000 0.94303  0.26967  0.84327  Biso   1.000  C
  C57      1.0000 0.11723  0.29087  0.79927  Biso   1.000  C
  N79      1.0000 0.93663  0.14917  0.66117  Biso   1.000  N
  N80      1.0000 0.94423  0.34867  0.78587  Biso   1.000  N
  N81      1.0000 0.96693  0.27977  0.75337  Biso   1.000  N
  C58      1.0000 0.10583  0.32487  0.86897  Biso   1.000  C
  H122     1.0000 0.06803  0.32337  0.87107  Biso   1.000  H
  N82      1.0000 0.96563  0.32937  0.71767  Biso   1.000  N
  N83      1.0000 0.92953  0.31267  0.86827  Biso   1.000  N
  N84      1.0000 0.94593  0.10807  0.70547  Biso   1.000  N
  C59      1.0000 0.15333  0.36177  0.93657  Biso   1.000  C
  H123     1.0000 0.14763  0.38677  0.98227  Biso   1.000  H
  C60      1.0000 0.94083  0.22237  0.91457  Biso   1.000  C
  H124     1.0000 0.95253  0.19627  0.87927  Biso   1.000  H
  H125     1.0000 0.89993  0.19797  0.94047  Biso   1.000  H
  H126     1.0000 0.96883  0.24237  0.96967  Biso   1.000  H
  H127     1.0000 0.87743  0.19457  0.57107  Biso   1.000  H
  H128     1.0000 0.81593  0.14997  0.62717  Biso   1.000  H
  H129     1.0000 0.82993  0.13207  0.52067  Biso   1.000  H
  H130     1.0000 0.12473  0.17747  0.57077  Biso   1.000  H
  H131     1.0000 0.08363  0.20427  0.53377  Biso   1.000  H
  H132     1.0000 0.05703  0.14897  0.61007  Biso   1.000  H
  Zn13     1.0000 0.90278  0.33157  0.00124  Biso   1.000  Zn
  N85      1.0000 0.83710  0.25240  0.05340  Biso   1.000  N
  C61      1.0000 0.99330  0.39030  0.17660  Biso   1.000  C
  C62      1.0000 0.84030  0.21610  0.13260  Biso   1.000  C
  N86      1.0000 0.87920  0.39670  0.99450  Biso   1.000  N
  N87      1.0000 0.07110  0.38910  0.11920  Biso   1.000  N
  N88      1.0000 0.97950  0.36640  0.08670  Biso   1.000  N
  C63      1.0000 0.88570  0.22750  0.20230  Biso   1.000  C
  H133     1.0000 0.92200  0.26530  0.20440  Biso   1.000  H
  N89      1.0000 0.03040  0.36770  0.05100  Biso   1.000  N
  N90      1.0000 0.04980  0.40380  0.20160  Biso   1.000  N
  N91      1.0000 0.82880  0.38740  0.03880  Biso   1.000  N
  C64      1.0000 0.87510  0.18000  0.26990  Biso   1.000  C
  H134     1.0000 0.90580  0.18570  0.31560  Biso   1.000  H
  C65      1.0000 0.94820  0.39250  0.24790  Biso   1.000  C
  H135     1.0000 0.91040  0.38080  0.21260  Biso   1.000  H
  H136     1.0000 0.96470  0.43340  0.27380  Biso   1.000  H
  H137     1.0000 0.94020  0.36450  0.30300  Biso   1.000  H
  H138     1.0000 0.98380  0.45590  0.90440  Biso   1.000  H
  H139     1.0000 0.00070  0.51740  0.96050  Biso   1.000  H
  H140     1.0000 0.96880  0.50340  0.85400  Biso   1.000  H
  H141     1.0000 0.71940  0.20860  0.90410  Biso   1.000  H
  H142     1.0000 0.78730  0.24970  0.86710  Biso   1.000  H
  H143     1.0000 0.75860  0.27630  0.94340  Biso   1.000  H
  Zn14     1.0000 0.56945  0.66490  0.33457  Biso   1.000  Zn
  N92      1.0000 0.50377  0.58573  0.38673  Biso   1.000  N
  C66      1.0000 0.65997  0.72363  0.50993  Biso   1.000  C
  C67      1.0000 0.50697  0.54943  0.46593  Biso   1.000  C
  N93      1.0000 0.54587  0.73003  0.32783  Biso   1.000  N
  N94      1.0000 0.73777  0.72243  0.45253  Biso   1.000  N
  N95      1.0000 0.64617  0.69973  0.42003  Biso   1.000  N
  C68      1.0000 0.55237  0.56083  0.53563  Biso   1.000  C
  H144     1.0000 0.58867  0.59863  0.53773  Biso   1.000  H
  N96      1.0000 0.69707  0.70103  0.38433  Biso   1.000  N
  N97      1.0000 0.71647  0.73713  0.53493  Biso   1.000  N
  N98      1.0000 0.49547  0.72073  0.37213  Biso   1.000  N
  C69      1.0000 0.54177  0.51333  0.60323  Biso   1.000  C
  H145     1.0000 0.57247  0.51903  0.64893  Biso   1.000  H
  C70      1.0000 0.61487  0.72583  0.58123  Biso   1.000  C
  H146     1.0000 0.57707  0.71413  0.54593  Biso   1.000  H
  H147     1.0000 0.63137  0.76673  0.60713  Biso   1.000  H
  H148     1.0000 0.60687  0.69783  0.63633  Biso   1.000  H
  H149     1.0000 0.65047  0.78923  0.23773  Biso   1.000  H
  H150     1.0000 0.66737  0.85073  0.29383  Biso   1.000  H
  H151     1.0000 0.63547  0.83673  0.18733  Biso   1.000  H
  H152     1.0000 0.38607  0.54193  0.23743  Biso   1.000  H
  H153     1.0000 0.45397  0.58303  0.20043  Biso   1.000  H
  H154     1.0000 0.42527  0.60963  0.27673  Biso   1.000  H
  Zn15     1.0000 0.23611  0.99824  0.66791  Biso   1.000  Zn
  N99      1.0000 0.17043  0.91907  0.72007  Biso   1.000  N
  C71      1.0000 0.32663  0.05697  0.84327  Biso   1.000  C
  C72      1.0000 0.17363  0.88277  0.79927  Biso   1.000  C
  N100     1.0000 0.21253  0.06337  0.66117  Biso   1.000  N
  N101     1.0000 0.40443  0.05577  0.78587  Biso   1.000  N
  N102     1.0000 0.31283  0.03307  0.75337  Biso   1.000  N
  C73      1.0000 0.21903  0.89417  0.86897  Biso   1.000  C
  H155     1.0000 0.25533  0.93197  0.87107  Biso   1.000  H
  N103     1.0000 0.36373  0.03437  0.71767  Biso   1.000  N
  N104     1.0000 0.38313  0.07047  0.86827  Biso   1.000  N
  N105     1.0000 0.16213  0.05407  0.70547  Biso   1.000  N
  C74      1.0000 0.20843  0.84667  0.93657  Biso   1.000  C
  H156     1.0000 0.23913  0.85237  0.98227  Biso   1.000  H
  C75      1.0000 0.28153  0.05917  0.91457  Biso   1.000  C
  H157     1.0000 0.24373  0.04747  0.87927  Biso   1.000  H
  H158     1.0000 0.29803  0.10007  0.94047  Biso   1.000  H
  H159     1.0000 0.27353  0.03117  0.96967  Biso   1.000  H
  H160     1.0000 0.31713  0.12257  0.57107  Biso   1.000  H
  H161     1.0000 0.33403  0.18407  0.62717  Biso   1.000  H
  H162     1.0000 0.30213  0.17007  0.52067  Biso   1.000  H
  H163     1.0000 0.05273  0.87527  0.57077  Biso   1.000  H
  H164     1.0000 0.12063  0.91637  0.53377  Biso   1.000  H
  H165     1.0000 0.09193  0.94297  0.61007  Biso   1.000  H
  Zn16     1.0000 0.42879  0.09722  0.00124  Biso   1.000  Zn
  N106     1.0000 0.41530  0.16290  0.05340  Biso   1.000  N
  C76      1.0000 0.39700  0.00670  0.17660  Biso   1.000  C
  C77      1.0000 0.37580  0.15970  0.13260  Biso   1.000  C
  N107     1.0000 0.51750  0.12080  0.99450  Biso   1.000  N
  N108     1.0000 0.31800  0.92890  0.11920  Biso   1.000  N
  N109     1.0000 0.38690  0.02050  0.08670  Biso   1.000  N
  C78      1.0000 0.34180  0.11430  0.20230  Biso   1.000  C
  H166     1.0000 0.34330  0.07800  0.20440  Biso   1.000  H
  N110     1.0000 0.33730  0.96960  0.05100  Biso   1.000  N
  N111     1.0000 0.35400  0.95020  0.20160  Biso   1.000  N
  N112     1.0000 0.55860  0.17120  0.03880  Biso   1.000  N
  C79      1.0000 0.30490  0.12490  0.26990  Biso   1.000  C
  H167     1.0000 0.27990  0.09420  0.31560  Biso   1.000  H
  C80      1.0000 0.44430  0.05180  0.24790  Biso   1.000  C
  H168     1.0000 0.47040  0.08960  0.21260  Biso   1.000  H
  H169     1.0000 0.46870  0.03530  0.27380  Biso   1.000  H
  H170     1.0000 0.42430  0.05980  0.30300  Biso   1.000  H
  H171     1.0000 0.47210  0.01620  0.90440  Biso   1.000  H
  H172     1.0000 0.51670  0.99930  0.96050  Biso   1.000  H
  H173     1.0000 0.53460  0.03120  0.85400  Biso   1.000  H
  H174     1.0000 0.48920  0.28060  0.90410  Biso   1.000  H
  H175     1.0000 0.46240  0.21270  0.86710  Biso   1.000  H
  H176     1.0000 0.51770  0.24140  0.94340  Biso   1.000  H
  Zn17     1.0000 0.09546  0.43055  0.33457  Biso   1.000  Zn
  N113     1.0000 0.08197  0.49623  0.38673  Biso   1.000  N
  C81      1.0000 0.06367  0.34003  0.50993  Biso   1.000  C
  C82      1.0000 0.04247  0.49303  0.46593  Biso   1.000  C
  N114     1.0000 0.18417  0.45413  0.32783  Biso   1.000  N
  N115     1.0000 0.98467  0.26223  0.45253  Biso   1.000  N
  N116     1.0000 0.05357  0.35383  0.42003  Biso   1.000  N
  C83      1.0000 0.00847  0.44763  0.53563  Biso   1.000  C
  H177     1.0000 0.00997  0.41133  0.53773  Biso   1.000  H
  N117     1.0000 0.00397  0.30293  0.38433  Biso   1.000  N
  N118     1.0000 0.02067  0.28353  0.53493  Biso   1.000  N
  N119     1.0000 0.22527  0.50453  0.37213  Biso   1.000  N
  C84      1.0000 0.97157  0.45823  0.60323  Biso   1.000  C
  H178     1.0000 0.94657  0.42753  0.64893  Biso   1.000  H
  C85      1.0000 0.11097  0.38513  0.58123  Biso   1.000  C
  H179     1.0000 0.13707  0.42293  0.54593  Biso   1.000  H
  H180     1.0000 0.13537  0.36863  0.60713  Biso   1.000  H
  H181     1.0000 0.09097  0.39313  0.63633  Biso   1.000  H
  H182     1.0000 0.13877  0.34953  0.23773  Biso   1.000  H
  H183     1.0000 0.18337  0.33263  0.29383  Biso   1.000  H
  H184     1.0000 0.20127  0.36453  0.18733  Biso   1.000  H
  H185     1.0000 0.15587  0.61393  0.23743  Biso   1.000  H
  H186     1.0000 0.12907  0.54603  0.20043  Biso   1.000  H
  H187     1.0000 0.18437  0.57473  0.27673  Biso   1.000  H
  Zn18     1.0000 0.76212  0.76389  0.66791  Biso   1.000  Zn
  N120     1.0000 0.74863  0.82957  0.72007  Biso   1.000  N
  C86      1.0000 0.73033  0.67337  0.84327  Biso   1.000  C
  C87      1.0000 0.70913  0.82637  0.79927  Biso   1.000  C
  N121     1.0000 0.85083  0.78747  0.66117  Biso   1.000  N
  N122     1.0000 0.65133  0.59557  0.78587  Biso   1.000  N
  N123     1.0000 0.72023  0.68717  0.75337  Biso   1.000  N
  C88      1.0000 0.67513  0.78097  0.86897  Biso   1.000  C
  H188     1.0000 0.67663  0.74467  0.87107  Biso   1.000  H
  N124     1.0000 0.67063  0.63627  0.71767  Biso   1.000  N
  N125     1.0000 0.68733  0.61687  0.86827  Biso   1.000  N
  N126     1.0000 0.89193  0.83787  0.70547  Biso   1.000  N
  C89      1.0000 0.63823  0.79157  0.93657  Biso   1.000  C
  H189     1.0000 0.61323  0.76087  0.98227  Biso   1.000  H
  C90      1.0000 0.77763  0.71847  0.91457  Biso   1.000  C
  H190     1.0000 0.80373  0.75627  0.87927  Biso   1.000  H
  H191     1.0000 0.80203  0.70197  0.94047  Biso   1.000  H
  H192     1.0000 0.75763  0.72647  0.96967  Biso   1.000  H
  H193     1.0000 0.80543  0.68287  0.57107  Biso   1.000  H
  H194     1.0000 0.85003  0.66597  0.62717  Biso   1.000  H
  H195     1.0000 0.86793  0.69787  0.52067  Biso   1.000  H
  H196     1.0000 0.82253  0.94727  0.57077  Biso   1.000  H
  H197     1.0000 0.79573  0.87937  0.53377  Biso   1.000  H
  H198     1.0000 0.85103  0.90807  0.61007  Biso   1.000  H
  C91      1.0000 0.54610  0.45390  0.96850  Biso   1.000  C
  C92      1.0000 0.51440  0.48560  0.91700  Biso   1.000  C
  C93      1.0000 0.21277  0.78723  0.30183  Biso   1.000  C
  C94      1.0000 0.18107  0.81893  0.25033  Biso   1.000  C
  C95      1.0000 0.87943  0.12057  0.63517  Biso   1.000  C
  C96      1.0000 0.84773  0.15227  0.58367  Biso   1.000  C
  C97      1.0000 0.54610  0.09220  0.96850  Biso   1.000  C
  C98      1.0000 0.51440  0.02880  0.91700  Biso   1.000  C
  C99      1.0000 0.21277  0.42553  0.30183  Biso   1.000  C
  C100     1.0000 0.18107  0.36213  0.25033  Biso   1.000  C
  C101     1.0000 0.87943  0.75887  0.63517  Biso   1.000  C
  C102     1.0000 0.84773  0.69547  0.58367  Biso   1.000  C
  C103     1.0000 0.90780  0.45390  0.96850  Biso   1.000  C
  C104     1.0000 0.97120  0.48560  0.91700  Biso   1.000  C
  C105     1.0000 0.57447  0.78723  0.30183  Biso   1.000  C
  C106     1.0000 0.63787  0.81893  0.25033  Biso   1.000  C
  C107     1.0000 0.24113  0.12057  0.63517  Biso   1.000  C
  C108     1.0000 0.30453  0.15227  0.58367  Biso   1.000  C
  C109     1.0000 0.43700  0.21850  0.00850  Biso   1.000  C
  C110     1.0000 0.48030  0.24015  0.92350  Biso   1.000  C
  C111     1.0000 0.10367  0.55183  0.34183  Biso   1.000  C
  C112     1.0000 0.14697  0.57348  0.25683  Biso   1.000  C
  C113     1.0000 0.77033  0.88517  0.67517  Biso   1.000  C
  C114     1.0000 0.81363  0.90682  0.59017  Biso   1.000  C
  C115     1.0000 0.78150  0.21850  0.00850  Biso   1.000  C
  C116     1.0000 0.75985  0.24015  0.92350  Biso   1.000  C
  C117     1.0000 0.44817  0.55183  0.34183  Biso   1.000  C
  C118     1.0000 0.42652  0.57348  0.25683  Biso   1.000  C
  C119     1.0000 0.11483  0.88517  0.67517  Biso   1.000  C
  C120     1.0000 0.09318  0.90682  0.59017  Biso   1.000  C
  C121     1.0000 0.78150  0.56300  0.00850  Biso   1.000  C
  C122     1.0000 0.75985  0.51970  0.92350  Biso   1.000  C
  C123     1.0000 0.44817  0.89633  0.34183  Biso   1.000  C
  C124     1.0000 0.42652  0.85303  0.25683  Biso   1.000  C
  C125     1.0000 0.11483  0.22967  0.67517  Biso   1.000  C
  C126     1.0000 0.09318  0.18637  0.59017  Biso   1.000  C
