data_image0
_cell_length_a       19.2919
_cell_length_b       19.2919
_cell_length_c       19.2919
_cell_angle_alpha    90
_cell_angle_beta     90
_cell_angle_gamma    90

_symmetry_space_group_name_H-M    "P 1"
_symmetry_int_tables_number       1

loop_
  _symmetry_equiv_pos_as_xyz
  'x, y, z'

loop_
  _atom_site_label
  _atom_site_occupancy
  _atom_site_fract_x
  _atom_site_fract_y
  _atom_site_fract_z
  _atom_site_thermal_displace_type
  _atom_site_B_iso_or_equiv
  _atom_site_type_symbol
  C1       1.0000 0.05370  0.69310  0.00100  Biso   1.000  C
  H1       1.0000 0.10000  0.71130  0.00190  Biso   1.000  H
  C2       1.0000 0.04540  0.62070  0.00110  Biso   1.000  C
  H2       1.0000 0.08430  0.58970  0.00110  Biso   1.000  H
  C3       1.0000 0.97980  0.59870  0.99820  Biso   1.000  C
  C4       1.0000 0.07410  0.64180  0.00240  Biso   1.000  C
  H3       1.0000 0.12040  0.62370  0.00330  Biso   1.000  H
  C5       1.0000 0.93390  0.71380  0.99940  Biso   1.000  C
  H4       1.0000 0.10500  0.74480  0.00070  Biso   1.000  H
  C6       1.0000 0.96750  0.52060  0.99440  Biso   1.000  C
  H5       1.0000 0.00340  0.49150  0.98770  Biso   1.000  H
  O1       1.0000 0.03611  0.84689  0.95852  Biso   1.000  O
  N1       1.0000 0.52060  0.99440  0.96750  Biso   1.000  N
  C7       1.0000 0.94630  0.30690  0.00100  Biso   1.000  C
  H6       1.0000 0.90000  0.28870  0.00190  Biso   1.000  H
  C8       1.0000 0.95460  0.37930  0.00110  Biso   1.000  C
  H7       1.0000 0.91570  0.41030  0.00110  Biso   1.000  H
  C9       1.0000 0.02020  0.40130  0.99820  Biso   1.000  C
  C10      1.0000 0.92590  0.35820  0.00240  Biso   1.000  C
  H8       1.0000 0.87960  0.37630  0.00330  Biso   1.000  H
  C11      1.0000 0.06610  0.28620  0.99940  Biso   1.000  C
  H9       1.0000 0.89500  0.25520  0.00070  Biso   1.000  H
  C12      1.0000 0.03250  0.47940  0.99440  Biso   1.000  C
  H10      1.0000 0.99660  0.50850  0.98770  Biso   1.000  H
  O2       1.0000 0.96389  0.15311  0.95852  Biso   1.000  O
  N2       1.0000 0.47940  0.00560  0.96750  Biso   1.000  N
  C13      1.0000 0.94630  0.69310  0.99900  Biso   1.000  C
  H11      1.0000 0.90000  0.71130  0.99810  Biso   1.000  H
  C14      1.0000 0.95460  0.62070  0.99890  Biso   1.000  C
  H12      1.0000 0.91570  0.58970  0.99890  Biso   1.000  H
  C15      1.0000 0.02020  0.59870  0.00180  Biso   1.000  C
  C16      1.0000 0.92590  0.64180  0.99760  Biso   1.000  C
  H13      1.0000 0.87960  0.62370  0.99670  Biso   1.000  H
  C17      1.0000 0.06610  0.71380  0.00060  Biso   1.000  C
  H14      1.0000 0.89500  0.74480  0.99930  Biso   1.000  H
  C18      1.0000 0.03250  0.52060  0.00560  Biso   1.000  C
  H15      1.0000 0.99660  0.49150  0.01230  Biso   1.000  H
  O3       1.0000 0.96389  0.84689  0.04148  Biso   1.000  O
  N3       1.0000 0.47940  0.99440  0.03250  Biso   1.000  N
  C19      1.0000 0.05370  0.30690  0.99900  Biso   1.000  C
  H16      1.0000 0.10000  0.28870  0.99810  Biso   1.000  H
  C20      1.0000 0.04540  0.37930  0.99890  Biso   1.000  C
  H17      1.0000 0.08430  0.41030  0.99890  Biso   1.000  H
  C21      1.0000 0.97980  0.40130  0.00180  Biso   1.000  C
  C22      1.0000 0.07410  0.35820  0.99760  Biso   1.000  C
  H18      1.0000 0.12040  0.37630  0.99670  Biso   1.000  H
  C23      1.0000 0.93390  0.28620  0.00060  Biso   1.000  C
  H19      1.0000 0.10500  0.25520  0.99930  Biso   1.000  H
  C24      1.0000 0.96750  0.47940  0.00560  Biso   1.000  C
  H20      1.0000 0.00340  0.50850  0.01230  Biso   1.000  H
  O4       1.0000 0.03611  0.15311  0.04148  Biso   1.000  O
  N4       1.0000 0.52060  0.00560  0.03250  Biso   1.000  N
  C25      1.0000 0.00100  0.05370  0.69310  Biso   1.000  C
  H21      1.0000 0.00190  0.10000  0.71130  Biso   1.000  H
  C26      1.0000 0.00110  0.04540  0.62070  Biso   1.000  C
  H22      1.0000 0.00110  0.08430  0.58970  Biso   1.000  H
  C27      1.0000 0.99820  0.97980  0.59870  Biso   1.000  C
  C28      1.0000 0.00240  0.07410  0.64180  Biso   1.000  C
  H23      1.0000 0.00330  0.12040  0.62370  Biso   1.000  H
  C29      1.0000 0.99940  0.93390  0.71380  Biso   1.000  C
  H24      1.0000 0.00070  0.10500  0.74480  Biso   1.000  H
  C30      1.0000 0.99440  0.96750  0.52060  Biso   1.000  C
  H25      1.0000 0.98770  0.00340  0.49150  Biso   1.000  H
  O5       1.0000 0.95852  0.03611  0.84689  Biso   1.000  O
  C31      1.0000 0.00100  0.94630  0.30690  Biso   1.000  C
  H26      1.0000 0.00190  0.90000  0.28870  Biso   1.000  H
  C32      1.0000 0.00110  0.95460  0.37930  Biso   1.000  C
  H27      1.0000 0.00110  0.91570  0.41030  Biso   1.000  H
  C33      1.0000 0.99820  0.02020  0.40130  Biso   1.000  C
  C34      1.0000 0.00240  0.92590  0.35820  Biso   1.000  C
  H28      1.0000 0.00330  0.87960  0.37630  Biso   1.000  H
  C35      1.0000 0.99940  0.06610  0.28620  Biso   1.000  C
  H29      1.0000 0.00070  0.89500  0.25520  Biso   1.000  H
  C36      1.0000 0.99440  0.03250  0.47940  Biso   1.000  C
  H30      1.0000 0.98770  0.99660  0.50850  Biso   1.000  H
  O6       1.0000 0.95852  0.96389  0.15311  Biso   1.000  O
  C37      1.0000 0.99900  0.94630  0.69310  Biso   1.000  C
  H31      1.0000 0.99810  0.90000  0.71130  Biso   1.000  H
  C38      1.0000 0.99890  0.95460  0.62070  Biso   1.000  C
  H32      1.0000 0.99890  0.91570  0.58970  Biso   1.000  H
  C39      1.0000 0.00180  0.02020  0.59870  Biso   1.000  C
  C40      1.0000 0.99760  0.92590  0.64180  Biso   1.000  C
  H33      1.0000 0.99670  0.87960  0.62370  Biso   1.000  H
  C41      1.0000 0.00060  0.06610  0.71380  Biso   1.000  C
  H34      1.0000 0.99930  0.89500  0.74480  Biso   1.000  H
  C42      1.0000 0.00560  0.03250  0.52060  Biso   1.000  C
  H35      1.0000 0.01230  0.99660  0.49150  Biso   1.000  H
  O7       1.0000 0.04148  0.96389  0.84689  Biso   1.000  O
  C43      1.0000 0.99900  0.05370  0.30690  Biso   1.000  C
  H36      1.0000 0.99810  0.10000  0.28870  Biso   1.000  H
  C44      1.0000 0.99890  0.04540  0.37930  Biso   1.000  C
  H37      1.0000 0.99890  0.08430  0.41030  Biso   1.000  H
  C45      1.0000 0.00180  0.97980  0.40130  Biso   1.000  C
  C46      1.0000 0.99760  0.07410  0.35820  Biso   1.000  C
  H38      1.0000 0.99670  0.12040  0.37630  Biso   1.000  H
  C47      1.0000 0.00060  0.93390  0.28620  Biso   1.000  C
  H39      1.0000 0.99930  0.10500  0.25520  Biso   1.000  H
  C48      1.0000 0.00560  0.96750  0.47940  Biso   1.000  C
  H40      1.0000 0.01230  0.00340  0.50850  Biso   1.000  H
  O8       1.0000 0.04148  0.03611  0.15311  Biso   1.000  O
  C49      1.0000 0.69310  0.00100  0.05370  Biso   1.000  C
  H41      1.0000 0.71130  0.00190  0.10000  Biso   1.000  H
  C50      1.0000 0.62070  0.00110  0.04540  Biso   1.000  C
  H42      1.0000 0.58970  0.00110  0.08430  Biso   1.000  H
  C51      1.0000 0.59870  0.99820  0.97980  Biso   1.000  C
  C52      1.0000 0.64180  0.00240  0.07410  Biso   1.000  C
  H43      1.0000 0.62370  0.00330  0.12040  Biso   1.000  H
  C53      1.0000 0.71380  0.99940  0.93390  Biso   1.000  C
  H44      1.0000 0.74480  0.00070  0.10500  Biso   1.000  H
  H45      1.0000 0.49150  0.98770  0.00340  Biso   1.000  H
  O9       1.0000 0.84689  0.95852  0.03611  Biso   1.000  O
  C54      1.0000 0.30690  0.00100  0.94630  Biso   1.000  C
  H46      1.0000 0.28870  0.00190  0.90000  Biso   1.000  H
  C55      1.0000 0.37930  0.00110  0.95460  Biso   1.000  C
  H47      1.0000 0.41030  0.00110  0.91570  Biso   1.000  H
  C56      1.0000 0.40130  0.99820  0.02020  Biso   1.000  C
  C57      1.0000 0.35820  0.00240  0.92590  Biso   1.000  C
  H48      1.0000 0.37630  0.00330  0.87960  Biso   1.000  H
  C58      1.0000 0.28620  0.99940  0.06610  Biso   1.000  C
  H49      1.0000 0.25520  0.00070  0.89500  Biso   1.000  H
  H50      1.0000 0.50850  0.98770  0.99660  Biso   1.000  H
  O10      1.0000 0.15311  0.95852  0.96389  Biso   1.000  O
  C59      1.0000 0.69310  0.99900  0.94630  Biso   1.000  C
  H51      1.0000 0.71130  0.99810  0.90000  Biso   1.000  H
  C60      1.0000 0.62070  0.99890  0.95460  Biso   1.000  C
  H52      1.0000 0.58970  0.99890  0.91570  Biso   1.000  H
  C61      1.0000 0.59870  0.00180  0.02020  Biso   1.000  C
  C62      1.0000 0.64180  0.99760  0.92590  Biso   1.000  C
  H53      1.0000 0.62370  0.99670  0.87960  Biso   1.000  H
  C63      1.0000 0.71380  0.00060  0.06610  Biso   1.000  C
  H54      1.0000 0.74480  0.99930  0.89500  Biso   1.000  H
  H55      1.0000 0.49150  0.01230  0.99660  Biso   1.000  H
  O11      1.0000 0.84689  0.04148  0.96389  Biso   1.000  O
  C64      1.0000 0.30690  0.99900  0.05370  Biso   1.000  C
  H56      1.0000 0.28870  0.99810  0.10000  Biso   1.000  H
  C65      1.0000 0.37930  0.99890  0.04540  Biso   1.000  C
  H57      1.0000 0.41030  0.99890  0.08430  Biso   1.000  H
  C66      1.0000 0.40130  0.00180  0.97980  Biso   1.000  C
  C67      1.0000 0.35820  0.99760  0.07410  Biso   1.000  C
  H58      1.0000 0.37630  0.99670  0.12040  Biso   1.000  H
  C68      1.0000 0.28620  0.00060  0.93390  Biso   1.000  C
  H59      1.0000 0.25520  0.99930  0.10500  Biso   1.000  H
  H60      1.0000 0.50850  0.01230  0.00340  Biso   1.000  H
  O12      1.0000 0.15311  0.04148  0.03611  Biso   1.000  O
  C69      1.0000 0.00000  0.81750  0.00000  Biso   1.000  C
  C70      1.0000 0.00000  0.73980  0.00000  Biso   1.000  C
  C71      1.0000 0.00000  0.18250  0.00000  Biso   1.000  C
  C72      1.0000 0.00000  0.26020  0.00000  Biso   1.000  C
  C73      1.0000 0.00000  0.00000  0.81750  Biso   1.000  C
  C74      1.0000 0.00000  0.00000  0.73980  Biso   1.000  C
  C75      1.0000 0.00000  0.00000  0.18250  Biso   1.000  C
  C76      1.0000 0.00000  0.00000  0.26020  Biso   1.000  C
  C77      1.0000 0.81750  0.00000  0.00000  Biso   1.000  C
  C78      1.0000 0.73980  0.00000  0.00000  Biso   1.000  C
  C79      1.0000 0.18250  0.00000  0.00000  Biso   1.000  C
  C80      1.0000 0.26020  0.00000  0.00000  Biso   1.000  C
  O13      1.0000 0.00000  0.00000  0.00000  Biso   1.000  O
  O14      1.0000 0.91420  0.50000  0.00000  Biso   1.000  O
  O15      1.0000 0.08580  0.50000  0.00000  Biso   1.000  O
  O16      1.0000 0.00000  0.91420  0.50000  Biso   1.000  O
  O17      1.0000 0.00000  0.08580  0.50000  Biso   1.000  O
  O18      1.0000 0.50000  0.00000  0.91420  Biso   1.000  O
  O19      1.0000 0.50000  0.00000  0.08580  Biso   1.000  O
  Zn1      1.0000 0.05881  0.94119  0.94119  Biso   1.000  Zn
  Zn2      1.0000 0.94119  0.05881  0.94119  Biso   1.000  Zn
  Zn3      1.0000 0.94119  0.94119  0.05881  Biso   1.000  Zn
  Zn4      1.0000 0.05881  0.05881  0.05881  Biso   1.000  Zn
  C81      1.0000 0.55370  0.19310  0.50100  Biso   1.000  C
  H61      1.0000 0.60000  0.21130  0.50190  Biso   1.000  H
  C82      1.0000 0.54540  0.12070  0.50110  Biso   1.000  C
  H62      1.0000 0.58430  0.08970  0.50110  Biso   1.000  H
  C83      1.0000 0.47980  0.09870  0.49820  Biso   1.000  C
  C84      1.0000 0.57410  0.14180  0.50240  Biso   1.000  C
  H63      1.0000 0.62040  0.12370  0.50330  Biso   1.000  H
  C85      1.0000 0.43390  0.21380  0.49940  Biso   1.000  C
  H64      1.0000 0.60500  0.24480  0.50070  Biso   1.000  H
  C86      1.0000 0.46750  0.02060  0.49440  Biso   1.000  C
  H65      1.0000 0.50340  0.99150  0.48770  Biso   1.000  H
  O20      1.0000 0.53611  0.34689  0.45852  Biso   1.000  O
  N5       1.0000 0.02060  0.49440  0.46750  Biso   1.000  N
  C87      1.0000 0.44630  0.80690  0.50100  Biso   1.000  C
  H66      1.0000 0.40000  0.78870  0.50190  Biso   1.000  H
  C88      1.0000 0.45460  0.87930  0.50110  Biso   1.000  C
  H67      1.0000 0.41570  0.91030  0.50110  Biso   1.000  H
  C89      1.0000 0.52020  0.90130  0.49820  Biso   1.000  C
  C90      1.0000 0.42590  0.85820  0.50240  Biso   1.000  C
  H68      1.0000 0.37960  0.87630  0.50330  Biso   1.000  H
  C91      1.0000 0.56610  0.78620  0.49940  Biso   1.000  C
  H69      1.0000 0.39500  0.75520  0.50070  Biso   1.000  H
  C92      1.0000 0.53250  0.97940  0.49440  Biso   1.000  C
  H70      1.0000 0.49660  0.00850  0.48770  Biso   1.000  H
  O21      1.0000 0.46389  0.65311  0.45852  Biso   1.000  O
  N6       1.0000 0.97940  0.50560  0.46750  Biso   1.000  N
  C93      1.0000 0.44630  0.19310  0.49900  Biso   1.000  C
  H71      1.0000 0.40000  0.21130  0.49810  Biso   1.000  H
  C94      1.0000 0.45460  0.12070  0.49890  Biso   1.000  C
  H72      1.0000 0.41570  0.08970  0.49890  Biso   1.000  H
  C95      1.0000 0.52020  0.09870  0.50180  Biso   1.000  C
  C96      1.0000 0.42590  0.14180  0.49760  Biso   1.000  C
  H73      1.0000 0.37960  0.12370  0.49670  Biso   1.000  H
  C97      1.0000 0.56610  0.21380  0.50060  Biso   1.000  C
  H74      1.0000 0.39500  0.24480  0.49930  Biso   1.000  H
  C98      1.0000 0.53250  0.02060  0.50560  Biso   1.000  C
  H75      1.0000 0.49660  0.99150  0.51230  Biso   1.000  H
  O22      1.0000 0.46389  0.34689  0.54148  Biso   1.000  O
  N7       1.0000 0.97940  0.49440  0.53250  Biso   1.000  N
  C99      1.0000 0.55370  0.80690  0.49900  Biso   1.000  C
  H76      1.0000 0.60000  0.78870  0.49810  Biso   1.000  H
  C100     1.0000 0.54540  0.87930  0.49890  Biso   1.000  C
  H77      1.0000 0.58430  0.91030  0.49890  Biso   1.000  H
  C101     1.0000 0.47980  0.90130  0.50180  Biso   1.000  C
  C102     1.0000 0.57410  0.85820  0.49760  Biso   1.000  C
  H78      1.0000 0.62040  0.87630  0.49670  Biso   1.000  H
  C103     1.0000 0.43390  0.78620  0.50060  Biso   1.000  C
  H79      1.0000 0.60500  0.75520  0.49930  Biso   1.000  H
  C104     1.0000 0.46750  0.97940  0.50560  Biso   1.000  C
  H80      1.0000 0.50340  0.00850  0.51230  Biso   1.000  H
  O23      1.0000 0.53611  0.65311  0.54148  Biso   1.000  O
  N8       1.0000 0.02060  0.50560  0.53250  Biso   1.000  N
  C105     1.0000 0.50100  0.55370  0.19310  Biso   1.000  C
  H81      1.0000 0.50190  0.60000  0.21130  Biso   1.000  H
  C106     1.0000 0.50110  0.54540  0.12070  Biso   1.000  C
  H82      1.0000 0.50110  0.58430  0.08970  Biso   1.000  H
  C107     1.0000 0.49820  0.47980  0.09870  Biso   1.000  C
  C108     1.0000 0.50240  0.57410  0.14180  Biso   1.000  C
  H83      1.0000 0.50330  0.62040  0.12370  Biso   1.000  H
  C109     1.0000 0.49940  0.43390  0.21380  Biso   1.000  C
  H84      1.0000 0.50070  0.60500  0.24480  Biso   1.000  H
  C110     1.0000 0.49440  0.46750  0.02060  Biso   1.000  C
  H85      1.0000 0.48770  0.50340  0.99150  Biso   1.000  H
  O24      1.0000 0.45852  0.53611  0.34689  Biso   1.000  O
  C111     1.0000 0.50100  0.44630  0.80690  Biso   1.000  C
  H86      1.0000 0.50190  0.40000  0.78870  Biso   1.000  H
  C112     1.0000 0.50110  0.45460  0.87930  Biso   1.000  C
  H87      1.0000 0.50110  0.41570  0.91030  Biso   1.000  H
  C113     1.0000 0.49820  0.52020  0.90130  Biso   1.000  C
  C114     1.0000 0.50240  0.42590  0.85820  Biso   1.000  C
  H88      1.0000 0.50330  0.37960  0.87630  Biso   1.000  H
  C115     1.0000 0.49940  0.56610  0.78620  Biso   1.000  C
  H89      1.0000 0.50070  0.39500  0.75520  Biso   1.000  H
  C116     1.0000 0.49440  0.53250  0.97940  Biso   1.000  C
  H90      1.0000 0.48770  0.49660  0.00850  Biso   1.000  H
  O25      1.0000 0.45852  0.46389  0.65311  Biso   1.000  O
  C117     1.0000 0.49900  0.44630  0.19310  Biso   1.000  C
  H91      1.0000 0.49810  0.40000  0.21130  Biso   1.000  H
  C118     1.0000 0.49890  0.45460  0.12070  Biso   1.000  C
  H92      1.0000 0.49890  0.41570  0.08970  Biso   1.000  H
  C119     1.0000 0.50180  0.52020  0.09870  Biso   1.000  C
  C120     1.0000 0.49760  0.42590  0.14180  Biso   1.000  C
  H93      1.0000 0.49670  0.37960  0.12370  Biso   1.000  H
  C121     1.0000 0.50060  0.56610  0.21380  Biso   1.000  C
  H94      1.0000 0.49930  0.39500  0.24480  Biso   1.000  H
  C122     1.0000 0.50560  0.53250  0.02060  Biso   1.000  C
  H95      1.0000 0.51230  0.49660  0.99150  Biso   1.000  H
  O26      1.0000 0.54148  0.46389  0.34689  Biso   1.000  O
  C123     1.0000 0.49900  0.55370  0.80690  Biso   1.000  C
  H96      1.0000 0.49810  0.60000  0.78870  Biso   1.000  H
  C124     1.0000 0.49890  0.54540  0.87930  Biso   1.000  C
  H97      1.0000 0.49890  0.58430  0.91030  Biso   1.000  H
  C125     1.0000 0.50180  0.47980  0.90130  Biso   1.000  C
  C126     1.0000 0.49760  0.57410  0.85820  Biso   1.000  C
  H98      1.0000 0.49670  0.62040  0.87630  Biso   1.000  H
  C127     1.0000 0.50060  0.43390  0.78620  Biso   1.000  C
  H99      1.0000 0.49930  0.60500  0.75520  Biso   1.000  H
  C128     1.0000 0.50560  0.46750  0.97940  Biso   1.000  C
  H100     1.0000 0.51230  0.50340  0.00850  Biso   1.000  H
  O27      1.0000 0.54148  0.53611  0.65311  Biso   1.000  O
  C129     1.0000 0.19310  0.50100  0.55370  Biso   1.000  C
  H101     1.0000 0.21130  0.50190  0.60000  Biso   1.000  H
  C130     1.0000 0.12070  0.50110  0.54540  Biso   1.000  C
  H102     1.0000 0.08970  0.50110  0.58430  Biso   1.000  H
  C131     1.0000 0.09870  0.49820  0.47980  Biso   1.000  C
  C132     1.0000 0.14180  0.50240  0.57410  Biso   1.000  C
  H103     1.0000 0.12370  0.50330  0.62040  Biso   1.000  H
  C133     1.0000 0.21380  0.49940  0.43390  Biso   1.000  C
  H104     1.0000 0.24480  0.50070  0.60500  Biso   1.000  H
  H105     1.0000 0.99150  0.48770  0.50340  Biso   1.000  H
  O28      1.0000 0.34689  0.45852  0.53611  Biso   1.000  O
  C134     1.0000 0.80690  0.50100  0.44630  Biso   1.000  C
  H106     1.0000 0.78870  0.50190  0.40000  Biso   1.000  H
  C135     1.0000 0.87930  0.50110  0.45460  Biso   1.000  C
  H107     1.0000 0.91030  0.50110  0.41570  Biso   1.000  H
  C136     1.0000 0.90130  0.49820  0.52020  Biso   1.000  C
  C137     1.0000 0.85820  0.50240  0.42590  Biso   1.000  C
  H108     1.0000 0.87630  0.50330  0.37960  Biso   1.000  H
  C138     1.0000 0.78620  0.49940  0.56610  Biso   1.000  C
  H109     1.0000 0.75520  0.50070  0.39500  Biso   1.000  H
  H110     1.0000 0.00850  0.48770  0.49660  Biso   1.000  H
  O29      1.0000 0.65311  0.45852  0.46389  Biso   1.000  O
  C139     1.0000 0.19310  0.49900  0.44630  Biso   1.000  C
  H111     1.0000 0.21130  0.49810  0.40000  Biso   1.000  H
  C140     1.0000 0.12070  0.49890  0.45460  Biso   1.000  C
  H112     1.0000 0.08970  0.49890  0.41570  Biso   1.000  H
  C141     1.0000 0.09870  0.50180  0.52020  Biso   1.000  C
  C142     1.0000 0.14180  0.49760  0.42590  Biso   1.000  C
  H113     1.0000 0.12370  0.49670  0.37960  Biso   1.000  H
  C143     1.0000 0.21380  0.50060  0.56610  Biso   1.000  C
  H114     1.0000 0.24480  0.49930  0.39500  Biso   1.000  H
  H115     1.0000 0.99150  0.51230  0.49660  Biso   1.000  H
  O30      1.0000 0.34689  0.54148  0.46389  Biso   1.000  O
  C144     1.0000 0.80690  0.49900  0.55370  Biso   1.000  C
  H116     1.0000 0.78870  0.49810  0.60000  Biso   1.000  H
  C145     1.0000 0.87930  0.49890  0.54540  Biso   1.000  C
  H117     1.0000 0.91030  0.49890  0.58430  Biso   1.000  H
  C146     1.0000 0.90130  0.50180  0.47980  Biso   1.000  C
  C147     1.0000 0.85820  0.49760  0.57410  Biso   1.000  C
  H118     1.0000 0.87630  0.49670  0.62040  Biso   1.000  H
  C148     1.0000 0.78620  0.50060  0.43390  Biso   1.000  C
  H119     1.0000 0.75520  0.49930  0.60500  Biso   1.000  H
  H120     1.0000 0.00850  0.51230  0.50340  Biso   1.000  H
  O31      1.0000 0.65311  0.54148  0.53611  Biso   1.000  O
  C149     1.0000 0.50000  0.31750  0.50000  Biso   1.000  C
  C150     1.0000 0.50000  0.23980  0.50000  Biso   1.000  C
  C151     1.0000 0.50000  0.68250  0.50000  Biso   1.000  C
  C152     1.0000 0.50000  0.76020  0.50000  Biso   1.000  C
  C153     1.0000 0.50000  0.50000  0.31750  Biso   1.000  C
  C154     1.0000 0.50000  0.50000  0.23980  Biso   1.000  C
  C155     1.0000 0.50000  0.50000  0.68250  Biso   1.000  C
  C156     1.0000 0.50000  0.50000  0.76020  Biso   1.000  C
  C157     1.0000 0.31750  0.50000  0.50000  Biso   1.000  C
  C158     1.0000 0.23980  0.50000  0.50000  Biso   1.000  C
  C159     1.0000 0.68250  0.50000  0.50000  Biso   1.000  C
  C160     1.0000 0.76020  0.50000  0.50000  Biso   1.000  C
  O32      1.0000 0.50000  0.50000  0.50000  Biso   1.000  O
  O33      1.0000 0.41420  0.00000  0.50000  Biso   1.000  O
  O34      1.0000 0.58580  0.00000  0.50000  Biso   1.000  O
  O35      1.0000 0.50000  0.41420  0.00000  Biso   1.000  O
  O36      1.0000 0.50000  0.58580  0.00000  Biso   1.000  O
  O37      1.0000 0.00000  0.50000  0.41420  Biso   1.000  O
  O38      1.0000 0.00000  0.50000  0.58580  Biso   1.000  O
  Zn5      1.0000 0.55881  0.44119  0.44119  Biso   1.000  Zn
  Zn6      1.0000 0.44119  0.55881  0.44119  Biso   1.000  Zn
  Zn7      1.0000 0.44119  0.44119  0.55881  Biso   1.000  Zn
  Zn8      1.0000 0.55881  0.55881  0.55881  Biso   1.000  Zn
