data_image0
_cell_length_a       9.5711
_cell_length_b       12.438
_cell_length_c       26.565
_cell_angle_alpha    90
_cell_angle_beta     90.493
_cell_angle_gamma    90

_symmetry_space_group_name_H-M    "P 1"
_symmetry_int_tables_number       1

loop_
  _symmetry_equiv_pos_as_xyz
  'x, y, z'

loop_
  _atom_site_label
  _atom_site_occupancy
  _atom_site_fract_x
  _atom_site_fract_y
  _atom_site_fract_z
  _atom_site_thermal_displace_type
  _atom_site_B_iso_or_equiv
  _atom_site_type_symbol
  Cd1      1.0000 0.31560  0.53898  0.04647  Biso   1.000  Cd
  N1       1.0000 0.42710  0.70260  0.05470  Biso   1.000  N
  N2       1.0000 0.77350  0.99390  0.03990  Biso   1.000  N
  N3       1.0000 0.84960  0.08800  0.03700  Biso   1.000  N
  N4       1.0000 0.21530  0.36980  0.04410  Biso   1.000  N
  C1       1.0000 0.55780  0.71050  0.04260  Biso   1.000  C
  H1       1.0000 0.60490  0.64660  0.03290  Biso   1.000  H
  C2       1.0000 0.63330  0.80530  0.04270  Biso   1.000  C
  H2       1.0000 0.72850  0.80540  0.03300  Biso   1.000  H
  C3       1.0000 0.57040  0.89850  0.05690  Biso   1.000  C
  C4       1.0000 0.43250  0.89120  0.07150  Biso   1.000  C
  H3       1.0000 0.38510  0.95290  0.08370  Biso   1.000  H
  C5       1.0000 0.36370  0.79370  0.06810  Biso   1.000  C
  H4       1.0000 0.26700  0.79140  0.07580  Biso   1.000  H
  C6       1.0000 0.65090  0.00070  0.05830  Biso   1.000  C
  C7       1.0000 0.59080  0.10200  0.07940  Biso   1.000  C
  H5       1.0000 0.65810  0.16070  0.07550  Biso   1.000  H
  H6       1.0000 0.57070  0.09180  0.11510  Biso   1.000  H
  H7       1.0000 0.50420  0.11990  0.06120  Biso   1.000  H
  C8       1.0000 0.25180  0.29400  0.07670  Biso   1.000  C
  H8       1.0000 0.33180  0.30530  0.09740  Biso   1.000  H
  C9       1.0000 0.17830  0.19920  0.08180  Biso   1.000  C
  H9       1.0000 0.20850  0.14630  0.10520  Biso   1.000  H
  C10      1.0000 0.05940  0.18170  0.05220  Biso   1.000  C
  C11      1.0000 0.02270  0.26170  0.01770  Biso   1.000  C
  H10      1.0000 0.94360  0.25240  0.99630  Biso   1.000  H
  C12      1.0000 0.10170  0.35470  0.01480  Biso   1.000  C
  H11      1.0000 0.07500  0.40910  0.99160  Biso   1.000  H
  C13      1.0000 0.97190  0.08290  0.05800  Biso   1.000  C
  C14      1.0000 0.02620  0.99020  0.08750  Biso   1.000  C
  H12      1.0000 0.96700  0.92720  0.08130  Biso   1.000  H
  H13      1.0000 0.02550  0.00800  0.12340  Biso   1.000  H
  H14      1.0000 0.12210  0.97430  0.07710  Biso   1.000  H
  C15      1.0000 0.12290  0.58650  0.11800  Biso   1.000  C
  C16      1.0000 0.00550  0.60810  0.15450  Biso   1.000  C
  C17      1.0000 0.00050  0.56300  0.20240  Biso   1.000  C
  H15      1.0000 0.06740  0.51060  0.21220  Biso   1.000  H
  C18      1.0000 0.89740  0.59480  0.23580  Biso   1.000  C
  H16      1.0000 0.89390  0.56400  0.26850  Biso   1.000  H
  C19      1.0000 0.79940  0.67160  0.22140  Biso   1.000  C
  C20      1.0000 0.80440  0.71670  0.17350  Biso   1.000  C
  H17      1.0000 0.73740  0.76910  0.16370  Biso   1.000  H
  C21      1.0000 0.90750  0.68490  0.14010  Biso   1.000  C
  H18      1.0000 0.91090  0.71570  0.10740  Biso   1.000  H
  C22      1.0000 0.90590  0.87190  0.34110  Biso   1.000  C
  H19      1.0000 0.99600  0.90350  0.34390  Biso   1.000  H
  C23      1.0000 0.81070  0.88420  0.37950  Biso   1.000  C
  C24      1.0000 0.67970  0.83820  0.37540  Biso   1.000  C
  H20      1.0000 0.61420  0.84670  0.40170  Biso   1.000  H
  C25      1.0000 0.64390  0.78000  0.33290  Biso   1.000  C
  H21      1.0000 0.55380  0.74840  0.33010  Biso   1.000  H
  C26      1.0000 0.73910  0.76770  0.29450  Biso   1.000  C
  C27      1.0000 0.87010  0.81360  0.29860  Biso   1.000  C
  H22      1.0000 0.93560  0.80520  0.27230  Biso   1.000  H
  O1       1.0000 0.69310  0.70830  0.25240  Biso   1.000  O
  C28      1.0000 0.85640  0.93210  0.43230  Biso   1.000  C
  O2       1.0000 0.22370  0.53370  0.13550  Biso   1.000  O
  O3       1.0000 0.11330  0.61650  0.07330  Biso   1.000  O
  O4       1.0000 0.98130  0.95430  0.43950  Biso   1.000  O
  O5       1.0000 0.76040  0.93930  0.46470  Biso   1.000  O
  C29      1.0000 0.01400  0.63710  0.15100  Biso   1.000  C
  C30      1.0000 0.01000  0.61060  0.20170  Biso   1.000  C
  H23      1.0000 0.07800  0.56380  0.21570  Biso   1.000  H
  C31      1.0000 0.90520  0.65250  0.23190  Biso   1.000  C
  H24      1.0000 0.90220  0.63430  0.26660  Biso   1.000  H
  C32      1.0000 0.80530  0.72080  0.21130  Biso   1.000  C
  C33      1.0000 0.81000  0.74730  0.16060  Biso   1.000  C
  H25      1.0000 0.74140  0.79410  0.14660  Biso   1.000  H
  C34      1.0000 0.91400  0.70540  0.13040  Biso   1.000  C
  H26      1.0000 0.91720  0.72360  0.09570  Biso   1.000  H
  C35      1.0000 0.90700  0.90420  0.34500  Biso   1.000  C
  H27      1.0000 0.99480  0.93740  0.35170  Biso   1.000  H
  C36      1.0000 0.81000  0.89300  0.38320  Biso   1.000  C
  C37      1.0000 0.68200  0.84500  0.37340  Biso   1.000  C
  H28      1.0000 0.61610  0.83710  0.39960  Biso   1.000  H
  C38      1.0000 0.65100  0.80730  0.32540  Biso   1.000  C
  H29      1.0000 0.56360  0.77420  0.31870  Biso   1.000  H
  C39      1.0000 0.74800  0.81850  0.28720  Biso   1.000  C
  C40      1.0000 0.87600  0.86690  0.29700  Biso   1.000  C
  H30      1.0000 0.94220  0.87450  0.27080  Biso   1.000  H
  O6       1.0000 0.70100  0.76400  0.24250  Biso   1.000  O
  Cd2      1.0000 0.18440  0.03898  0.45353  Biso   1.000  Cd
  N5       1.0000 0.07290  0.20260  0.44530  Biso   1.000  N
  N6       1.0000 0.72650  0.49390  0.46010  Biso   1.000  N
  N7       1.0000 0.65040  0.58800  0.46300  Biso   1.000  N
  N8       1.0000 0.28470  0.86980  0.45590  Biso   1.000  N
  C41      1.0000 0.94220  0.21050  0.45740  Biso   1.000  C
  H31      1.0000 0.89510  0.14660  0.46710  Biso   1.000  H
  C42      1.0000 0.86670  0.30530  0.45730  Biso   1.000  C
  H32      1.0000 0.77150  0.30540  0.46700  Biso   1.000  H
  C43      1.0000 0.92960  0.39850  0.44310  Biso   1.000  C
  C44      1.0000 0.06750  0.39120  0.42850  Biso   1.000  C
  H33      1.0000 0.11490  0.45290  0.41630  Biso   1.000  H
  C45      1.0000 0.13630  0.29370  0.43190  Biso   1.000  C
  H34      1.0000 0.23300  0.29140  0.42420  Biso   1.000  H
  C46      1.0000 0.84910  0.50070  0.44170  Biso   1.000  C
  C47      1.0000 0.90920  0.60200  0.42060  Biso   1.000  C
  H35      1.0000 0.84190  0.66070  0.42450  Biso   1.000  H
  H36      1.0000 0.92930  0.59180  0.38490  Biso   1.000  H
  H37      1.0000 0.99580  0.61990  0.43880  Biso   1.000  H
  C48      1.0000 0.24820  0.79400  0.42330  Biso   1.000  C
  H38      1.0000 0.16820  0.80530  0.40260  Biso   1.000  H
  C49      1.0000 0.32170  0.69920  0.41820  Biso   1.000  C
  H39      1.0000 0.29150  0.64630  0.39480  Biso   1.000  H
  C50      1.0000 0.44060  0.68170  0.44780  Biso   1.000  C
  C51      1.0000 0.47730  0.76170  0.48230  Biso   1.000  C
  H40      1.0000 0.55640  0.75240  0.50370  Biso   1.000  H
  C52      1.0000 0.39830  0.85470  0.48520  Biso   1.000  C
  H41      1.0000 0.42500  0.90910  0.50840  Biso   1.000  H
  C53      1.0000 0.52810  0.58290  0.44200  Biso   1.000  C
  C54      1.0000 0.47380  0.49020  0.41250  Biso   1.000  C
  H42      1.0000 0.53300  0.42720  0.41870  Biso   1.000  H
  H43      1.0000 0.47450  0.50800  0.37660  Biso   1.000  H
  H44      1.0000 0.37790  0.47430  0.42290  Biso   1.000  H
  C55      1.0000 0.37710  0.08650  0.38200  Biso   1.000  C
  C56      1.0000 0.49450  0.10810  0.34550  Biso   1.000  C
  C57      1.0000 0.49950  0.06300  0.29760  Biso   1.000  C
  H45      1.0000 0.43260  0.01060  0.28780  Biso   1.000  H
  C58      1.0000 0.60260  0.09480  0.26420  Biso   1.000  C
  H46      1.0000 0.60610  0.06400  0.23150  Biso   1.000  H
  C59      1.0000 0.70060  0.17160  0.27860  Biso   1.000  C
  C60      1.0000 0.69560  0.21670  0.32650  Biso   1.000  C
  H47      1.0000 0.76260  0.26910  0.33630  Biso   1.000  H
  C61      1.0000 0.59250  0.18490  0.35990  Biso   1.000  C
  H48      1.0000 0.58910  0.21570  0.39260  Biso   1.000  H
  C62      1.0000 0.59410  0.37190  0.15890  Biso   1.000  C
  H49      1.0000 0.50400  0.40350  0.15610  Biso   1.000  H
  C63      1.0000 0.68930  0.38420  0.12050  Biso   1.000  C
  C64      1.0000 0.82030  0.33820  0.12460  Biso   1.000  C
  H50      1.0000 0.88580  0.34670  0.09830  Biso   1.000  H
  C65      1.0000 0.85610  0.28000  0.16710  Biso   1.000  C
  H51      1.0000 0.94620  0.24840  0.16990  Biso   1.000  H
  C66      1.0000 0.76090  0.26770  0.20550  Biso   1.000  C
  C67      1.0000 0.62990  0.31360  0.20140  Biso   1.000  C
  H52      1.0000 0.56440  0.30520  0.22770  Biso   1.000  H
  O7       1.0000 0.80690  0.20830  0.24760  Biso   1.000  O
  C68      1.0000 0.64360  0.43210  0.06770  Biso   1.000  C
  O8       1.0000 0.27630  0.03370  0.36450  Biso   1.000  O
  O9       1.0000 0.38670  0.11650  0.42670  Biso   1.000  O
  O10      1.0000 0.51870  0.45430  0.06050  Biso   1.000  O
  O11      1.0000 0.73960  0.43930  0.03530  Biso   1.000  O
  C69      1.0000 0.48600  0.13710  0.34900  Biso   1.000  C
  C70      1.0000 0.49000  0.11060  0.29830  Biso   1.000  C
  H53      1.0000 0.42200  0.06380  0.28430  Biso   1.000  H
  C71      1.0000 0.59480  0.15250  0.26810  Biso   1.000  C
  H54      1.0000 0.59780  0.13430  0.23340  Biso   1.000  H
  C72      1.0000 0.69470  0.22080  0.28870  Biso   1.000  C
  C73      1.0000 0.69000  0.24730  0.33940  Biso   1.000  C
  H55      1.0000 0.75860  0.29410  0.35340  Biso   1.000  H
  C74      1.0000 0.58600  0.20540  0.36960  Biso   1.000  C
  H56      1.0000 0.58280  0.22360  0.40430  Biso   1.000  H
  C75      1.0000 0.59300  0.40420  0.15500  Biso   1.000  C
  H57      1.0000 0.50520  0.43740  0.14830  Biso   1.000  H
  C76      1.0000 0.69000  0.39300  0.11680  Biso   1.000  C
  C77      1.0000 0.81800  0.34500  0.12660  Biso   1.000  C
  H58      1.0000 0.88390  0.33710  0.10040  Biso   1.000  H
  C78      1.0000 0.84900  0.30730  0.17460  Biso   1.000  C
  H59      1.0000 0.93640  0.27420  0.18130  Biso   1.000  H
  C79      1.0000 0.75200  0.31850  0.21280  Biso   1.000  C
  C80      1.0000 0.62400  0.36690  0.20300  Biso   1.000  C
  H60      1.0000 0.55780  0.37450  0.22920  Biso   1.000  H
  O12      1.0000 0.79900  0.26400  0.25750  Biso   1.000  O
  Cd3      1.0000 0.68440  0.46102  0.95353  Biso   1.000  Cd
  N9       1.0000 0.57290  0.29740  0.94530  Biso   1.000  N
  N10      1.0000 0.22650  0.00610  0.96010  Biso   1.000  N
  N11      1.0000 0.15040  0.91200  0.96300  Biso   1.000  N
  N12      1.0000 0.78470  0.63020  0.95590  Biso   1.000  N
  C81      1.0000 0.44220  0.28950  0.95740  Biso   1.000  C
  H61      1.0000 0.39510  0.35340  0.96710  Biso   1.000  H
  C82      1.0000 0.36670  0.19470  0.95730  Biso   1.000  C
  H62      1.0000 0.27150  0.19460  0.96700  Biso   1.000  H
  C83      1.0000 0.42960  0.10150  0.94310  Biso   1.000  C
  C84      1.0000 0.56750  0.10880  0.92850  Biso   1.000  C
  H63      1.0000 0.61490  0.04710  0.91630  Biso   1.000  H
  C85      1.0000 0.63630  0.20630  0.93190  Biso   1.000  C
  H64      1.0000 0.73300  0.20860  0.92420  Biso   1.000  H
  C86      1.0000 0.34910  0.99930  0.94170  Biso   1.000  C
  C87      1.0000 0.40920  0.89800  0.92060  Biso   1.000  C
  H65      1.0000 0.34190  0.83930  0.92450  Biso   1.000  H
  H66      1.0000 0.42930  0.90820  0.88490  Biso   1.000  H
  H67      1.0000 0.49580  0.88010  0.93880  Biso   1.000  H
  C88      1.0000 0.74820  0.70600  0.92330  Biso   1.000  C
  H68      1.0000 0.66820  0.69470  0.90260  Biso   1.000  H
  C89      1.0000 0.82170  0.80080  0.91820  Biso   1.000  C
  H69      1.0000 0.79150  0.85370  0.89480  Biso   1.000  H
  C90      1.0000 0.94060  0.81830  0.94780  Biso   1.000  C
  C91      1.0000 0.97730  0.73830  0.98230  Biso   1.000  C
  H70      1.0000 0.05640  0.74760  0.00370  Biso   1.000  H
  C92      1.0000 0.89830  0.64530  0.98520  Biso   1.000  C
  H71      1.0000 0.92500  0.59090  0.00840  Biso   1.000  H
  C93      1.0000 0.02810  0.91710  0.94200  Biso   1.000  C
  C94      1.0000 0.97380  0.00980  0.91250  Biso   1.000  C
  H72      1.0000 0.03300  0.07280  0.91870  Biso   1.000  H
  H73      1.0000 0.97450  0.99200  0.87660  Biso   1.000  H
  H74      1.0000 0.87790  0.02570  0.92290  Biso   1.000  H
  C95      1.0000 0.87710  0.41350  0.88200  Biso   1.000  C
  C96      1.0000 0.99450  0.39190  0.84550  Biso   1.000  C
  C97      1.0000 0.99950  0.43700  0.79760  Biso   1.000  C
  H75      1.0000 0.93260  0.48940  0.78780  Biso   1.000  H
  C98      1.0000 0.10260  0.40520  0.76420  Biso   1.000  C
  H76      1.0000 0.10610  0.43600  0.73150  Biso   1.000  H
  C99      1.0000 0.20060  0.32840  0.77860  Biso   1.000  C
  C100     1.0000 0.19560  0.28330  0.82650  Biso   1.000  C
  H77      1.0000 0.26260  0.23090  0.83630  Biso   1.000  H
  C101     1.0000 0.09250  0.31510  0.85990  Biso   1.000  C
  H78      1.0000 0.08910  0.28430  0.89260  Biso   1.000  H
  C102     1.0000 0.09410  0.12810  0.65890  Biso   1.000  C
  H79      1.0000 0.00400  0.09650  0.65610  Biso   1.000  H
  C103     1.0000 0.18930  0.11580  0.62050  Biso   1.000  C
  C104     1.0000 0.32030  0.16180  0.62460  Biso   1.000  C
  H80      1.0000 0.38580  0.15330  0.59830  Biso   1.000  H
  C105     1.0000 0.35610  0.22000  0.66710  Biso   1.000  C
  H81      1.0000 0.44620  0.25160  0.66990  Biso   1.000  H
  C106     1.0000 0.26090  0.23230  0.70550  Biso   1.000  C
  C107     1.0000 0.12990  0.18640  0.70140  Biso   1.000  C
  H82      1.0000 0.06440  0.19480  0.72770  Biso   1.000  H
  O13      1.0000 0.30690  0.29170  0.74760  Biso   1.000  O
  C108     1.0000 0.14360  0.06790  0.56770  Biso   1.000  C
  O14      1.0000 0.77630  0.46630  0.86450  Biso   1.000  O
  O15      1.0000 0.88670  0.38350  0.92670  Biso   1.000  O
  O16      1.0000 0.01870  0.04570  0.56050  Biso   1.000  O
  O17      1.0000 0.23960  0.06070  0.53530  Biso   1.000  O
  C109     1.0000 0.98600  0.36290  0.84900  Biso   1.000  C
  C110     1.0000 0.99000  0.38940  0.79830  Biso   1.000  C
  H83      1.0000 0.92200  0.43620  0.78430  Biso   1.000  H
  C111     1.0000 0.09480  0.34750  0.76810  Biso   1.000  C
  H84      1.0000 0.09780  0.36570  0.73340  Biso   1.000  H
  C112     1.0000 0.19470  0.27920  0.78870  Biso   1.000  C
  C113     1.0000 0.19000  0.25270  0.83940  Biso   1.000  C
  H85      1.0000 0.25860  0.20590  0.85340  Biso   1.000  H
  C114     1.0000 0.08600  0.29460  0.86960  Biso   1.000  C
  H86      1.0000 0.08280  0.27640  0.90430  Biso   1.000  H
  C115     1.0000 0.09300  0.09580  0.65500  Biso   1.000  C
  H87      1.0000 0.00520  0.06260  0.64830  Biso   1.000  H
  C116     1.0000 0.19000  0.10700  0.61680  Biso   1.000  C
  C117     1.0000 0.31800  0.15500  0.62660  Biso   1.000  C
  H88      1.0000 0.38390  0.16290  0.60040  Biso   1.000  H
  C118     1.0000 0.34900  0.19270  0.67460  Biso   1.000  C
  H89      1.0000 0.43640  0.22580  0.68130  Biso   1.000  H
  C119     1.0000 0.25200  0.18150  0.71280  Biso   1.000  C
  C120     1.0000 0.12400  0.13310  0.70300  Biso   1.000  C
  H90      1.0000 0.05780  0.12550  0.72920  Biso   1.000  H
  O18      1.0000 0.29900  0.23600  0.75750  Biso   1.000  O
  Cd4      1.0000 0.81560  0.96102  0.54647  Biso   1.000  Cd
  N13      1.0000 0.92710  0.79740  0.55470  Biso   1.000  N
  N14      1.0000 0.27350  0.50610  0.53990  Biso   1.000  N
  N15      1.0000 0.34960  0.41200  0.53700  Biso   1.000  N
  N16      1.0000 0.71530  0.13020  0.54410  Biso   1.000  N
  C121     1.0000 0.05780  0.78950  0.54260  Biso   1.000  C
  H91      1.0000 0.10490  0.85340  0.53290  Biso   1.000  H
  C122     1.0000 0.13330  0.69470  0.54270  Biso   1.000  C
  H92      1.0000 0.22850  0.69460  0.53300  Biso   1.000  H
  C123     1.0000 0.07040  0.60150  0.55690  Biso   1.000  C
  C124     1.0000 0.93250  0.60880  0.57150  Biso   1.000  C
  H93      1.0000 0.88510  0.54710  0.58370  Biso   1.000  H
  C125     1.0000 0.86370  0.70630  0.56810  Biso   1.000  C
  H94      1.0000 0.76700  0.70860  0.57580  Biso   1.000  H
  C126     1.0000 0.15090  0.49930  0.55830  Biso   1.000  C
  C127     1.0000 0.09080  0.39800  0.57940  Biso   1.000  C
  H95      1.0000 0.15810  0.33930  0.57550  Biso   1.000  H
  H96      1.0000 0.07070  0.40820  0.61510  Biso   1.000  H
  H97      1.0000 0.00420  0.38010  0.56120  Biso   1.000  H
  C128     1.0000 0.75180  0.20600  0.57670  Biso   1.000  C
  H98      1.0000 0.83180  0.19470  0.59740  Biso   1.000  H
  C129     1.0000 0.67830  0.30080  0.58180  Biso   1.000  C
  H99      1.0000 0.70850  0.35370  0.60520  Biso   1.000  H
  C130     1.0000 0.55940  0.31830  0.55220  Biso   1.000  C
  C131     1.0000 0.52270  0.23830  0.51770  Biso   1.000  C
  H100     1.0000 0.44360  0.24760  0.49630  Biso   1.000  H
  C132     1.0000 0.60170  0.14530  0.51480  Biso   1.000  C
  H101     1.0000 0.57500  0.09090  0.49160  Biso   1.000  H
  C133     1.0000 0.47190  0.41710  0.55800  Biso   1.000  C
  C134     1.0000 0.52620  0.50980  0.58750  Biso   1.000  C
  H102     1.0000 0.46700  0.57280  0.58130  Biso   1.000  H
  H103     1.0000 0.52550  0.49200  0.62340  Biso   1.000  H
  H104     1.0000 0.62210  0.52570  0.57710  Biso   1.000  H
  C135     1.0000 0.62290  0.91350  0.61800  Biso   1.000  C
  C136     1.0000 0.50550  0.89190  0.65450  Biso   1.000  C
  C137     1.0000 0.50050  0.93700  0.70240  Biso   1.000  C
  H105     1.0000 0.56740  0.98940  0.71220  Biso   1.000  H
  C138     1.0000 0.39740  0.90520  0.73580  Biso   1.000  C
  H106     1.0000 0.39390  0.93600  0.76850  Biso   1.000  H
  C139     1.0000 0.29940  0.82840  0.72140  Biso   1.000  C
  C140     1.0000 0.30440  0.78330  0.67350  Biso   1.000  C
  H107     1.0000 0.23740  0.73090  0.66370  Biso   1.000  H
  C141     1.0000 0.40750  0.81510  0.64010  Biso   1.000  C
  H108     1.0000 0.41090  0.78430  0.60740  Biso   1.000  H
  C142     1.0000 0.40590  0.62810  0.84110  Biso   1.000  C
  H109     1.0000 0.49600  0.59650  0.84390  Biso   1.000  H
  C143     1.0000 0.31070  0.61580  0.87950  Biso   1.000  C
  C144     1.0000 0.17970  0.66180  0.87540  Biso   1.000  C
  H110     1.0000 0.11420  0.65330  0.90170  Biso   1.000  H
  C145     1.0000 0.14390  0.72000  0.83290  Biso   1.000  C
  H111     1.0000 0.05380  0.75160  0.83010  Biso   1.000  H
  C146     1.0000 0.23910  0.73230  0.79450  Biso   1.000  C
  C147     1.0000 0.37010  0.68640  0.79860  Biso   1.000  C
  H112     1.0000 0.43560  0.69480  0.77230  Biso   1.000  H
  O19      1.0000 0.19310  0.79170  0.75240  Biso   1.000  O
  C148     1.0000 0.35640  0.56790  0.93230  Biso   1.000  C
  O20      1.0000 0.72370  0.96630  0.63550  Biso   1.000  O
  O21      1.0000 0.61330  0.88350  0.57330  Biso   1.000  O
  O22      1.0000 0.48130  0.54570  0.93950  Biso   1.000  O
  O23      1.0000 0.26040  0.56070  0.96470  Biso   1.000  O
  C149     1.0000 0.51400  0.86290  0.65100  Biso   1.000  C
  C150     1.0000 0.51000  0.88940  0.70170  Biso   1.000  C
  H113     1.0000 0.57800  0.93620  0.71570  Biso   1.000  H
  C151     1.0000 0.40520  0.84750  0.73190  Biso   1.000  C
  H114     1.0000 0.40220  0.86570  0.76660  Biso   1.000  H
  C152     1.0000 0.30530  0.77920  0.71130  Biso   1.000  C
  C153     1.0000 0.31000  0.75270  0.66060  Biso   1.000  C
  H115     1.0000 0.24140  0.70590  0.64660  Biso   1.000  H
  C154     1.0000 0.41400  0.79460  0.63040  Biso   1.000  C
  H116     1.0000 0.41720  0.77640  0.59570  Biso   1.000  H
  C155     1.0000 0.40700  0.59580  0.84500  Biso   1.000  C
  H117     1.0000 0.49480  0.56260  0.85170  Biso   1.000  H
  C156     1.0000 0.31000  0.60700  0.88320  Biso   1.000  C
  C157     1.0000 0.18200  0.65500  0.87340  Biso   1.000  C
  H118     1.0000 0.11610  0.66290  0.89960  Biso   1.000  H
  C158     1.0000 0.15100  0.69270  0.82540  Biso   1.000  C
  H119     1.0000 0.06360  0.72580  0.81870  Biso   1.000  H
  C159     1.0000 0.24800  0.68150  0.78720  Biso   1.000  C
  C160     1.0000 0.37600  0.63310  0.79700  Biso   1.000  C
  H120     1.0000 0.44220  0.62550  0.77080  Biso   1.000  H
  O24      1.0000 0.20100  0.73600  0.74250  Biso   1.000  O
