data_image0
_cell_length_a       27.221
_cell_length_b       8.104
_cell_length_c       23.537
_cell_angle_alpha    90
_cell_angle_beta     98.906
_cell_angle_gamma    90

_symmetry_space_group_name_H-M    "P 1"
_symmetry_int_tables_number       1

loop_
  _symmetry_equiv_pos_as_xyz
  'x, y, z'

loop_
  _atom_site_label
  _atom_site_occupancy
  _atom_site_fract_x
  _atom_site_fract_y
  _atom_site_fract_z
  _atom_site_thermal_displace_type
  _atom_site_B_iso_or_equiv
  _atom_site_type_symbol
  Cd1      1.0000 0.04008  0.62470  0.50114  Biso   1.000  Cd
  O1       1.0000 0.98564  0.73340  0.54160  Biso   1.000  O
  N1       1.0000 0.09422  0.80390  0.51471  Biso   1.000  N
  C1       1.0000 0.94577  0.68460  0.55552  Biso   1.000  C
  O2       1.0000 0.92547  0.54870  0.54231  Biso   1.000  O
  N2       1.0000 0.23372  0.18320  0.49834  Biso   1.000  N
  C2       1.0000 0.91979  0.80010  0.59162  Biso   1.000  C
  O3       1.0000 0.85268  0.11140  0.69625  Biso   1.000  O
  C3       1.0000 0.93767  0.95650  0.60275  Biso   1.000  C
  H1       1.0000 0.96490  0.99300  0.58680  Biso   1.000  H
  O4       1.0000 0.93852  0.49450  0.92357  Biso   1.000  O
  C4       1.0000 0.91544  0.05980  0.63755  Biso   1.000  C
  H2       1.0000 0.92730  0.16670  0.64450  Biso   1.000  H
  O5       1.0000 0.99860  0.30670  0.92362  Biso   1.000  O
  C5       1.0000 0.87565  0.00550  0.66208  Biso   1.000  C
  C6       1.0000 0.85661  0.85450  0.64950  Biso   1.000  C
  H3       1.0000 0.82880  0.81990  0.66470  Biso   1.000  H
  C7       1.0000 0.87782  0.75240  0.61460  Biso   1.000  C
  H4       1.0000 0.86410  0.64870  0.60590  Biso   1.000  H
  C8       1.0000 0.88133  0.17520  0.74552  Biso   1.000  C
  C9       1.0000 0.92332  0.09870  0.77181  Biso   1.000  C
  H5       1.0000 0.93500  0.00400  0.75600  Biso   1.000  H
  C10      1.0000 0.94867  0.16520  0.82304  Biso   1.000  C
  H6       1.0000 0.97710  0.11280  0.84160  Biso   1.000  H
  C11      1.0000 0.93209  0.30780  0.84653  Biso   1.000  C
  C12      1.0000 0.88906  0.38030  0.81799  Biso   1.000  C
  H7       1.0000 0.87690  0.47470  0.83340  Biso   1.000  H
  C13      1.0000 0.86419  0.31770  0.76820  Biso   1.000  C
  H8       1.0000 0.83580  0.37020  0.74960  Biso   1.000  H
  C14      1.0000 0.95863  0.37510  0.90180  Biso   1.000  C
  C15      1.0000 0.13488  0.79300  0.49049  Biso   1.000  C
  H9       1.0000 0.13970  0.69830  0.46970  Biso   1.000  H
  C16      1.0000 0.17069  0.91590  0.49460  Biso   1.000  C
  H10      1.0000 0.19890  0.90320  0.47720  Biso   1.000  H
  C17      1.0000 0.16360  0.05930  0.52531  Biso   1.000  C
  C18      1.0000 0.12132  0.06900  0.55093  Biso   1.000  C
  H11      1.0000 0.11530  0.16150  0.57220  Biso   1.000  H
  C19      1.0000 0.08811  0.93890  0.54437  Biso   1.000  C
  H12      1.0000 0.05980  0.94680  0.56180  Biso   1.000  H
  C20      1.0000 0.19879  0.20080  0.52727  Biso   1.000  C
  C21      1.0000 0.19000  0.35070  0.56110  Biso   1.000  C
  H13      1.0000 0.20300  0.33270  0.60100  Biso   1.000  H
  H14      1.0000 0.15500  0.37230  0.55710  Biso   1.000  H
  H15      1.0000 0.20650  0.44350  0.54720  Biso   1.000  H
  Zn1      1.0000 0.03961  0.62570  0.50188  Biso   1.000  Zn
  Cd2      1.0000 0.54008  0.12470  0.50114  Biso   1.000  Cd
  O6       1.0000 0.48564  0.23340  0.54160  Biso   1.000  O
  N3       1.0000 0.59422  0.30390  0.51471  Biso   1.000  N
  C22      1.0000 0.44577  0.18460  0.55552  Biso   1.000  C
  O7       1.0000 0.42547  0.04870  0.54231  Biso   1.000  O
  N4       1.0000 0.73372  0.68320  0.49834  Biso   1.000  N
  C23      1.0000 0.41979  0.30010  0.59162  Biso   1.000  C
  O8       1.0000 0.35268  0.61140  0.69625  Biso   1.000  O
  C24      1.0000 0.43767  0.45650  0.60275  Biso   1.000  C
  H16      1.0000 0.46490  0.49300  0.58680  Biso   1.000  H
  O9       1.0000 0.43852  0.99450  0.92357  Biso   1.000  O
  C25      1.0000 0.41544  0.55980  0.63755  Biso   1.000  C
  H17      1.0000 0.42730  0.66670  0.64450  Biso   1.000  H
  O10      1.0000 0.49860  0.80670  0.92362  Biso   1.000  O
  C26      1.0000 0.37565  0.50550  0.66208  Biso   1.000  C
  C27      1.0000 0.35661  0.35450  0.64950  Biso   1.000  C
  H18      1.0000 0.32880  0.31990  0.66470  Biso   1.000  H
  C28      1.0000 0.37782  0.25240  0.61460  Biso   1.000  C
  H19      1.0000 0.36410  0.14870  0.60590  Biso   1.000  H
  C29      1.0000 0.38133  0.67520  0.74552  Biso   1.000  C
  C30      1.0000 0.42332  0.59870  0.77181  Biso   1.000  C
  H20      1.0000 0.43500  0.50400  0.75600  Biso   1.000  H
  C31      1.0000 0.44867  0.66520  0.82304  Biso   1.000  C
  H21      1.0000 0.47710  0.61280  0.84160  Biso   1.000  H
  C32      1.0000 0.43209  0.80780  0.84653  Biso   1.000  C
  C33      1.0000 0.38906  0.88030  0.81799  Biso   1.000  C
  H22      1.0000 0.37690  0.97470  0.83340  Biso   1.000  H
  C34      1.0000 0.36419  0.81770  0.76820  Biso   1.000  C
  H23      1.0000 0.33580  0.87020  0.74960  Biso   1.000  H
  C35      1.0000 0.45863  0.87510  0.90180  Biso   1.000  C
  C36      1.0000 0.63488  0.29300  0.49049  Biso   1.000  C
  H24      1.0000 0.63970  0.19830  0.46970  Biso   1.000  H
  C37      1.0000 0.67069  0.41590  0.49460  Biso   1.000  C
  H25      1.0000 0.69890  0.40320  0.47720  Biso   1.000  H
  C38      1.0000 0.66360  0.55930  0.52531  Biso   1.000  C
  C39      1.0000 0.62132  0.56900  0.55093  Biso   1.000  C
  H26      1.0000 0.61530  0.66150  0.57220  Biso   1.000  H
  C40      1.0000 0.58811  0.43890  0.54437  Biso   1.000  C
  H27      1.0000 0.55980  0.44680  0.56180  Biso   1.000  H
  C41      1.0000 0.69879  0.70080  0.52727  Biso   1.000  C
  C42      1.0000 0.69000  0.85070  0.56110  Biso   1.000  C
  H28      1.0000 0.70300  0.83270  0.60100  Biso   1.000  H
  H29      1.0000 0.65500  0.87230  0.55710  Biso   1.000  H
  H30      1.0000 0.70650  0.94350  0.54720  Biso   1.000  H
  Zn2      1.0000 0.53961  0.12570  0.50188  Biso   1.000  Zn
  Cd3      1.0000 0.95992  0.62470  0.99886  Biso   1.000  Cd
  O11      1.0000 0.01436  0.73340  0.95840  Biso   1.000  O
  N5       1.0000 0.90578  0.80390  0.98529  Biso   1.000  N
  C43      1.0000 0.05423  0.68460  0.94448  Biso   1.000  C
  O12      1.0000 0.07453  0.54870  0.95769  Biso   1.000  O
  N6       1.0000 0.76628  0.18320  0.00166  Biso   1.000  N
  C44      1.0000 0.08021  0.80010  0.90838  Biso   1.000  C
  O13      1.0000 0.14732  0.11140  0.80375  Biso   1.000  O
  C45      1.0000 0.06233  0.95650  0.89725  Biso   1.000  C
  H31      1.0000 0.03510  0.99300  0.91320  Biso   1.000  H
  O14      1.0000 0.06148  0.49450  0.57643  Biso   1.000  O
  C46      1.0000 0.08456  0.05980  0.86245  Biso   1.000  C
  H32      1.0000 0.07270  0.16670  0.85550  Biso   1.000  H
  O15      1.0000 0.00140  0.30670  0.57638  Biso   1.000  O
  C47      1.0000 0.12435  0.00550  0.83792  Biso   1.000  C
  C48      1.0000 0.14339  0.85450  0.85050  Biso   1.000  C
  H33      1.0000 0.17120  0.81990  0.83530  Biso   1.000  H
  C49      1.0000 0.12218  0.75240  0.88540  Biso   1.000  C
  H34      1.0000 0.13590  0.64870  0.89410  Biso   1.000  H
  C50      1.0000 0.11867  0.17520  0.75448  Biso   1.000  C
  C51      1.0000 0.07668  0.09870  0.72819  Biso   1.000  C
  H35      1.0000 0.06500  0.00400  0.74400  Biso   1.000  H
  C52      1.0000 0.05133  0.16520  0.67696  Biso   1.000  C
  H36      1.0000 0.02290  0.11280  0.65840  Biso   1.000  H
  C53      1.0000 0.06791  0.30780  0.65347  Biso   1.000  C
  C54      1.0000 0.11094  0.38030  0.68201  Biso   1.000  C
  H37      1.0000 0.12310  0.47470  0.66660  Biso   1.000  H
  C55      1.0000 0.13581  0.31770  0.73180  Biso   1.000  C
  H38      1.0000 0.16420  0.37020  0.75040  Biso   1.000  H
  C56      1.0000 0.04137  0.37510  0.59820  Biso   1.000  C
  C57      1.0000 0.86512  0.79300  0.00951  Biso   1.000  C
  H39      1.0000 0.86030  0.69830  0.03030  Biso   1.000  H
  C58      1.0000 0.82931  0.91590  0.00540  Biso   1.000  C
  H40      1.0000 0.80110  0.90320  0.02280  Biso   1.000  H
  C59      1.0000 0.83640  0.05930  0.97469  Biso   1.000  C
  C60      1.0000 0.87868  0.06900  0.94907  Biso   1.000  C
  H41      1.0000 0.88470  0.16150  0.92780  Biso   1.000  H
  C61      1.0000 0.91189  0.93890  0.95563  Biso   1.000  C
  H42      1.0000 0.94020  0.94680  0.93820  Biso   1.000  H
  C62      1.0000 0.80121  0.20080  0.97273  Biso   1.000  C
  C63      1.0000 0.81000  0.35070  0.93890  Biso   1.000  C
  H43      1.0000 0.79700  0.33270  0.89900  Biso   1.000  H
  H44      1.0000 0.84500  0.37230  0.94290  Biso   1.000  H
  H45      1.0000 0.79350  0.44350  0.95280  Biso   1.000  H
  Zn3      1.0000 0.96039  0.62570  0.99812  Biso   1.000  Zn
  Cd4      1.0000 0.45992  0.12470  0.99886  Biso   1.000  Cd
  O16      1.0000 0.51436  0.23340  0.95840  Biso   1.000  O
  N7       1.0000 0.40578  0.30390  0.98529  Biso   1.000  N
  C64      1.0000 0.55423  0.18460  0.94448  Biso   1.000  C
  O17      1.0000 0.57453  0.04870  0.95769  Biso   1.000  O
  N8       1.0000 0.26628  0.68320  0.00166  Biso   1.000  N
  C65      1.0000 0.58021  0.30010  0.90838  Biso   1.000  C
  O18      1.0000 0.64732  0.61140  0.80375  Biso   1.000  O
  C66      1.0000 0.56233  0.45650  0.89725  Biso   1.000  C
  H46      1.0000 0.53510  0.49300  0.91320  Biso   1.000  H
  O19      1.0000 0.56148  0.99450  0.57643  Biso   1.000  O
  C67      1.0000 0.58456  0.55980  0.86245  Biso   1.000  C
  H47      1.0000 0.57270  0.66670  0.85550  Biso   1.000  H
  O20      1.0000 0.50140  0.80670  0.57638  Biso   1.000  O
  C68      1.0000 0.62435  0.50550  0.83792  Biso   1.000  C
  C69      1.0000 0.64339  0.35450  0.85050  Biso   1.000  C
  H48      1.0000 0.67120  0.31990  0.83530  Biso   1.000  H
  C70      1.0000 0.62218  0.25240  0.88540  Biso   1.000  C
  H49      1.0000 0.63590  0.14870  0.89410  Biso   1.000  H
  C71      1.0000 0.61867  0.67520  0.75448  Biso   1.000  C
  C72      1.0000 0.57668  0.59870  0.72819  Biso   1.000  C
  H50      1.0000 0.56500  0.50400  0.74400  Biso   1.000  H
  C73      1.0000 0.55133  0.66520  0.67696  Biso   1.000  C
  H51      1.0000 0.52290  0.61280  0.65840  Biso   1.000  H
  C74      1.0000 0.56791  0.80780  0.65347  Biso   1.000  C
  C75      1.0000 0.61094  0.88030  0.68201  Biso   1.000  C
  H52      1.0000 0.62310  0.97470  0.66660  Biso   1.000  H
  C76      1.0000 0.63581  0.81770  0.73180  Biso   1.000  C
  H53      1.0000 0.66420  0.87020  0.75040  Biso   1.000  H
  C77      1.0000 0.54137  0.87510  0.59820  Biso   1.000  C
  C78      1.0000 0.36512  0.29300  0.00951  Biso   1.000  C
  H54      1.0000 0.36030  0.19830  0.03030  Biso   1.000  H
  C79      1.0000 0.32931  0.41590  0.00540  Biso   1.000  C
  H55      1.0000 0.30110  0.40320  0.02280  Biso   1.000  H
  C80      1.0000 0.33640  0.55930  0.97469  Biso   1.000  C
  C81      1.0000 0.37868  0.56900  0.94907  Biso   1.000  C
  H56      1.0000 0.38470  0.66150  0.92780  Biso   1.000  H
  C82      1.0000 0.41189  0.43890  0.95563  Biso   1.000  C
  H57      1.0000 0.44020  0.44680  0.93820  Biso   1.000  H
  C83      1.0000 0.30121  0.70080  0.97273  Biso   1.000  C
  C84      1.0000 0.31000  0.85070  0.93890  Biso   1.000  C
  H58      1.0000 0.29700  0.83270  0.89900  Biso   1.000  H
  H59      1.0000 0.34500  0.87230  0.94290  Biso   1.000  H
  H60      1.0000 0.29350  0.94350  0.95280  Biso   1.000  H
  Zn4      1.0000 0.46039  0.12570  0.99812  Biso   1.000  Zn
  Cd5      1.0000 0.95992  0.37530  0.49886  Biso   1.000  Cd
  O21      1.0000 0.01436  0.26660  0.45840  Biso   1.000  O
  N9       1.0000 0.90578  0.19610  0.48529  Biso   1.000  N
  C85      1.0000 0.05423  0.31540  0.44448  Biso   1.000  C
  O22      1.0000 0.07453  0.45130  0.45769  Biso   1.000  O
  N10      1.0000 0.76628  0.81680  0.50166  Biso   1.000  N
  C86      1.0000 0.08021  0.19990  0.40838  Biso   1.000  C
  O23      1.0000 0.14732  0.88860  0.30375  Biso   1.000  O
  C87      1.0000 0.06233  0.04350  0.39725  Biso   1.000  C
  H61      1.0000 0.03510  0.00700  0.41320  Biso   1.000  H
  O24      1.0000 0.06148  0.50550  0.07643  Biso   1.000  O
  C88      1.0000 0.08456  0.94020  0.36245  Biso   1.000  C
  H62      1.0000 0.07270  0.83330  0.35550  Biso   1.000  H
  O25      1.0000 0.00140  0.69330  0.07638  Biso   1.000  O
  C89      1.0000 0.12435  0.99450  0.33792  Biso   1.000  C
  C90      1.0000 0.14339  0.14550  0.35050  Biso   1.000  C
  H63      1.0000 0.17120  0.18010  0.33530  Biso   1.000  H
  C91      1.0000 0.12218  0.24760  0.38540  Biso   1.000  C
  H64      1.0000 0.13590  0.35130  0.39410  Biso   1.000  H
  C92      1.0000 0.11867  0.82480  0.25448  Biso   1.000  C
  C93      1.0000 0.07668  0.90130  0.22819  Biso   1.000  C
  H65      1.0000 0.06500  0.99600  0.24400  Biso   1.000  H
  C94      1.0000 0.05133  0.83480  0.17696  Biso   1.000  C
  H66      1.0000 0.02290  0.88720  0.15840  Biso   1.000  H
  C95      1.0000 0.06791  0.69220  0.15347  Biso   1.000  C
  C96      1.0000 0.11094  0.61970  0.18201  Biso   1.000  C
  H67      1.0000 0.12310  0.52530  0.16660  Biso   1.000  H
  C97      1.0000 0.13581  0.68230  0.23180  Biso   1.000  C
  H68      1.0000 0.16420  0.62980  0.25040  Biso   1.000  H
  C98      1.0000 0.04137  0.62490  0.09820  Biso   1.000  C
  C99      1.0000 0.86512  0.20700  0.50951  Biso   1.000  C
  H69      1.0000 0.86030  0.30170  0.53030  Biso   1.000  H
  C100     1.0000 0.82931  0.08410  0.50540  Biso   1.000  C
  H70      1.0000 0.80110  0.09680  0.52280  Biso   1.000  H
  C101     1.0000 0.83640  0.94070  0.47469  Biso   1.000  C
  C102     1.0000 0.87868  0.93100  0.44907  Biso   1.000  C
  H71      1.0000 0.88470  0.83850  0.42780  Biso   1.000  H
  C103     1.0000 0.91189  0.06110  0.45563  Biso   1.000  C
  H72      1.0000 0.94020  0.05320  0.43820  Biso   1.000  H
  C104     1.0000 0.80121  0.79920  0.47273  Biso   1.000  C
  C105     1.0000 0.81000  0.64930  0.43890  Biso   1.000  C
  H73      1.0000 0.79700  0.66730  0.39900  Biso   1.000  H
  H74      1.0000 0.84500  0.62770  0.44290  Biso   1.000  H
  H75      1.0000 0.79350  0.55650  0.45280  Biso   1.000  H
  Zn5      1.0000 0.96039  0.37430  0.49812  Biso   1.000  Zn
  Cd6      1.0000 0.45992  0.87530  0.49886  Biso   1.000  Cd
  O26      1.0000 0.51436  0.76660  0.45840  Biso   1.000  O
  N11      1.0000 0.40578  0.69610  0.48529  Biso   1.000  N
  C106     1.0000 0.55423  0.81540  0.44448  Biso   1.000  C
  O27      1.0000 0.57453  0.95130  0.45769  Biso   1.000  O
  N12      1.0000 0.26628  0.31680  0.50166  Biso   1.000  N
  C107     1.0000 0.58021  0.69990  0.40838  Biso   1.000  C
  O28      1.0000 0.64732  0.38860  0.30375  Biso   1.000  O
  C108     1.0000 0.56233  0.54350  0.39725  Biso   1.000  C
  H76      1.0000 0.53510  0.50700  0.41320  Biso   1.000  H
  O29      1.0000 0.56148  0.00550  0.07643  Biso   1.000  O
  C109     1.0000 0.58456  0.44020  0.36245  Biso   1.000  C
  H77      1.0000 0.57270  0.33330  0.35550  Biso   1.000  H
  O30      1.0000 0.50140  0.19330  0.07638  Biso   1.000  O
  C110     1.0000 0.62435  0.49450  0.33792  Biso   1.000  C
  C111     1.0000 0.64339  0.64550  0.35050  Biso   1.000  C
  H78      1.0000 0.67120  0.68010  0.33530  Biso   1.000  H
  C112     1.0000 0.62218  0.74760  0.38540  Biso   1.000  C
  H79      1.0000 0.63590  0.85130  0.39410  Biso   1.000  H
  C113     1.0000 0.61867  0.32480  0.25448  Biso   1.000  C
  C114     1.0000 0.57668  0.40130  0.22819  Biso   1.000  C
  H80      1.0000 0.56500  0.49600  0.24400  Biso   1.000  H
  C115     1.0000 0.55133  0.33480  0.17696  Biso   1.000  C
  H81      1.0000 0.52290  0.38720  0.15840  Biso   1.000  H
  C116     1.0000 0.56791  0.19220  0.15347  Biso   1.000  C
  C117     1.0000 0.61094  0.11970  0.18201  Biso   1.000  C
  H82      1.0000 0.62310  0.02530  0.16660  Biso   1.000  H
  C118     1.0000 0.63581  0.18230  0.23180  Biso   1.000  C
  H83      1.0000 0.66420  0.12980  0.25040  Biso   1.000  H
  C119     1.0000 0.54137  0.12490  0.09820  Biso   1.000  C
  C120     1.0000 0.36512  0.70700  0.50951  Biso   1.000  C
  H84      1.0000 0.36030  0.80170  0.53030  Biso   1.000  H
  C121     1.0000 0.32931  0.58410  0.50540  Biso   1.000  C
  H85      1.0000 0.30110  0.59680  0.52280  Biso   1.000  H
  C122     1.0000 0.33640  0.44070  0.47469  Biso   1.000  C
  C123     1.0000 0.37868  0.43100  0.44907  Biso   1.000  C
  H86      1.0000 0.38470  0.33850  0.42780  Biso   1.000  H
  C124     1.0000 0.41189  0.56110  0.45563  Biso   1.000  C
  H87      1.0000 0.44020  0.55320  0.43820  Biso   1.000  H
  C125     1.0000 0.30121  0.29920  0.47273  Biso   1.000  C
  C126     1.0000 0.31000  0.14930  0.43890  Biso   1.000  C
  H88      1.0000 0.29700  0.16730  0.39900  Biso   1.000  H
  H89      1.0000 0.34500  0.12770  0.44290  Biso   1.000  H
  H90      1.0000 0.29350  0.05650  0.45280  Biso   1.000  H
  Zn6      1.0000 0.46039  0.87430  0.49812  Biso   1.000  Zn
  Cd7      1.0000 0.04008  0.37530  0.00114  Biso   1.000  Cd
  O31      1.0000 0.98564  0.26660  0.04160  Biso   1.000  O
  N13      1.0000 0.09422  0.19610  0.01471  Biso   1.000  N
  C127     1.0000 0.94577  0.31540  0.05552  Biso   1.000  C
  O32      1.0000 0.92547  0.45130  0.04231  Biso   1.000  O
  N14      1.0000 0.23372  0.81680  0.99834  Biso   1.000  N
  C128     1.0000 0.91979  0.19990  0.09162  Biso   1.000  C
  O33      1.0000 0.85268  0.88860  0.19625  Biso   1.000  O
  C129     1.0000 0.93767  0.04350  0.10275  Biso   1.000  C
  H91      1.0000 0.96490  0.00700  0.08680  Biso   1.000  H
  O34      1.0000 0.93852  0.50550  0.42357  Biso   1.000  O
  C130     1.0000 0.91544  0.94020  0.13755  Biso   1.000  C
  H92      1.0000 0.92730  0.83330  0.14450  Biso   1.000  H
  O35      1.0000 0.99860  0.69330  0.42362  Biso   1.000  O
  C131     1.0000 0.87565  0.99450  0.16208  Biso   1.000  C
  C132     1.0000 0.85661  0.14550  0.14950  Biso   1.000  C
  H93      1.0000 0.82880  0.18010  0.16470  Biso   1.000  H
  C133     1.0000 0.87782  0.24760  0.11460  Biso   1.000  C
  H94      1.0000 0.86410  0.35130  0.10590  Biso   1.000  H
  C134     1.0000 0.88133  0.82480  0.24552  Biso   1.000  C
  C135     1.0000 0.92332  0.90130  0.27181  Biso   1.000  C
  H95      1.0000 0.93500  0.99600  0.25600  Biso   1.000  H
  C136     1.0000 0.94867  0.83480  0.32304  Biso   1.000  C
  H96      1.0000 0.97710  0.88720  0.34160  Biso   1.000  H
  C137     1.0000 0.93209  0.69220  0.34653  Biso   1.000  C
  C138     1.0000 0.88906  0.61970  0.31799  Biso   1.000  C
  H97      1.0000 0.87690  0.52530  0.33340  Biso   1.000  H
  C139     1.0000 0.86419  0.68230  0.26820  Biso   1.000  C
  H98      1.0000 0.83580  0.62980  0.24960  Biso   1.000  H
  C140     1.0000 0.95863  0.62490  0.40180  Biso   1.000  C
  C141     1.0000 0.13488  0.20700  0.99049  Biso   1.000  C
  H99      1.0000 0.13970  0.30170  0.96970  Biso   1.000  H
  C142     1.0000 0.17069  0.08410  0.99460  Biso   1.000  C
  H100     1.0000 0.19890  0.09680  0.97720  Biso   1.000  H
  C143     1.0000 0.16360  0.94070  0.02531  Biso   1.000  C
  C144     1.0000 0.12132  0.93100  0.05093  Biso   1.000  C
  H101     1.0000 0.11530  0.83850  0.07220  Biso   1.000  H
  C145     1.0000 0.08811  0.06110  0.04437  Biso   1.000  C
  H102     1.0000 0.05980  0.05320  0.06180  Biso   1.000  H
  C146     1.0000 0.19879  0.79920  0.02727  Biso   1.000  C
  C147     1.0000 0.19000  0.64930  0.06110  Biso   1.000  C
  H103     1.0000 0.20300  0.66730  0.10100  Biso   1.000  H
  H104     1.0000 0.15500  0.62770  0.05710  Biso   1.000  H
  H105     1.0000 0.20650  0.55650  0.04720  Biso   1.000  H
  Zn7      1.0000 0.03961  0.37430  0.00188  Biso   1.000  Zn
  Cd8      1.0000 0.54008  0.87530  0.00114  Biso   1.000  Cd
  O36      1.0000 0.48564  0.76660  0.04160  Biso   1.000  O
  N15      1.0000 0.59422  0.69610  0.01471  Biso   1.000  N
  C148     1.0000 0.44577  0.81540  0.05552  Biso   1.000  C
  O37      1.0000 0.42547  0.95130  0.04231  Biso   1.000  O
  N16      1.0000 0.73372  0.31680  0.99834  Biso   1.000  N
  C149     1.0000 0.41979  0.69990  0.09162  Biso   1.000  C
  O38      1.0000 0.35268  0.38860  0.19625  Biso   1.000  O
  C150     1.0000 0.43767  0.54350  0.10275  Biso   1.000  C
  H106     1.0000 0.46490  0.50700  0.08680  Biso   1.000  H
  O39      1.0000 0.43852  0.00550  0.42357  Biso   1.000  O
  C151     1.0000 0.41544  0.44020  0.13755  Biso   1.000  C
  H107     1.0000 0.42730  0.33330  0.14450  Biso   1.000  H
  O40      1.0000 0.49860  0.19330  0.42362  Biso   1.000  O
  C152     1.0000 0.37565  0.49450  0.16208  Biso   1.000  C
  C153     1.0000 0.35661  0.64550  0.14950  Biso   1.000  C
  H108     1.0000 0.32880  0.68010  0.16470  Biso   1.000  H
  C154     1.0000 0.37782  0.74760  0.11460  Biso   1.000  C
  H109     1.0000 0.36410  0.85130  0.10590  Biso   1.000  H
  C155     1.0000 0.38133  0.32480  0.24552  Biso   1.000  C
  C156     1.0000 0.42332  0.40130  0.27181  Biso   1.000  C
  H110     1.0000 0.43500  0.49600  0.25600  Biso   1.000  H
  C157     1.0000 0.44867  0.33480  0.32304  Biso   1.000  C
  H111     1.0000 0.47710  0.38720  0.34160  Biso   1.000  H
  C158     1.0000 0.43209  0.19220  0.34653  Biso   1.000  C
  C159     1.0000 0.38906  0.11970  0.31799  Biso   1.000  C
  H112     1.0000 0.37690  0.02530  0.33340  Biso   1.000  H
  C160     1.0000 0.36419  0.18230  0.26820  Biso   1.000  C
  H113     1.0000 0.33580  0.12980  0.24960  Biso   1.000  H
  C161     1.0000 0.45863  0.12490  0.40180  Biso   1.000  C
  C162     1.0000 0.63488  0.70700  0.99049  Biso   1.000  C
  H114     1.0000 0.63970  0.80170  0.96970  Biso   1.000  H
  C163     1.0000 0.67069  0.58410  0.99460  Biso   1.000  C
  H115     1.0000 0.69890  0.59680  0.97720  Biso   1.000  H
  C164     1.0000 0.66360  0.44070  0.02531  Biso   1.000  C
  C165     1.0000 0.62132  0.43100  0.05093  Biso   1.000  C
  H116     1.0000 0.61530  0.33850  0.07220  Biso   1.000  H
  C166     1.0000 0.58811  0.56110  0.04437  Biso   1.000  C
  H117     1.0000 0.55980  0.55320  0.06180  Biso   1.000  H
  C167     1.0000 0.69879  0.29920  0.02727  Biso   1.000  C
  C168     1.0000 0.69000  0.14930  0.06110  Biso   1.000  C
  H118     1.0000 0.70300  0.16730  0.10100  Biso   1.000  H
  H119     1.0000 0.65500  0.12770  0.05710  Biso   1.000  H
  H120     1.0000 0.70650  0.05650  0.04720  Biso   1.000  H
  Zn8      1.0000 0.53961  0.87430  0.00188  Biso   1.000  Zn
