data_image0
_cell_length_a       18.748
_cell_length_b       18.748
_cell_length_c       31.892
_cell_angle_alpha    90
_cell_angle_beta     90
_cell_angle_gamma    120

_symmetry_space_group_name_H-M    "P 1"
_symmetry_int_tables_number       1

loop_
  _symmetry_equiv_pos_as_xyz
  'x, y, z'

loop_
  _atom_site_label
  _atom_site_occupancy
  _atom_site_fract_x
  _atom_site_fract_y
  _atom_site_fract_z
  _atom_site_thermal_displace_type
  _atom_site_B_iso_or_equiv
  _atom_site_type_symbol
  Zn1      1.0000 0.98562  0.17379  0.08019  Biso   1.000  Zn
  N1       1.0000 0.89530  0.05660  0.06810  Biso   1.000  N
  N2       1.0000 0.90180  0.99190  0.08130  Biso   1.000  N
  N3       1.0000 0.83600  0.92220  0.06720  Biso   1.000  N
  C1       1.0000 0.78830  0.94600  0.04650  Biso   1.000  C
  H1       1.0000 0.73670  0.91050  0.03530  Biso   1.000  H
  C2       1.0000 0.82610  0.02690  0.04470  Biso   1.000  C
  H2       1.0000 0.80840  0.05810  0.03000  Biso   1.000  H
  C3       1.0000 0.98690  0.16830  0.21180  Biso   1.000  C
  C4       1.0000 0.97610  0.22870  0.22930  Biso   1.000  C
  H3       1.0000 0.96930  0.26870  0.21240  Biso   1.000  H
  C5       1.0000 0.99380  0.14880  0.16690  Biso   1.000  C
  O1       1.0000 0.99700  0.08510  0.15980  Biso   1.000  O
  O2       1.0000 0.98070  0.19090  0.14040  Biso   1.000  O
  C6       1.0000 0.04460  0.43960  0.02370  Biso   1.000  C
  H4       1.0000 0.09550  0.44790  0.03250  Biso   1.000  H
  C7       1.0000 0.97850  0.36540  0.02540  Biso   1.000  C
  C8       1.0000 0.90090  0.35060  0.01180  Biso   1.000  C
  H5       1.0000 0.85420  0.29920  0.01550  Biso   1.000  H
  C9       1.0000 0.89570  0.41570  0.99240  Biso   1.000  C
  H6       1.0000 0.84690  0.40630  0.98000  Biso   1.000  H
  C10      1.0000 0.96340  0.49220  0.99220  Biso   1.000  C
  C11      1.0000 0.97780  0.29110  0.04510  Biso   1.000  C
  O3       1.0000 0.90700  0.23010  0.05230  Biso   1.000  O
  O4       1.0000 0.03870  0.28810  0.05040  Biso   1.000  O
  Zn2      1.0000 0.01443  0.18818  0.08010  Biso   1.000  Zn
  N4       1.0000 0.91380  0.07740  0.06720  Biso   1.000  N
  N5       1.0000 0.91020  0.00870  0.08110  Biso   1.000  N
  N6       1.0000 0.83900  0.94370  0.06820  Biso   1.000  N
  C12      1.0000 0.79860  0.97300  0.04530  Biso   1.000  C
  H7       1.0000 0.74930  0.94170  0.03100  Biso   1.000  H
  C13      1.0000 0.84180  0.05390  0.04690  Biso   1.000  C
  H8       1.0000 0.82560  0.08940  0.03580  Biso   1.000  H
  C14      1.0000 0.01300  0.18330  0.21190  Biso   1.000  C
  C15      1.0000 0.02470  0.25490  0.22950  Biso   1.000  C
  H9       1.0000 0.03240  0.30230  0.21330  Biso   1.000  H
  C16      1.0000 0.00650  0.15850  0.16680  Biso   1.000  C
  O5       1.0000 0.00300  0.09260  0.15840  Biso   1.000  O
  O6       1.0000 0.02000  0.21500  0.14030  Biso   1.000  O
  C17      1.0000 0.95590  0.39510  0.02390  Biso   1.000  C
  H10      1.0000 0.90510  0.35240  0.03280  Biso   1.000  H
  C18      1.0000 0.02170  0.38790  0.02540  Biso   1.000  C
  C19      1.0000 0.09950  0.45070  0.01160  Biso   1.000  C
  H11      1.0000 0.14640  0.44650  0.01560  Biso   1.000  H
  C20      1.0000 0.10400  0.51990  0.99160  Biso   1.000  C
  H12      1.0000 0.15220  0.55870  0.97850  Biso   1.000  H
  C21      1.0000 0.03630  0.52860  0.99200  Biso   1.000  C
  C22      1.0000 0.02370  0.31450  0.04540  Biso   1.000  C
  O7       1.0000 0.96290  0.25080  0.04990  Biso   1.000  O
  O8       1.0000 0.09390  0.32460  0.05240  Biso   1.000  O
  Zn3      1.0000 0.82621  0.81183  0.08019  Biso   1.000  Zn
  N7       1.0000 0.94340  0.83870  0.06810  Biso   1.000  N
  N8       1.0000 0.00810  0.90990  0.08130  Biso   1.000  N
  N9       1.0000 0.07780  0.91380  0.06720  Biso   1.000  N
  C23      1.0000 0.05400  0.84230  0.04650  Biso   1.000  C
  H13      1.0000 0.08950  0.82620  0.03530  Biso   1.000  H
  C24      1.0000 0.97310  0.79920  0.04470  Biso   1.000  C
  H14      1.0000 0.94190  0.75030  0.03000  Biso   1.000  H
  C25      1.0000 0.83170  0.81860  0.21180  Biso   1.000  C
  C26      1.0000 0.77130  0.74740  0.22930  Biso   1.000  C
  H15      1.0000 0.73130  0.70060  0.21240  Biso   1.000  H
  C27      1.0000 0.85120  0.84500  0.16690  Biso   1.000  C
  O9       1.0000 0.91490  0.91190  0.15980  Biso   1.000  O
  O10      1.0000 0.80910  0.78980  0.14040  Biso   1.000  O
  C28      1.0000 0.56040  0.60500  0.02370  Biso   1.000  C
  H16      1.0000 0.55210  0.64760  0.03250  Biso   1.000  H
  C29      1.0000 0.63460  0.61310  0.02540  Biso   1.000  C
  C30      1.0000 0.64940  0.55030  0.01180  Biso   1.000  C
  H17      1.0000 0.70080  0.55500  0.01550  Biso   1.000  H
  C31      1.0000 0.58430  0.48000  0.99240  Biso   1.000  C
  H18      1.0000 0.59370  0.44060  0.98000  Biso   1.000  H
  C32      1.0000 0.50780  0.47120  0.99220  Biso   1.000  C
  C33      1.0000 0.70890  0.68670  0.04510  Biso   1.000  C
  O11      1.0000 0.76990  0.67690  0.05230  Biso   1.000  O
  O12      1.0000 0.71190  0.75060  0.05040  Biso   1.000  O
  Zn4      1.0000 0.81182  0.82625  0.08010  Biso   1.000  Zn
  N10      1.0000 0.92260  0.83640  0.06720  Biso   1.000  N
  N11      1.0000 0.99130  0.90150  0.08110  Biso   1.000  N
  N12      1.0000 0.05630  0.89530  0.06820  Biso   1.000  N
  C34      1.0000 0.02700  0.82560  0.04530  Biso   1.000  C
  H19      1.0000 0.05830  0.80760  0.03100  Biso   1.000  H
  C35      1.0000 0.94610  0.78790  0.04690  Biso   1.000  C
  H20      1.0000 0.91060  0.73620  0.03580  Biso   1.000  H
  C36      1.0000 0.81670  0.82970  0.21190  Biso   1.000  C
  C37      1.0000 0.74510  0.76980  0.22950  Biso   1.000  C
  H21      1.0000 0.69770  0.73010  0.21330  Biso   1.000  H
  C38      1.0000 0.84150  0.84800  0.16680  Biso   1.000  C
  O13      1.0000 0.90740  0.91040  0.15840  Biso   1.000  O
  O14      1.0000 0.78500  0.80500  0.14030  Biso   1.000  O
  C39      1.0000 0.60490  0.56080  0.02390  Biso   1.000  C
  H22      1.0000 0.64760  0.55270  0.03280  Biso   1.000  H
  C40      1.0000 0.61210  0.63380  0.02540  Biso   1.000  C
  C41      1.0000 0.54930  0.64880  0.01160  Biso   1.000  C
  H23      1.0000 0.55350  0.69990  0.01560  Biso   1.000  H
  C42      1.0000 0.48010  0.58410  0.99160  Biso   1.000  C
  H24      1.0000 0.44130  0.59350  0.97850  Biso   1.000  H
  C43      1.0000 0.47140  0.50770  0.99200  Biso   1.000  C
  C44      1.0000 0.68550  0.70920  0.04540  Biso   1.000  C
  O15      1.0000 0.74920  0.71210  0.04990  Biso   1.000  O
  O16      1.0000 0.67540  0.76930  0.05240  Biso   1.000  O
  Zn5      1.0000 0.18817  0.01438  0.08019  Biso   1.000  Zn
  N13      1.0000 0.16130  0.10470  0.06810  Biso   1.000  N
  N14      1.0000 0.09010  0.09820  0.08130  Biso   1.000  N
  N15      1.0000 0.08620  0.16400  0.06720  Biso   1.000  N
  C45      1.0000 0.15770  0.21170  0.04650  Biso   1.000  C
  H25      1.0000 0.17380  0.26330  0.03530  Biso   1.000  H
  C46      1.0000 0.20080  0.17390  0.04470  Biso   1.000  C
  H26      1.0000 0.24970  0.19160  0.03000  Biso   1.000  H
  C47      1.0000 0.18140  0.01310  0.21180  Biso   1.000  C
  C48      1.0000 0.25260  0.02390  0.22930  Biso   1.000  C
  H27      1.0000 0.29940  0.03070  0.21240  Biso   1.000  H
  C49      1.0000 0.15500  0.00620  0.16690  Biso   1.000  C
  O17      1.0000 0.08810  0.00300  0.15980  Biso   1.000  O
  O18      1.0000 0.21020  0.01930  0.14040  Biso   1.000  O
  C50      1.0000 0.39500  0.95540  0.02370  Biso   1.000  C
  H28      1.0000 0.35240  0.90450  0.03250  Biso   1.000  H
  C51      1.0000 0.38690  0.02150  0.02540  Biso   1.000  C
  C52      1.0000 0.44970  0.09910  0.01180  Biso   1.000  C
  H29      1.0000 0.44500  0.14580  0.01550  Biso   1.000  H
  C53      1.0000 0.52000  0.10430  0.99240  Biso   1.000  C
  H30      1.0000 0.55940  0.15310  0.98000  Biso   1.000  H
  C54      1.0000 0.52880  0.03660  0.99220  Biso   1.000  C
  C55      1.0000 0.31330  0.02220  0.04510  Biso   1.000  C
  O19      1.0000 0.32310  0.09300  0.05230  Biso   1.000  O
  O20      1.0000 0.24940  0.96130  0.05040  Biso   1.000  O
  Zn6      1.0000 0.17375  0.98557  0.08010  Biso   1.000  Zn
  N16      1.0000 0.16360  0.08620  0.06720  Biso   1.000  N
  N17      1.0000 0.09850  0.08980  0.08110  Biso   1.000  N
  N18      1.0000 0.10470  0.16100  0.06820  Biso   1.000  N
  C56      1.0000 0.17440  0.20140  0.04530  Biso   1.000  C
  H31      1.0000 0.19240  0.25070  0.03100  Biso   1.000  H
  C57      1.0000 0.21210  0.15820  0.04690  Biso   1.000  C
  H32      1.0000 0.26380  0.17440  0.03580  Biso   1.000  H
  C58      1.0000 0.17030  0.98700  0.21190  Biso   1.000  C
  C59      1.0000 0.23020  0.97530  0.22950  Biso   1.000  C
  H33      1.0000 0.26990  0.96760  0.21330  Biso   1.000  H
  C60      1.0000 0.15200  0.99350  0.16680  Biso   1.000  C
  O21      1.0000 0.08960  0.99700  0.15840  Biso   1.000  O
  O22      1.0000 0.19500  0.98000  0.14030  Biso   1.000  O
  C61      1.0000 0.43920  0.04410  0.02390  Biso   1.000  C
  H34      1.0000 0.44730  0.09490  0.03280  Biso   1.000  H
  C62      1.0000 0.36620  0.97830  0.02540  Biso   1.000  C
  C63      1.0000 0.35120  0.90050  0.01160  Biso   1.000  C
  H35      1.0000 0.30010  0.85360  0.01560  Biso   1.000  H
  C64      1.0000 0.41590  0.89600  0.99160  Biso   1.000  C
  H36      1.0000 0.40650  0.84780  0.97850  Biso   1.000  H
  C65      1.0000 0.49230  0.96370  0.99200  Biso   1.000  C
  C66      1.0000 0.29080  0.97630  0.04540  Biso   1.000  C
  O23      1.0000 0.28790  0.03710  0.04990  Biso   1.000  O
  O24      1.0000 0.23070  0.90610  0.05240  Biso   1.000  O
  Zn7      1.0000 0.17379  0.98562  0.41981  Biso   1.000  Zn
  N19      1.0000 0.05660  0.89530  0.43190  Biso   1.000  N
  N20      1.0000 0.99190  0.90180  0.41870  Biso   1.000  N
  N21      1.0000 0.92220  0.83600  0.43280  Biso   1.000  N
  C67      1.0000 0.94600  0.78830  0.45350  Biso   1.000  C
  H37      1.0000 0.91050  0.73670  0.46470  Biso   1.000  H
  C68      1.0000 0.02690  0.82610  0.45530  Biso   1.000  C
  H38      1.0000 0.05810  0.80840  0.47000  Biso   1.000  H
  C69      1.0000 0.16830  0.98690  0.28820  Biso   1.000  C
  C70      1.0000 0.22870  0.97610  0.27070  Biso   1.000  C
  H39      1.0000 0.26870  0.96930  0.28760  Biso   1.000  H
  C71      1.0000 0.14880  0.99380  0.33310  Biso   1.000  C
  O25      1.0000 0.08510  0.99700  0.34020  Biso   1.000  O
  O26      1.0000 0.19090  0.98070  0.35960  Biso   1.000  O
  C72      1.0000 0.43960  0.04460  0.47630  Biso   1.000  C
  H40      1.0000 0.44790  0.09550  0.46750  Biso   1.000  H
  C73      1.0000 0.36540  0.97850  0.47460  Biso   1.000  C
  C74      1.0000 0.35060  0.90090  0.48820  Biso   1.000  C
  H41      1.0000 0.29920  0.85420  0.48450  Biso   1.000  H
  C75      1.0000 0.41570  0.89570  0.50760  Biso   1.000  C
  H42      1.0000 0.40630  0.84690  0.52000  Biso   1.000  H
  C76      1.0000 0.49220  0.96340  0.50780  Biso   1.000  C
  C77      1.0000 0.29110  0.97780  0.45490  Biso   1.000  C
  O27      1.0000 0.23010  0.90700  0.44770  Biso   1.000  O
  O28      1.0000 0.28810  0.03870  0.44960  Biso   1.000  O
  Zn8      1.0000 0.18818  0.01443  0.41990  Biso   1.000  Zn
  N22      1.0000 0.07740  0.91380  0.43280  Biso   1.000  N
  N23      1.0000 0.00870  0.91020  0.41890  Biso   1.000  N
  N24      1.0000 0.94370  0.83900  0.43180  Biso   1.000  N
  C78      1.0000 0.97300  0.79860  0.45470  Biso   1.000  C
  H43      1.0000 0.94170  0.74930  0.46900  Biso   1.000  H
  C79      1.0000 0.05390  0.84180  0.45310  Biso   1.000  C
  H44      1.0000 0.08940  0.82560  0.46420  Biso   1.000  H
  C80      1.0000 0.18330  0.01300  0.28810  Biso   1.000  C
  C81      1.0000 0.25490  0.02470  0.27050  Biso   1.000  C
  H45      1.0000 0.30230  0.03240  0.28670  Biso   1.000  H
  C82      1.0000 0.15850  0.00650  0.33320  Biso   1.000  C
  O29      1.0000 0.09260  0.00300  0.34160  Biso   1.000  O
  O30      1.0000 0.21500  0.02000  0.35970  Biso   1.000  O
  C83      1.0000 0.39510  0.95590  0.47610  Biso   1.000  C
  H46      1.0000 0.35240  0.90510  0.46720  Biso   1.000  H
  C84      1.0000 0.38790  0.02170  0.47460  Biso   1.000  C
  C85      1.0000 0.45070  0.09950  0.48840  Biso   1.000  C
  H47      1.0000 0.44650  0.14640  0.48440  Biso   1.000  H
  C86      1.0000 0.51990  0.10400  0.50840  Biso   1.000  C
  H48      1.0000 0.55870  0.15220  0.52150  Biso   1.000  H
  C87      1.0000 0.52860  0.03630  0.50800  Biso   1.000  C
  C88      1.0000 0.31450  0.02370  0.45460  Biso   1.000  C
  O31      1.0000 0.25080  0.96290  0.45010  Biso   1.000  O
  O32      1.0000 0.32460  0.09390  0.44760  Biso   1.000  O
  Zn9      1.0000 0.81183  0.82621  0.41981  Biso   1.000  Zn
  N25      1.0000 0.83870  0.94340  0.43190  Biso   1.000  N
  N26      1.0000 0.90990  0.00810  0.41870  Biso   1.000  N
  N27      1.0000 0.91380  0.07780  0.43280  Biso   1.000  N
  C89      1.0000 0.84230  0.05400  0.45350  Biso   1.000  C
  H49      1.0000 0.82620  0.08950  0.46470  Biso   1.000  H
  C90      1.0000 0.79920  0.97310  0.45530  Biso   1.000  C
  H50      1.0000 0.75030  0.94190  0.47000  Biso   1.000  H
  C91      1.0000 0.81860  0.83170  0.28820  Biso   1.000  C
  C92      1.0000 0.74740  0.77130  0.27070  Biso   1.000  C
  H51      1.0000 0.70060  0.73130  0.28760  Biso   1.000  H
  C93      1.0000 0.84500  0.85120  0.33310  Biso   1.000  C
  O33      1.0000 0.91190  0.91490  0.34020  Biso   1.000  O
  O34      1.0000 0.78980  0.80910  0.35960  Biso   1.000  O
  C94      1.0000 0.60500  0.56040  0.47630  Biso   1.000  C
  H52      1.0000 0.64760  0.55210  0.46750  Biso   1.000  H
  C95      1.0000 0.61310  0.63460  0.47460  Biso   1.000  C
  C96      1.0000 0.55030  0.64940  0.48820  Biso   1.000  C
  H53      1.0000 0.55500  0.70080  0.48450  Biso   1.000  H
  C97      1.0000 0.48000  0.58430  0.50760  Biso   1.000  C
  H54      1.0000 0.44060  0.59370  0.52000  Biso   1.000  H
  C98      1.0000 0.47120  0.50780  0.50780  Biso   1.000  C
  C99      1.0000 0.68670  0.70890  0.45490  Biso   1.000  C
  O35      1.0000 0.67690  0.76990  0.44770  Biso   1.000  O
  O36      1.0000 0.75060  0.71190  0.44960  Biso   1.000  O
  Zn10     1.0000 0.82625  0.81182  0.41990  Biso   1.000  Zn
  N28      1.0000 0.83640  0.92260  0.43280  Biso   1.000  N
  N29      1.0000 0.90150  0.99130  0.41890  Biso   1.000  N
  N30      1.0000 0.89530  0.05630  0.43180  Biso   1.000  N
  C100     1.0000 0.82560  0.02700  0.45470  Biso   1.000  C
  H55      1.0000 0.80760  0.05830  0.46900  Biso   1.000  H
  C101     1.0000 0.78790  0.94610  0.45310  Biso   1.000  C
  H56      1.0000 0.73620  0.91060  0.46420  Biso   1.000  H
  C102     1.0000 0.82970  0.81670  0.28810  Biso   1.000  C
  C103     1.0000 0.76980  0.74510  0.27050  Biso   1.000  C
  H57      1.0000 0.73010  0.69770  0.28670  Biso   1.000  H
  C104     1.0000 0.84800  0.84150  0.33320  Biso   1.000  C
  O37      1.0000 0.91040  0.90740  0.34160  Biso   1.000  O
  O38      1.0000 0.80500  0.78500  0.35970  Biso   1.000  O
  C105     1.0000 0.56080  0.60490  0.47610  Biso   1.000  C
  H58      1.0000 0.55270  0.64760  0.46720  Biso   1.000  H
  C106     1.0000 0.63380  0.61210  0.47460  Biso   1.000  C
  C107     1.0000 0.64880  0.54930  0.48840  Biso   1.000  C
  H59      1.0000 0.69990  0.55350  0.48440  Biso   1.000  H
  C108     1.0000 0.58410  0.48010  0.50840  Biso   1.000  C
  H60      1.0000 0.59350  0.44130  0.52150  Biso   1.000  H
  C109     1.0000 0.50770  0.47140  0.50800  Biso   1.000  C
  C110     1.0000 0.70920  0.68550  0.45460  Biso   1.000  C
  O39      1.0000 0.71210  0.74920  0.45010  Biso   1.000  O
  O40      1.0000 0.76930  0.67540  0.44760  Biso   1.000  O
  Zn11     1.0000 0.01438  0.18817  0.41981  Biso   1.000  Zn
  N31      1.0000 0.10470  0.16130  0.43190  Biso   1.000  N
  N32      1.0000 0.09820  0.09010  0.41870  Biso   1.000  N
  N33      1.0000 0.16400  0.08620  0.43280  Biso   1.000  N
  C111     1.0000 0.21170  0.15770  0.45350  Biso   1.000  C
  H61      1.0000 0.26330  0.17380  0.46470  Biso   1.000  H
  C112     1.0000 0.17390  0.20080  0.45530  Biso   1.000  C
  H62      1.0000 0.19160  0.24970  0.47000  Biso   1.000  H
  C113     1.0000 0.01310  0.18140  0.28820  Biso   1.000  C
  C114     1.0000 0.02390  0.25260  0.27070  Biso   1.000  C
  H63      1.0000 0.03070  0.29940  0.28760  Biso   1.000  H
  C115     1.0000 0.00620  0.15500  0.33310  Biso   1.000  C
  O41      1.0000 0.00300  0.08810  0.34020  Biso   1.000  O
  O42      1.0000 0.01930  0.21020  0.35960  Biso   1.000  O
  C116     1.0000 0.95540  0.39500  0.47630  Biso   1.000  C
  H64      1.0000 0.90450  0.35240  0.46750  Biso   1.000  H
  C117     1.0000 0.02150  0.38690  0.47460  Biso   1.000  C
  C118     1.0000 0.09910  0.44970  0.48820  Biso   1.000  C
  H65      1.0000 0.14580  0.44500  0.48450  Biso   1.000  H
  C119     1.0000 0.10430  0.52000  0.50760  Biso   1.000  C
  H66      1.0000 0.15310  0.55940  0.52000  Biso   1.000  H
  C120     1.0000 0.03660  0.52880  0.50780  Biso   1.000  C
  C121     1.0000 0.02220  0.31330  0.45490  Biso   1.000  C
  O43      1.0000 0.09300  0.32310  0.44770  Biso   1.000  O
  O44      1.0000 0.96130  0.24940  0.44960  Biso   1.000  O
  Zn12     1.0000 0.98557  0.17375  0.41990  Biso   1.000  Zn
  N34      1.0000 0.08620  0.16360  0.43280  Biso   1.000  N
  N35      1.0000 0.08980  0.09850  0.41890  Biso   1.000  N
  N36      1.0000 0.16100  0.10470  0.43180  Biso   1.000  N
  C122     1.0000 0.20140  0.17440  0.45470  Biso   1.000  C
  H67      1.0000 0.25070  0.19240  0.46900  Biso   1.000  H
  C123     1.0000 0.15820  0.21210  0.45310  Biso   1.000  C
  H68      1.0000 0.17440  0.26380  0.46420  Biso   1.000  H
  C124     1.0000 0.98700  0.17030  0.28810  Biso   1.000  C
  C125     1.0000 0.97530  0.23020  0.27050  Biso   1.000  C
  H69      1.0000 0.96760  0.26990  0.28670  Biso   1.000  H
  C126     1.0000 0.99350  0.15200  0.33320  Biso   1.000  C
  O45      1.0000 0.99700  0.08960  0.34160  Biso   1.000  O
  O46      1.0000 0.98000  0.19500  0.35970  Biso   1.000  O
  C127     1.0000 0.04410  0.43920  0.47610  Biso   1.000  C
  H70      1.0000 0.09490  0.44730  0.46720  Biso   1.000  H
  C128     1.0000 0.97830  0.36620  0.47460  Biso   1.000  C
  C129     1.0000 0.90050  0.35120  0.48840  Biso   1.000  C
  H71      1.0000 0.85360  0.30010  0.48440  Biso   1.000  H
  C130     1.0000 0.89600  0.41590  0.50840  Biso   1.000  C
  H72      1.0000 0.84780  0.40650  0.52150  Biso   1.000  H
  C131     1.0000 0.96370  0.49230  0.50800  Biso   1.000  C
  C132     1.0000 0.97630  0.29080  0.45460  Biso   1.000  C
  O47      1.0000 0.03710  0.28790  0.45010  Biso   1.000  O
  O48      1.0000 0.90610  0.23070  0.44760  Biso   1.000  O
  Zn13     1.0000 0.01438  0.82621  0.91981  Biso   1.000  Zn
  N37      1.0000 0.10470  0.94340  0.93190  Biso   1.000  N
  N38      1.0000 0.09820  0.00810  0.91870  Biso   1.000  N
  N39      1.0000 0.16400  0.07780  0.93280  Biso   1.000  N
  C133     1.0000 0.21170  0.05400  0.95350  Biso   1.000  C
  H73      1.0000 0.26330  0.08950  0.96470  Biso   1.000  H
  C134     1.0000 0.17390  0.97310  0.95530  Biso   1.000  C
  H74      1.0000 0.19160  0.94190  0.97000  Biso   1.000  H
  C135     1.0000 0.01310  0.83170  0.78820  Biso   1.000  C
  C136     1.0000 0.02390  0.77130  0.77070  Biso   1.000  C
  H75      1.0000 0.03070  0.73130  0.78760  Biso   1.000  H
  C137     1.0000 0.00620  0.85120  0.83310  Biso   1.000  C
  O49      1.0000 0.00300  0.91490  0.84020  Biso   1.000  O
  O50      1.0000 0.01930  0.80910  0.85960  Biso   1.000  O
  C138     1.0000 0.95540  0.56040  0.97630  Biso   1.000  C
  H76      1.0000 0.90450  0.55210  0.96750  Biso   1.000  H
  C139     1.0000 0.02150  0.63460  0.97460  Biso   1.000  C
  C140     1.0000 0.09910  0.64940  0.98820  Biso   1.000  C
  H77      1.0000 0.14580  0.70080  0.98450  Biso   1.000  H
  C141     1.0000 0.10430  0.58430  0.00760  Biso   1.000  C
  H78      1.0000 0.15310  0.59370  0.02000  Biso   1.000  H
  C142     1.0000 0.03660  0.50780  0.00780  Biso   1.000  C
  C143     1.0000 0.02220  0.70890  0.95490  Biso   1.000  C
  O51      1.0000 0.09300  0.76990  0.94770  Biso   1.000  O
  O52      1.0000 0.96130  0.71190  0.94960  Biso   1.000  O
  Zn14     1.0000 0.98557  0.81182  0.91990  Biso   1.000  Zn
  N40      1.0000 0.08620  0.92260  0.93280  Biso   1.000  N
  N41      1.0000 0.08980  0.99130  0.91890  Biso   1.000  N
  N42      1.0000 0.16100  0.05630  0.93180  Biso   1.000  N
  C144     1.0000 0.20140  0.02700  0.95470  Biso   1.000  C
  H79      1.0000 0.25070  0.05830  0.96900  Biso   1.000  H
  C145     1.0000 0.15820  0.94610  0.95310  Biso   1.000  C
  H80      1.0000 0.17440  0.91060  0.96420  Biso   1.000  H
  C146     1.0000 0.98700  0.81670  0.78810  Biso   1.000  C
  C147     1.0000 0.97530  0.74510  0.77050  Biso   1.000  C
  H81      1.0000 0.96760  0.69770  0.78670  Biso   1.000  H
  C148     1.0000 0.99350  0.84150  0.83320  Biso   1.000  C
  O53      1.0000 0.99700  0.90740  0.84160  Biso   1.000  O
  O54      1.0000 0.98000  0.78500  0.85970  Biso   1.000  O
  C149     1.0000 0.04410  0.60490  0.97610  Biso   1.000  C
  H82      1.0000 0.09490  0.64760  0.96720  Biso   1.000  H
  C150     1.0000 0.97830  0.61210  0.97460  Biso   1.000  C
  C151     1.0000 0.90050  0.54930  0.98840  Biso   1.000  C
  H83      1.0000 0.85360  0.55350  0.98440  Biso   1.000  H
  C152     1.0000 0.89600  0.48010  0.00840  Biso   1.000  C
  H84      1.0000 0.84780  0.44130  0.02150  Biso   1.000  H
  C153     1.0000 0.96370  0.47140  0.00800  Biso   1.000  C
  C154     1.0000 0.97630  0.68550  0.95460  Biso   1.000  C
  O55      1.0000 0.03710  0.74920  0.95010  Biso   1.000  O
  O56      1.0000 0.90610  0.67540  0.94760  Biso   1.000  O
  Zn15     1.0000 0.17379  0.18817  0.91981  Biso   1.000  Zn
  N43      1.0000 0.05660  0.16130  0.93190  Biso   1.000  N
  N44      1.0000 0.99190  0.09010  0.91870  Biso   1.000  N
  N45      1.0000 0.92220  0.08620  0.93280  Biso   1.000  N
  C155     1.0000 0.94600  0.15770  0.95350  Biso   1.000  C
  H85      1.0000 0.91050  0.17380  0.96470  Biso   1.000  H
  C156     1.0000 0.02690  0.20080  0.95530  Biso   1.000  C
  H86      1.0000 0.05810  0.24970  0.97000  Biso   1.000  H
  C157     1.0000 0.16830  0.18140  0.78820  Biso   1.000  C
  C158     1.0000 0.22870  0.25260  0.77070  Biso   1.000  C
  H87      1.0000 0.26870  0.29940  0.78760  Biso   1.000  H
  C159     1.0000 0.14880  0.15500  0.83310  Biso   1.000  C
  O57      1.0000 0.08510  0.08810  0.84020  Biso   1.000  O
  O58      1.0000 0.19090  0.21020  0.85960  Biso   1.000  O
  C160     1.0000 0.43960  0.39500  0.97630  Biso   1.000  C
  H88      1.0000 0.44790  0.35240  0.96750  Biso   1.000  H
  C161     1.0000 0.36540  0.38690  0.97460  Biso   1.000  C
  C162     1.0000 0.35060  0.44970  0.98820  Biso   1.000  C
  H89      1.0000 0.29920  0.44500  0.98450  Biso   1.000  H
  C163     1.0000 0.41570  0.52000  0.00760  Biso   1.000  C
  H90      1.0000 0.40630  0.55940  0.02000  Biso   1.000  H
  C164     1.0000 0.49220  0.52880  0.00780  Biso   1.000  C
  C165     1.0000 0.29110  0.31330  0.95490  Biso   1.000  C
  O59      1.0000 0.23010  0.32310  0.94770  Biso   1.000  O
  O60      1.0000 0.28810  0.24940  0.94960  Biso   1.000  O
  Zn16     1.0000 0.18818  0.17375  0.91990  Biso   1.000  Zn
  N46      1.0000 0.07740  0.16360  0.93280  Biso   1.000  N
  N47      1.0000 0.00870  0.09850  0.91890  Biso   1.000  N
  N48      1.0000 0.94370  0.10470  0.93180  Biso   1.000  N
  C166     1.0000 0.97300  0.17440  0.95470  Biso   1.000  C
  H91      1.0000 0.94170  0.19240  0.96900  Biso   1.000  H
  C167     1.0000 0.05390  0.21210  0.95310  Biso   1.000  C
  H92      1.0000 0.08940  0.26380  0.96420  Biso   1.000  H
  C168     1.0000 0.18330  0.17030  0.78810  Biso   1.000  C
  C169     1.0000 0.25490  0.23020  0.77050  Biso   1.000  C
  H93      1.0000 0.30230  0.26990  0.78670  Biso   1.000  H
  C170     1.0000 0.15850  0.15200  0.83320  Biso   1.000  C
  O61      1.0000 0.09260  0.08960  0.84160  Biso   1.000  O
  O62      1.0000 0.21500  0.19500  0.85970  Biso   1.000  O
  C171     1.0000 0.39510  0.43920  0.97610  Biso   1.000  C
  H94      1.0000 0.35240  0.44730  0.96720  Biso   1.000  H
  C172     1.0000 0.38790  0.36620  0.97460  Biso   1.000  C
  C173     1.0000 0.45070  0.35120  0.98840  Biso   1.000  C
  H95      1.0000 0.44650  0.30010  0.98440  Biso   1.000  H
  C174     1.0000 0.51990  0.41590  0.00840  Biso   1.000  C
  H96      1.0000 0.55870  0.40650  0.02150  Biso   1.000  H
  C175     1.0000 0.52860  0.49230  0.00800  Biso   1.000  C
  C176     1.0000 0.31450  0.29080  0.95460  Biso   1.000  C
  O63      1.0000 0.25080  0.28790  0.95010  Biso   1.000  O
  O64      1.0000 0.32460  0.23070  0.94760  Biso   1.000  O
  Zn17     1.0000 0.81183  0.98562  0.91981  Biso   1.000  Zn
  N49      1.0000 0.83870  0.89530  0.93190  Biso   1.000  N
  N50      1.0000 0.90990  0.90180  0.91870  Biso   1.000  N
  N51      1.0000 0.91380  0.83600  0.93280  Biso   1.000  N
  C177     1.0000 0.84230  0.78830  0.95350  Biso   1.000  C
  H97      1.0000 0.82620  0.73670  0.96470  Biso   1.000  H
  C178     1.0000 0.79920  0.82610  0.95530  Biso   1.000  C
  H98      1.0000 0.75030  0.80840  0.97000  Biso   1.000  H
  C179     1.0000 0.81860  0.98690  0.78820  Biso   1.000  C
  C180     1.0000 0.74740  0.97610  0.77070  Biso   1.000  C
  H99      1.0000 0.70060  0.96930  0.78760  Biso   1.000  H
  C181     1.0000 0.84500  0.99380  0.83310  Biso   1.000  C
  O65      1.0000 0.91190  0.99700  0.84020  Biso   1.000  O
  O66      1.0000 0.78980  0.98070  0.85960  Biso   1.000  O
  C182     1.0000 0.60500  0.04460  0.97630  Biso   1.000  C
  H100     1.0000 0.64760  0.09550  0.96750  Biso   1.000  H
  C183     1.0000 0.61310  0.97850  0.97460  Biso   1.000  C
  C184     1.0000 0.55030  0.90090  0.98820  Biso   1.000  C
  H101     1.0000 0.55500  0.85420  0.98450  Biso   1.000  H
  C185     1.0000 0.48000  0.89570  0.00760  Biso   1.000  C
  H102     1.0000 0.44060  0.84690  0.02000  Biso   1.000  H
  C186     1.0000 0.47120  0.96340  0.00780  Biso   1.000  C
  C187     1.0000 0.68670  0.97780  0.95490  Biso   1.000  C
  O67      1.0000 0.67690  0.90700  0.94770  Biso   1.000  O
  O68      1.0000 0.75060  0.03870  0.94960  Biso   1.000  O
  Zn18     1.0000 0.82625  0.01443  0.91990  Biso   1.000  Zn
  N52      1.0000 0.83640  0.91380  0.93280  Biso   1.000  N
  N53      1.0000 0.90150  0.91020  0.91890  Biso   1.000  N
  N54      1.0000 0.89530  0.83900  0.93180  Biso   1.000  N
  C188     1.0000 0.82560  0.79860  0.95470  Biso   1.000  C
  H103     1.0000 0.80760  0.74930  0.96900  Biso   1.000  H
  C189     1.0000 0.78790  0.84180  0.95310  Biso   1.000  C
  H104     1.0000 0.73620  0.82560  0.96420  Biso   1.000  H
  C190     1.0000 0.82970  0.01300  0.78810  Biso   1.000  C
  C191     1.0000 0.76980  0.02470  0.77050  Biso   1.000  C
  H105     1.0000 0.73010  0.03240  0.78670  Biso   1.000  H
  C192     1.0000 0.84800  0.00650  0.83320  Biso   1.000  C
  O69      1.0000 0.91040  0.00300  0.84160  Biso   1.000  O
  O70      1.0000 0.80500  0.02000  0.85970  Biso   1.000  O
  C193     1.0000 0.56080  0.95590  0.97610  Biso   1.000  C
  H106     1.0000 0.55270  0.90510  0.96720  Biso   1.000  H
  C194     1.0000 0.63380  0.02170  0.97460  Biso   1.000  C
  C195     1.0000 0.64880  0.09950  0.98840  Biso   1.000  C
  H107     1.0000 0.69990  0.14640  0.98440  Biso   1.000  H
  C196     1.0000 0.58410  0.10400  0.00840  Biso   1.000  C
  H108     1.0000 0.59350  0.15220  0.02150  Biso   1.000  H
  C197     1.0000 0.50770  0.03630  0.00800  Biso   1.000  C
  C198     1.0000 0.70920  0.02370  0.95460  Biso   1.000  C
  O71      1.0000 0.71210  0.96290  0.95010  Biso   1.000  O
  O72      1.0000 0.76930  0.09390  0.94760  Biso   1.000  O
  Zn19     1.0000 0.82621  0.01438  0.58019  Biso   1.000  Zn
  N55      1.0000 0.94340  0.10470  0.56810  Biso   1.000  N
  N56      1.0000 0.00810  0.09820  0.58130  Biso   1.000  N
  N57      1.0000 0.07780  0.16400  0.56720  Biso   1.000  N
  C199     1.0000 0.05400  0.21170  0.54650  Biso   1.000  C
  H109     1.0000 0.08950  0.26330  0.53530  Biso   1.000  H
  C200     1.0000 0.97310  0.17390  0.54470  Biso   1.000  C
  H110     1.0000 0.94190  0.19160  0.53000  Biso   1.000  H
  C201     1.0000 0.83170  0.01310  0.71180  Biso   1.000  C
  C202     1.0000 0.77130  0.02390  0.72930  Biso   1.000  C
  H111     1.0000 0.73130  0.03070  0.71240  Biso   1.000  H
  C203     1.0000 0.85120  0.00620  0.66690  Biso   1.000  C
  O73      1.0000 0.91490  0.00300  0.65980  Biso   1.000  O
  O74      1.0000 0.80910  0.01930  0.64040  Biso   1.000  O
  C204     1.0000 0.56040  0.95540  0.52370  Biso   1.000  C
  H112     1.0000 0.55210  0.90450  0.53250  Biso   1.000  H
  C205     1.0000 0.63460  0.02150  0.52540  Biso   1.000  C
  C206     1.0000 0.64940  0.09910  0.51180  Biso   1.000  C
  H113     1.0000 0.70080  0.14580  0.51550  Biso   1.000  H
  C207     1.0000 0.58430  0.10430  0.49240  Biso   1.000  C
  H114     1.0000 0.59370  0.15310  0.48000  Biso   1.000  H
  C208     1.0000 0.50780  0.03660  0.49220  Biso   1.000  C
  C209     1.0000 0.70890  0.02220  0.54510  Biso   1.000  C
  O75      1.0000 0.76990  0.09300  0.55230  Biso   1.000  O
  O76      1.0000 0.71190  0.96130  0.55040  Biso   1.000  O
  Zn20     1.0000 0.81182  0.98557  0.58010  Biso   1.000  Zn
  N58      1.0000 0.92260  0.08620  0.56720  Biso   1.000  N
  N59      1.0000 0.99130  0.08980  0.58110  Biso   1.000  N
  N60      1.0000 0.05630  0.16100  0.56820  Biso   1.000  N
  C210     1.0000 0.02700  0.20140  0.54530  Biso   1.000  C
  H115     1.0000 0.05830  0.25070  0.53100  Biso   1.000  H
  C211     1.0000 0.94610  0.15820  0.54690  Biso   1.000  C
  H116     1.0000 0.91060  0.17440  0.53580  Biso   1.000  H
  C212     1.0000 0.81670  0.98700  0.71190  Biso   1.000  C
  C213     1.0000 0.74510  0.97530  0.72950  Biso   1.000  C
  H117     1.0000 0.69770  0.96760  0.71330  Biso   1.000  H
  C214     1.0000 0.84150  0.99350  0.66680  Biso   1.000  C
  O77      1.0000 0.90740  0.99700  0.65840  Biso   1.000  O
  O78      1.0000 0.78500  0.98000  0.64030  Biso   1.000  O
  C215     1.0000 0.60490  0.04410  0.52390  Biso   1.000  C
  H118     1.0000 0.64760  0.09490  0.53280  Biso   1.000  H
  C216     1.0000 0.61210  0.97830  0.52540  Biso   1.000  C
  C217     1.0000 0.54930  0.90050  0.51160  Biso   1.000  C
  H119     1.0000 0.55350  0.85360  0.51560  Biso   1.000  H
  C218     1.0000 0.48010  0.89600  0.49160  Biso   1.000  C
  H120     1.0000 0.44130  0.84780  0.47850  Biso   1.000  H
  C219     1.0000 0.47140  0.96370  0.49200  Biso   1.000  C
  C220     1.0000 0.68550  0.97630  0.54540  Biso   1.000  C
  O79      1.0000 0.74920  0.03710  0.54990  Biso   1.000  O
  O80      1.0000 0.67540  0.90610  0.55240  Biso   1.000  O
  Zn21     1.0000 0.18817  0.17379  0.58019  Biso   1.000  Zn
  N61      1.0000 0.16130  0.05660  0.56810  Biso   1.000  N
  N62      1.0000 0.09010  0.99190  0.58130  Biso   1.000  N
  N63      1.0000 0.08620  0.92220  0.56720  Biso   1.000  N
  C221     1.0000 0.15770  0.94600  0.54650  Biso   1.000  C
  H121     1.0000 0.17380  0.91050  0.53530  Biso   1.000  H
  C222     1.0000 0.20080  0.02690  0.54470  Biso   1.000  C
  H122     1.0000 0.24970  0.05810  0.53000  Biso   1.000  H
  C223     1.0000 0.18140  0.16830  0.71180  Biso   1.000  C
  C224     1.0000 0.25260  0.22870  0.72930  Biso   1.000  C
  H123     1.0000 0.29940  0.26870  0.71240  Biso   1.000  H
  C225     1.0000 0.15500  0.14880  0.66690  Biso   1.000  C
  O81      1.0000 0.08810  0.08510  0.65980  Biso   1.000  O
  O82      1.0000 0.21020  0.19090  0.64040  Biso   1.000  O
  C226     1.0000 0.39500  0.43960  0.52370  Biso   1.000  C
  H124     1.0000 0.35240  0.44790  0.53250  Biso   1.000  H
  C227     1.0000 0.38690  0.36540  0.52540  Biso   1.000  C
  C228     1.0000 0.44970  0.35060  0.51180  Biso   1.000  C
  H125     1.0000 0.44500  0.29920  0.51550  Biso   1.000  H
  C229     1.0000 0.52000  0.41570  0.49240  Biso   1.000  C
  H126     1.0000 0.55940  0.40630  0.48000  Biso   1.000  H
  C230     1.0000 0.52880  0.49220  0.49220  Biso   1.000  C
  C231     1.0000 0.31330  0.29110  0.54510  Biso   1.000  C
  O83      1.0000 0.32310  0.23010  0.55230  Biso   1.000  O
  O84      1.0000 0.24940  0.28810  0.55040  Biso   1.000  O
  Zn22     1.0000 0.17375  0.18818  0.58010  Biso   1.000  Zn
  N64      1.0000 0.16360  0.07740  0.56720  Biso   1.000  N
  N65      1.0000 0.09850  0.00870  0.58110  Biso   1.000  N
  N66      1.0000 0.10470  0.94370  0.56820  Biso   1.000  N
  C232     1.0000 0.17440  0.97300  0.54530  Biso   1.000  C
  H127     1.0000 0.19240  0.94170  0.53100  Biso   1.000  H
  C233     1.0000 0.21210  0.05390  0.54690  Biso   1.000  C
  H128     1.0000 0.26380  0.08940  0.53580  Biso   1.000  H
  C234     1.0000 0.17030  0.18330  0.71190  Biso   1.000  C
  C235     1.0000 0.23020  0.25490  0.72950  Biso   1.000  C
  H129     1.0000 0.26990  0.30230  0.71330  Biso   1.000  H
  C236     1.0000 0.15200  0.15850  0.66680  Biso   1.000  C
  O85      1.0000 0.08960  0.09260  0.65840  Biso   1.000  O
  O86      1.0000 0.19500  0.21500  0.64030  Biso   1.000  O
  C237     1.0000 0.43920  0.39510  0.52390  Biso   1.000  C
  H130     1.0000 0.44730  0.35240  0.53280  Biso   1.000  H
  C238     1.0000 0.36620  0.38790  0.52540  Biso   1.000  C
  C239     1.0000 0.35120  0.45070  0.51160  Biso   1.000  C
  H131     1.0000 0.30010  0.44650  0.51560  Biso   1.000  H
  C240     1.0000 0.41590  0.51990  0.49160  Biso   1.000  C
  H132     1.0000 0.40650  0.55870  0.47850  Biso   1.000  H
  C241     1.0000 0.49230  0.52860  0.49200  Biso   1.000  C
  C242     1.0000 0.29080  0.31450  0.54540  Biso   1.000  C
  O87      1.0000 0.28790  0.25080  0.54990  Biso   1.000  O
  O88      1.0000 0.23070  0.32460  0.55240  Biso   1.000  O
  Zn23     1.0000 0.98562  0.81183  0.58019  Biso   1.000  Zn
  N67      1.0000 0.89530  0.83870  0.56810  Biso   1.000  N
  N68      1.0000 0.90180  0.90990  0.58130  Biso   1.000  N
  N69      1.0000 0.83600  0.91380  0.56720  Biso   1.000  N
  C243     1.0000 0.78830  0.84230  0.54650  Biso   1.000  C
  H133     1.0000 0.73670  0.82620  0.53530  Biso   1.000  H
  C244     1.0000 0.82610  0.79920  0.54470  Biso   1.000  C
  H134     1.0000 0.80840  0.75030  0.53000  Biso   1.000  H
  C245     1.0000 0.98690  0.81860  0.71180  Biso   1.000  C
  C246     1.0000 0.97610  0.74740  0.72930  Biso   1.000  C
  H135     1.0000 0.96930  0.70060  0.71240  Biso   1.000  H
  C247     1.0000 0.99380  0.84500  0.66690  Biso   1.000  C
  O89      1.0000 0.99700  0.91190  0.65980  Biso   1.000  O
  O90      1.0000 0.98070  0.78980  0.64040  Biso   1.000  O
  C248     1.0000 0.04460  0.60500  0.52370  Biso   1.000  C
  H136     1.0000 0.09550  0.64760  0.53250  Biso   1.000  H
  C249     1.0000 0.97850  0.61310  0.52540  Biso   1.000  C
  C250     1.0000 0.90090  0.55030  0.51180  Biso   1.000  C
  H137     1.0000 0.85420  0.55500  0.51550  Biso   1.000  H
  C251     1.0000 0.89570  0.48000  0.49240  Biso   1.000  C
  H138     1.0000 0.84690  0.44060  0.48000  Biso   1.000  H
  C252     1.0000 0.96340  0.47120  0.49220  Biso   1.000  C
  C253     1.0000 0.97780  0.68670  0.54510  Biso   1.000  C
  O91      1.0000 0.90700  0.67690  0.55230  Biso   1.000  O
  O92      1.0000 0.03870  0.75060  0.55040  Biso   1.000  O
  Zn24     1.0000 0.01443  0.82625  0.58010  Biso   1.000  Zn
  N70      1.0000 0.91380  0.83640  0.56720  Biso   1.000  N
  N71      1.0000 0.91020  0.90150  0.58110  Biso   1.000  N
  N72      1.0000 0.83900  0.89530  0.56820  Biso   1.000  N
  C254     1.0000 0.79860  0.82560  0.54530  Biso   1.000  C
  H139     1.0000 0.74930  0.80760  0.53100  Biso   1.000  H
  C255     1.0000 0.84180  0.78790  0.54690  Biso   1.000  C
  H140     1.0000 0.82560  0.73620  0.53580  Biso   1.000  H
  C256     1.0000 0.01300  0.82970  0.71190  Biso   1.000  C
  C257     1.0000 0.02470  0.76980  0.72950  Biso   1.000  C
  H141     1.0000 0.03240  0.73010  0.71330  Biso   1.000  H
  C258     1.0000 0.00650  0.84800  0.66680  Biso   1.000  C
  O93      1.0000 0.00300  0.91040  0.65840  Biso   1.000  O
  O94      1.0000 0.02000  0.80500  0.64030  Biso   1.000  O
  C259     1.0000 0.95590  0.56080  0.52390  Biso   1.000  C
  H142     1.0000 0.90510  0.55270  0.53280  Biso   1.000  H
  C260     1.0000 0.02170  0.63380  0.52540  Biso   1.000  C
  C261     1.0000 0.09950  0.64880  0.51160  Biso   1.000  C
  H143     1.0000 0.14640  0.69990  0.51560  Biso   1.000  H
  C262     1.0000 0.10400  0.58410  0.49160  Biso   1.000  C
  H144     1.0000 0.15220  0.59350  0.47850  Biso   1.000  H
  C263     1.0000 0.03630  0.50770  0.49200  Biso   1.000  C
  C264     1.0000 0.02370  0.70920  0.54540  Biso   1.000  C
  O95      1.0000 0.96290  0.71210  0.54990  Biso   1.000  O
  O96      1.0000 0.09390  0.76930  0.55240  Biso   1.000  O
  Zn25     1.0000 0.00000  0.00000  0.11972  Biso   1.000  Zn
  Zn26     1.0000 0.00000  0.00000  0.38028  Biso   1.000  Zn
  Zn27     1.0000 0.00000  0.00000  0.88028  Biso   1.000  Zn
  Zn28     1.0000 0.00000  0.00000  0.61972  Biso   1.000  Zn
  S1       1.0000 0.00000  0.11110  0.25000  Biso   1.000  S
  S2       1.0000 0.00000  0.11340  0.25000  Biso   1.000  S
  S3       1.0000 0.88890  0.88890  0.25000  Biso   1.000  S
  S4       1.0000 0.88660  0.88660  0.25000  Biso   1.000  S
  S5       1.0000 0.11110  0.00000  0.25000  Biso   1.000  S
  S6       1.0000 0.11340  0.00000  0.25000  Biso   1.000  S
  S7       1.0000 0.00000  0.88890  0.75000  Biso   1.000  S
  S8       1.0000 0.00000  0.88660  0.75000  Biso   1.000  S
  S9       1.0000 0.11110  0.11110  0.75000  Biso   1.000  S
  S10      1.0000 0.11340  0.11340  0.75000  Biso   1.000  S
  S11      1.0000 0.88890  0.00000  0.75000  Biso   1.000  S
  S12      1.0000 0.88660  0.00000  0.75000  Biso   1.000  S
