data_image0
_cell_length_a       13.052
_cell_length_b       17.251
_cell_length_c       25.21
_cell_angle_alpha    90
_cell_angle_beta     90
_cell_angle_gamma    90

_symmetry_space_group_name_H-M    "P 1"
_symmetry_int_tables_number       1

loop_
  _symmetry_equiv_pos_as_xyz
  'x, y, z'

loop_
  _atom_site_label
  _atom_site_occupancy
  _atom_site_fract_x
  _atom_site_fract_y
  _atom_site_fract_z
  _atom_site_thermal_displace_type
  _atom_site_B_iso_or_equiv
  _atom_site_type_symbol
  N1       1.0000 0.51628  0.12758  0.06845  Biso   1.000  N
  N2       1.0000 0.41876  0.16428  0.00352  Biso   1.000  N
  C1       1.0000 0.44073  0.07559  0.05873  Biso   1.000  C
  H1       1.0000 0.43280  0.02900  0.07840  Biso   1.000  H
  N3       1.0000 0.37958  0.09534  0.01967  Biso   1.000  N
  C2       1.0000 0.49994  0.18247  0.03263  Biso   1.000  C
  H2       1.0000 0.54020  0.22790  0.02850  Biso   1.000  H
  C3       1.0000 0.36933  0.21033  0.96184  Biso   1.000  C
  H3       1.0000 0.33280  0.17520  0.93720  Biso   1.000  H
  H4       1.0000 0.42240  0.23830  0.94130  Biso   1.000  H
  C4       1.0000 0.29370  0.26859  0.98491  Biso   1.000  C
  H5       1.0000 0.33100  0.30400  0.00910  Biso   1.000  H
  H6       1.0000 0.26510  0.30020  0.95570  Biso   1.000  H
  C5       1.0000 0.25680  0.22910  0.97580  Biso   1.000  C
  H7       1.0000 0.22680  0.25980  0.94650  Biso   1.000  H
  H8       1.0000 0.21810  0.17990  0.97810  Biso   1.000  H
  N4       1.0000 0.51628  0.62758  0.56845  Biso   1.000  N
  N5       1.0000 0.41876  0.66428  0.50352  Biso   1.000  N
  C6       1.0000 0.44073  0.57559  0.55873  Biso   1.000  C
  H9       1.0000 0.43280  0.52900  0.57840  Biso   1.000  H
  N6       1.0000 0.37958  0.59534  0.51967  Biso   1.000  N
  C7       1.0000 0.49994  0.68247  0.53263  Biso   1.000  C
  H10      1.0000 0.54020  0.72790  0.52850  Biso   1.000  H
  C8       1.0000 0.36933  0.71033  0.46184  Biso   1.000  C
  H11      1.0000 0.33280  0.67520  0.43720  Biso   1.000  H
  H12      1.0000 0.42240  0.73830  0.44130  Biso   1.000  H
  C9       1.0000 0.29370  0.76859  0.48491  Biso   1.000  C
  H13      1.0000 0.33100  0.80400  0.50910  Biso   1.000  H
  H14      1.0000 0.26510  0.80020  0.45570  Biso   1.000  H
  C10      1.0000 0.25680  0.72910  0.47580  Biso   1.000  C
  H15      1.0000 0.22680  0.75980  0.44650  Biso   1.000  H
  H16      1.0000 0.21810  0.67990  0.47810  Biso   1.000  H
  N7       1.0000 0.01628  0.12758  0.56845  Biso   1.000  N
  N8       1.0000 0.91876  0.16428  0.50352  Biso   1.000  N
  C11      1.0000 0.94073  0.07559  0.55873  Biso   1.000  C
  H17      1.0000 0.93280  0.02900  0.57840  Biso   1.000  H
  N9       1.0000 0.87958  0.09534  0.51967  Biso   1.000  N
  C12      1.0000 0.99994  0.18247  0.53263  Biso   1.000  C
  H18      1.0000 0.04020  0.22790  0.52850  Biso   1.000  H
  C13      1.0000 0.86933  0.21033  0.46184  Biso   1.000  C
  H19      1.0000 0.83280  0.17520  0.43720  Biso   1.000  H
  H20      1.0000 0.92240  0.23830  0.44130  Biso   1.000  H
  C14      1.0000 0.79370  0.26859  0.48491  Biso   1.000  C
  H21      1.0000 0.83100  0.30400  0.50910  Biso   1.000  H
  H22      1.0000 0.76510  0.30020  0.45570  Biso   1.000  H
  C15      1.0000 0.75680  0.22910  0.47580  Biso   1.000  C
  H23      1.0000 0.72680  0.25980  0.44650  Biso   1.000  H
  H24      1.0000 0.71810  0.17990  0.47810  Biso   1.000  H
  N10      1.0000 0.01628  0.62758  0.06845  Biso   1.000  N
  N11      1.0000 0.91876  0.66428  0.00352  Biso   1.000  N
  C16      1.0000 0.94073  0.57559  0.05873  Biso   1.000  C
  H25      1.0000 0.93280  0.52900  0.07840  Biso   1.000  H
  N12      1.0000 0.87958  0.59534  0.01967  Biso   1.000  N
  C17      1.0000 0.99994  0.68247  0.03263  Biso   1.000  C
  H26      1.0000 0.04020  0.72790  0.02850  Biso   1.000  H
  C18      1.0000 0.86933  0.71033  0.96184  Biso   1.000  C
  H27      1.0000 0.83280  0.67520  0.93720  Biso   1.000  H
  H28      1.0000 0.92240  0.73830  0.94130  Biso   1.000  H
  C19      1.0000 0.79370  0.76859  0.98491  Biso   1.000  C
  H29      1.0000 0.83100  0.80400  0.00910  Biso   1.000  H
  H30      1.0000 0.76510  0.80020  0.95570  Biso   1.000  H
  C20      1.0000 0.75680  0.72910  0.97580  Biso   1.000  C
  H31      1.0000 0.72680  0.75980  0.94650  Biso   1.000  H
  H32      1.0000 0.71810  0.67990  0.97810  Biso   1.000  H
  N13      1.0000 0.23372  0.62242  0.06845  Biso   1.000  N
  N14      1.0000 0.33124  0.58572  0.00352  Biso   1.000  N
  C21      1.0000 0.30927  0.67441  0.05873  Biso   1.000  C
  H33      1.0000 0.31720  0.72100  0.07840  Biso   1.000  H
  N15      1.0000 0.37042  0.65466  0.01967  Biso   1.000  N
  C22      1.0000 0.25006  0.56753  0.03263  Biso   1.000  C
  H34      1.0000 0.20980  0.52210  0.02850  Biso   1.000  H
  C23      1.0000 0.38067  0.53967  0.96184  Biso   1.000  C
  H35      1.0000 0.41720  0.57480  0.93720  Biso   1.000  H
  H36      1.0000 0.32760  0.51170  0.94130  Biso   1.000  H
  C24      1.0000 0.45630  0.48141  0.98491  Biso   1.000  C
  H37      1.0000 0.41900  0.44600  0.00910  Biso   1.000  H
  H38      1.0000 0.48490  0.44980  0.95570  Biso   1.000  H
  C25      1.0000 0.49320  0.52090  0.97580  Biso   1.000  C
  H39      1.0000 0.52320  0.49020  0.94650  Biso   1.000  H
  H40      1.0000 0.53190  0.57010  0.97810  Biso   1.000  H
  N16      1.0000 0.23372  0.12242  0.56845  Biso   1.000  N
  N17      1.0000 0.33124  0.08572  0.50352  Biso   1.000  N
  C26      1.0000 0.30927  0.17441  0.55873  Biso   1.000  C
  H41      1.0000 0.31720  0.22100  0.57840  Biso   1.000  H
  N18      1.0000 0.37042  0.15466  0.51967  Biso   1.000  N
  C27      1.0000 0.25006  0.06753  0.53263  Biso   1.000  C
  H42      1.0000 0.20980  0.02210  0.52850  Biso   1.000  H
  C28      1.0000 0.38067  0.03967  0.46184  Biso   1.000  C
  H43      1.0000 0.41720  0.07480  0.43720  Biso   1.000  H
  H44      1.0000 0.32760  0.01170  0.44130  Biso   1.000  H
  C29      1.0000 0.45630  0.98141  0.48491  Biso   1.000  C
  H45      1.0000 0.41900  0.94600  0.50910  Biso   1.000  H
  H46      1.0000 0.48490  0.94980  0.45570  Biso   1.000  H
  C30      1.0000 0.49320  0.02090  0.47580  Biso   1.000  C
  H47      1.0000 0.52320  0.99020  0.44650  Biso   1.000  H
  H48      1.0000 0.53190  0.07010  0.47810  Biso   1.000  H
  N19      1.0000 0.73372  0.62242  0.56845  Biso   1.000  N
  N20      1.0000 0.83124  0.58572  0.50352  Biso   1.000  N
  C31      1.0000 0.80927  0.67441  0.55873  Biso   1.000  C
  H49      1.0000 0.81720  0.72100  0.57840  Biso   1.000  H
  N21      1.0000 0.87042  0.65466  0.51967  Biso   1.000  N
  C32      1.0000 0.75006  0.56753  0.53263  Biso   1.000  C
  H50      1.0000 0.70980  0.52210  0.52850  Biso   1.000  H
  C33      1.0000 0.88067  0.53967  0.46184  Biso   1.000  C
  H51      1.0000 0.91720  0.57480  0.43720  Biso   1.000  H
  H52      1.0000 0.82760  0.51170  0.44130  Biso   1.000  H
  C34      1.0000 0.95630  0.48141  0.48491  Biso   1.000  C
  H53      1.0000 0.91900  0.44600  0.50910  Biso   1.000  H
  H54      1.0000 0.98490  0.44980  0.45570  Biso   1.000  H
  C35      1.0000 0.99320  0.52090  0.47580  Biso   1.000  C
  H55      1.0000 0.02320  0.49020  0.44650  Biso   1.000  H
  H56      1.0000 0.03190  0.57010  0.47810  Biso   1.000  H
  N22      1.0000 0.73372  0.12242  0.06845  Biso   1.000  N
  N23      1.0000 0.83124  0.08572  0.00352  Biso   1.000  N
  C36      1.0000 0.80927  0.17441  0.05873  Biso   1.000  C
  H57      1.0000 0.81720  0.22100  0.07840  Biso   1.000  H
  N24      1.0000 0.87042  0.15466  0.01967  Biso   1.000  N
  C37      1.0000 0.75006  0.06753  0.03263  Biso   1.000  C
  H58      1.0000 0.70980  0.02210  0.02850  Biso   1.000  H
  C38      1.0000 0.88067  0.03967  0.96184  Biso   1.000  C
  H59      1.0000 0.91720  0.07480  0.93720  Biso   1.000  H
  H60      1.0000 0.82760  0.01170  0.94130  Biso   1.000  H
  C39      1.0000 0.95630  0.98141  0.98491  Biso   1.000  C
  H61      1.0000 0.91900  0.94600  0.00910  Biso   1.000  H
  H62      1.0000 0.98490  0.94980  0.95570  Biso   1.000  H
  C40      1.0000 0.99320  0.02090  0.97580  Biso   1.000  C
  H63      1.0000 0.02320  0.99020  0.94650  Biso   1.000  H
  H64      1.0000 0.03190  0.07010  0.97810  Biso   1.000  H
  N25      1.0000 0.23372  0.12758  0.68155  Biso   1.000  N
  N26      1.0000 0.33124  0.16428  0.74648  Biso   1.000  N
  C41      1.0000 0.30927  0.07559  0.69127  Biso   1.000  C
  H65      1.0000 0.31720  0.02900  0.67160  Biso   1.000  H
  N27      1.0000 0.37042  0.09534  0.73033  Biso   1.000  N
  C42      1.0000 0.25006  0.18247  0.71737  Biso   1.000  C
  H66      1.0000 0.20980  0.22790  0.72150  Biso   1.000  H
  C43      1.0000 0.38067  0.21033  0.78816  Biso   1.000  C
  H67      1.0000 0.41720  0.17520  0.81280  Biso   1.000  H
  H68      1.0000 0.32760  0.23830  0.80870  Biso   1.000  H
  C44      1.0000 0.45630  0.26859  0.76509  Biso   1.000  C
  H69      1.0000 0.41900  0.30400  0.74090  Biso   1.000  H
  H70      1.0000 0.48490  0.30020  0.79430  Biso   1.000  H
  C45      1.0000 0.49320  0.22910  0.77420  Biso   1.000  C
  H71      1.0000 0.52320  0.25980  0.80350  Biso   1.000  H
  H72      1.0000 0.53190  0.17990  0.77190  Biso   1.000  H
  N28      1.0000 0.23372  0.62758  0.18155  Biso   1.000  N
  N29      1.0000 0.33124  0.66428  0.24648  Biso   1.000  N
  C46      1.0000 0.30927  0.57559  0.19127  Biso   1.000  C
  H73      1.0000 0.31720  0.52900  0.17160  Biso   1.000  H
  N30      1.0000 0.37042  0.59534  0.23033  Biso   1.000  N
  C47      1.0000 0.25006  0.68247  0.21737  Biso   1.000  C
  H74      1.0000 0.20980  0.72790  0.22150  Biso   1.000  H
  C48      1.0000 0.38067  0.71033  0.28816  Biso   1.000  C
  H75      1.0000 0.41720  0.67520  0.31280  Biso   1.000  H
  H76      1.0000 0.32760  0.73830  0.30870  Biso   1.000  H
  C49      1.0000 0.45630  0.76859  0.26509  Biso   1.000  C
  H77      1.0000 0.41900  0.80400  0.24090  Biso   1.000  H
  H78      1.0000 0.48490  0.80020  0.29430  Biso   1.000  H
  C50      1.0000 0.49320  0.72910  0.27420  Biso   1.000  C
  H79      1.0000 0.52320  0.75980  0.30350  Biso   1.000  H
  H80      1.0000 0.53190  0.67990  0.27190  Biso   1.000  H
  N31      1.0000 0.73372  0.12758  0.18155  Biso   1.000  N
  N32      1.0000 0.83124  0.16428  0.24648  Biso   1.000  N
  C51      1.0000 0.80927  0.07559  0.19127  Biso   1.000  C
  H81      1.0000 0.81720  0.02900  0.17160  Biso   1.000  H
  N33      1.0000 0.87042  0.09534  0.23033  Biso   1.000  N
  C52      1.0000 0.75006  0.18247  0.21737  Biso   1.000  C
  H82      1.0000 0.70980  0.22790  0.22150  Biso   1.000  H
  C53      1.0000 0.88067  0.21033  0.28816  Biso   1.000  C
  H83      1.0000 0.91720  0.17520  0.31280  Biso   1.000  H
  H84      1.0000 0.82760  0.23830  0.30870  Biso   1.000  H
  C54      1.0000 0.95630  0.26859  0.26509  Biso   1.000  C
  H85      1.0000 0.91900  0.30400  0.24090  Biso   1.000  H
  H86      1.0000 0.98490  0.30020  0.29430  Biso   1.000  H
  C55      1.0000 0.99320  0.22910  0.27420  Biso   1.000  C
  H87      1.0000 0.02320  0.25980  0.30350  Biso   1.000  H
  H88      1.0000 0.03190  0.17990  0.27190  Biso   1.000  H
  N34      1.0000 0.73372  0.62758  0.68155  Biso   1.000  N
  N35      1.0000 0.83124  0.66428  0.74648  Biso   1.000  N
  C56      1.0000 0.80927  0.57559  0.69127  Biso   1.000  C
  H89      1.0000 0.81720  0.52900  0.67160  Biso   1.000  H
  N36      1.0000 0.87042  0.59534  0.73033  Biso   1.000  N
  C57      1.0000 0.75006  0.68247  0.71737  Biso   1.000  C
  H90      1.0000 0.70980  0.72790  0.72150  Biso   1.000  H
  C58      1.0000 0.88067  0.71033  0.78816  Biso   1.000  C
  H91      1.0000 0.91720  0.67520  0.81280  Biso   1.000  H
  H92      1.0000 0.82760  0.73830  0.80870  Biso   1.000  H
  C59      1.0000 0.95630  0.76859  0.76509  Biso   1.000  C
  H93      1.0000 0.91900  0.80400  0.74090  Biso   1.000  H
  H94      1.0000 0.98490  0.80020  0.79430  Biso   1.000  H
  C60      1.0000 0.99320  0.72910  0.77420  Biso   1.000  C
  H95      1.0000 0.02320  0.75980  0.80350  Biso   1.000  H
  H96      1.0000 0.03190  0.67990  0.77190  Biso   1.000  H
  N37      1.0000 0.51628  0.62242  0.68155  Biso   1.000  N
  N38      1.0000 0.41876  0.58572  0.74648  Biso   1.000  N
  C61      1.0000 0.44073  0.67441  0.69127  Biso   1.000  C
  H97      1.0000 0.43280  0.72100  0.67160  Biso   1.000  H
  N39      1.0000 0.37958  0.65466  0.73033  Biso   1.000  N
  C62      1.0000 0.49994  0.56753  0.71737  Biso   1.000  C
  H98      1.0000 0.54020  0.52210  0.72150  Biso   1.000  H
  C63      1.0000 0.36933  0.53967  0.78816  Biso   1.000  C
  H99      1.0000 0.33280  0.57480  0.81280  Biso   1.000  H
  H100     1.0000 0.42240  0.51170  0.80870  Biso   1.000  H
  C64      1.0000 0.29370  0.48141  0.76509  Biso   1.000  C
  H101     1.0000 0.33100  0.44600  0.74090  Biso   1.000  H
  H102     1.0000 0.26510  0.44980  0.79430  Biso   1.000  H
  C65      1.0000 0.25680  0.52090  0.77420  Biso   1.000  C
  H103     1.0000 0.22680  0.49020  0.80350  Biso   1.000  H
  H104     1.0000 0.21810  0.57010  0.77190  Biso   1.000  H
  N40      1.0000 0.51628  0.12242  0.18155  Biso   1.000  N
  N41      1.0000 0.41876  0.08572  0.24648  Biso   1.000  N
  C66      1.0000 0.44073  0.17441  0.19127  Biso   1.000  C
  H105     1.0000 0.43280  0.22100  0.17160  Biso   1.000  H
  N42      1.0000 0.37958  0.15466  0.23033  Biso   1.000  N
  C67      1.0000 0.49994  0.06753  0.21737  Biso   1.000  C
  H106     1.0000 0.54020  0.02210  0.22150  Biso   1.000  H
  C68      1.0000 0.36933  0.03967  0.28816  Biso   1.000  C
  H107     1.0000 0.33280  0.07480  0.31280  Biso   1.000  H
  H108     1.0000 0.42240  0.01170  0.30870  Biso   1.000  H
  C69      1.0000 0.29370  0.98141  0.26509  Biso   1.000  C
  H109     1.0000 0.33100  0.94600  0.24090  Biso   1.000  H
  H110     1.0000 0.26510  0.94980  0.29430  Biso   1.000  H
  C70      1.0000 0.25680  0.02090  0.27420  Biso   1.000  C
  H111     1.0000 0.22680  0.99020  0.30350  Biso   1.000  H
  H112     1.0000 0.21810  0.07010  0.27190  Biso   1.000  H
  N43      1.0000 0.01628  0.62242  0.18155  Biso   1.000  N
  N44      1.0000 0.91876  0.58572  0.24648  Biso   1.000  N
  C71      1.0000 0.94073  0.67441  0.19127  Biso   1.000  C
  H113     1.0000 0.93280  0.72100  0.17160  Biso   1.000  H
  N45      1.0000 0.87958  0.65466  0.23033  Biso   1.000  N
  C72      1.0000 0.99994  0.56753  0.21737  Biso   1.000  C
  H114     1.0000 0.04020  0.52210  0.22150  Biso   1.000  H
  C73      1.0000 0.86933  0.53967  0.28816  Biso   1.000  C
  H115     1.0000 0.83280  0.57480  0.31280  Biso   1.000  H
  H116     1.0000 0.92240  0.51170  0.30870  Biso   1.000  H
  C74      1.0000 0.79370  0.48141  0.26509  Biso   1.000  C
  H117     1.0000 0.83100  0.44600  0.24090  Biso   1.000  H
  H118     1.0000 0.76510  0.44980  0.29430  Biso   1.000  H
  C75      1.0000 0.75680  0.52090  0.27420  Biso   1.000  C
  H119     1.0000 0.72680  0.49020  0.30350  Biso   1.000  H
  H120     1.0000 0.71810  0.57010  0.27190  Biso   1.000  H
  N46      1.0000 0.01628  0.12242  0.68155  Biso   1.000  N
  N47      1.0000 0.91876  0.08572  0.74648  Biso   1.000  N
  C76      1.0000 0.94073  0.17441  0.69127  Biso   1.000  C
  H121     1.0000 0.93280  0.22100  0.67160  Biso   1.000  H
  N48      1.0000 0.87958  0.15466  0.73033  Biso   1.000  N
  C77      1.0000 0.99994  0.06753  0.71737  Biso   1.000  C
  H122     1.0000 0.04020  0.02210  0.72150  Biso   1.000  H
  C78      1.0000 0.86933  0.03967  0.78816  Biso   1.000  C
  H123     1.0000 0.83280  0.07480  0.81280  Biso   1.000  H
  H124     1.0000 0.92240  0.01170  0.80870  Biso   1.000  H
  C79      1.0000 0.79370  0.98141  0.76509  Biso   1.000  C
  H125     1.0000 0.83100  0.94600  0.74090  Biso   1.000  H
  H126     1.0000 0.76510  0.94980  0.79430  Biso   1.000  H
  C80      1.0000 0.75680  0.02090  0.77420  Biso   1.000  C
  H127     1.0000 0.72680  0.99020  0.80350  Biso   1.000  H
  H128     1.0000 0.71810  0.07010  0.77190  Biso   1.000  H
  N49      1.0000 0.48372  0.87242  0.93155  Biso   1.000  N
  N50      1.0000 0.58124  0.83572  0.99648  Biso   1.000  N
  C81      1.0000 0.55927  0.92441  0.94127  Biso   1.000  C
  H129     1.0000 0.56720  0.97100  0.92160  Biso   1.000  H
  N51      1.0000 0.62042  0.90466  0.98033  Biso   1.000  N
  C82      1.0000 0.50006  0.81753  0.96737  Biso   1.000  C
  H130     1.0000 0.45980  0.77210  0.97150  Biso   1.000  H
  C83      1.0000 0.63067  0.78967  0.03816  Biso   1.000  C
  H131     1.0000 0.66720  0.82480  0.06280  Biso   1.000  H
  H132     1.0000 0.57760  0.76170  0.05870  Biso   1.000  H
  C84      1.0000 0.70630  0.73141  0.01509  Biso   1.000  C
  H133     1.0000 0.66900  0.69600  0.99090  Biso   1.000  H
  H134     1.0000 0.73490  0.69980  0.04430  Biso   1.000  H
  C85      1.0000 0.74320  0.77090  0.02420  Biso   1.000  C
  H135     1.0000 0.77320  0.74020  0.05350  Biso   1.000  H
  H136     1.0000 0.78190  0.82010  0.02190  Biso   1.000  H
  N52      1.0000 0.48372  0.37242  0.43155  Biso   1.000  N
  N53      1.0000 0.58124  0.33572  0.49648  Biso   1.000  N
  C86      1.0000 0.55927  0.42441  0.44127  Biso   1.000  C
  H137     1.0000 0.56720  0.47100  0.42160  Biso   1.000  H
  N54      1.0000 0.62042  0.40466  0.48033  Biso   1.000  N
  C87      1.0000 0.50006  0.31753  0.46737  Biso   1.000  C
  H138     1.0000 0.45980  0.27210  0.47150  Biso   1.000  H
  C88      1.0000 0.63067  0.28967  0.53816  Biso   1.000  C
  H139     1.0000 0.66720  0.32480  0.56280  Biso   1.000  H
  H140     1.0000 0.57760  0.26170  0.55870  Biso   1.000  H
  C89      1.0000 0.70630  0.23141  0.51509  Biso   1.000  C
  H141     1.0000 0.66900  0.19600  0.49090  Biso   1.000  H
  H142     1.0000 0.73490  0.19980  0.54430  Biso   1.000  H
  C90      1.0000 0.74320  0.27090  0.52420  Biso   1.000  C
  H143     1.0000 0.77320  0.24020  0.55350  Biso   1.000  H
  H144     1.0000 0.78190  0.32010  0.52190  Biso   1.000  H
  N55      1.0000 0.98372  0.87242  0.43155  Biso   1.000  N
  N56      1.0000 0.08124  0.83572  0.49648  Biso   1.000  N
  C91      1.0000 0.05927  0.92441  0.44127  Biso   1.000  C
  H145     1.0000 0.06720  0.97100  0.42160  Biso   1.000  H
  N57      1.0000 0.12042  0.90466  0.48033  Biso   1.000  N
  C92      1.0000 0.00006  0.81753  0.46737  Biso   1.000  C
  H146     1.0000 0.95980  0.77210  0.47150  Biso   1.000  H
  C93      1.0000 0.13067  0.78967  0.53816  Biso   1.000  C
  H147     1.0000 0.16720  0.82480  0.56280  Biso   1.000  H
  H148     1.0000 0.07760  0.76170  0.55870  Biso   1.000  H
  C94      1.0000 0.20630  0.73141  0.51509  Biso   1.000  C
  H149     1.0000 0.16900  0.69600  0.49090  Biso   1.000  H
  H150     1.0000 0.23490  0.69980  0.54430  Biso   1.000  H
  C95      1.0000 0.24320  0.77090  0.52420  Biso   1.000  C
  H151     1.0000 0.27320  0.74020  0.55350  Biso   1.000  H
  H152     1.0000 0.28190  0.82010  0.52190  Biso   1.000  H
  N58      1.0000 0.98372  0.37242  0.93155  Biso   1.000  N
  N59      1.0000 0.08124  0.33572  0.99648  Biso   1.000  N
  C96      1.0000 0.05927  0.42441  0.94127  Biso   1.000  C
  H153     1.0000 0.06720  0.47100  0.92160  Biso   1.000  H
  N60      1.0000 0.12042  0.40466  0.98033  Biso   1.000  N
  C97      1.0000 0.00006  0.31753  0.96737  Biso   1.000  C
  H154     1.0000 0.95980  0.27210  0.97150  Biso   1.000  H
  C98      1.0000 0.13067  0.28967  0.03816  Biso   1.000  C
  H155     1.0000 0.16720  0.32480  0.06280  Biso   1.000  H
  H156     1.0000 0.07760  0.26170  0.05870  Biso   1.000  H
  C99      1.0000 0.20630  0.23141  0.01509  Biso   1.000  C
  H157     1.0000 0.16900  0.19600  0.99090  Biso   1.000  H
  H158     1.0000 0.23490  0.19980  0.04430  Biso   1.000  H
  C100     1.0000 0.24320  0.27090  0.02420  Biso   1.000  C
  H159     1.0000 0.27320  0.24020  0.05350  Biso   1.000  H
  H160     1.0000 0.28190  0.32010  0.02190  Biso   1.000  H
  N61      1.0000 0.76628  0.37758  0.93155  Biso   1.000  N
  N62      1.0000 0.66876  0.41428  0.99648  Biso   1.000  N
  C101     1.0000 0.69073  0.32559  0.94127  Biso   1.000  C
  H161     1.0000 0.68280  0.27900  0.92160  Biso   1.000  H
  N63      1.0000 0.62958  0.34534  0.98033  Biso   1.000  N
  C102     1.0000 0.74994  0.43247  0.96737  Biso   1.000  C
  H162     1.0000 0.79020  0.47790  0.97150  Biso   1.000  H
  C103     1.0000 0.61933  0.46033  0.03816  Biso   1.000  C
  H163     1.0000 0.58280  0.42520  0.06280  Biso   1.000  H
  H164     1.0000 0.67240  0.48830  0.05870  Biso   1.000  H
  C104     1.0000 0.54370  0.51859  0.01509  Biso   1.000  C
  H165     1.0000 0.58100  0.55400  0.99090  Biso   1.000  H
  H166     1.0000 0.51510  0.55020  0.04430  Biso   1.000  H
  C105     1.0000 0.50680  0.47910  0.02420  Biso   1.000  C
  H167     1.0000 0.47680  0.50980  0.05350  Biso   1.000  H
  H168     1.0000 0.46810  0.42990  0.02190  Biso   1.000  H
  N64      1.0000 0.76628  0.87758  0.43155  Biso   1.000  N
  N65      1.0000 0.66876  0.91428  0.49648  Biso   1.000  N
  C106     1.0000 0.69073  0.82559  0.44127  Biso   1.000  C
  H169     1.0000 0.68280  0.77900  0.42160  Biso   1.000  H
  N66      1.0000 0.62958  0.84534  0.48033  Biso   1.000  N
  C107     1.0000 0.74994  0.93247  0.46737  Biso   1.000  C
  H170     1.0000 0.79020  0.97790  0.47150  Biso   1.000  H
  C108     1.0000 0.61933  0.96033  0.53816  Biso   1.000  C
  H171     1.0000 0.58280  0.92520  0.56280  Biso   1.000  H
  H172     1.0000 0.67240  0.98830  0.55870  Biso   1.000  H
  C109     1.0000 0.54370  0.01859  0.51509  Biso   1.000  C
  H173     1.0000 0.58100  0.05400  0.49090  Biso   1.000  H
  H174     1.0000 0.51510  0.05020  0.54430  Biso   1.000  H
  C110     1.0000 0.50680  0.97910  0.52420  Biso   1.000  C
  H175     1.0000 0.47680  0.00980  0.55350  Biso   1.000  H
  H176     1.0000 0.46810  0.92990  0.52190  Biso   1.000  H
  N67      1.0000 0.26628  0.37758  0.43155  Biso   1.000  N
  N68      1.0000 0.16876  0.41428  0.49648  Biso   1.000  N
  C111     1.0000 0.19073  0.32559  0.44127  Biso   1.000  C
  H177     1.0000 0.18280  0.27900  0.42160  Biso   1.000  H
  N69      1.0000 0.12958  0.34534  0.48033  Biso   1.000  N
  C112     1.0000 0.24994  0.43247  0.46737  Biso   1.000  C
  H178     1.0000 0.29020  0.47790  0.47150  Biso   1.000  H
  C113     1.0000 0.11933  0.46033  0.53816  Biso   1.000  C
  H179     1.0000 0.08280  0.42520  0.56280  Biso   1.000  H
  H180     1.0000 0.17240  0.48830  0.55870  Biso   1.000  H
  C114     1.0000 0.04370  0.51859  0.51509  Biso   1.000  C
  H181     1.0000 0.08100  0.55400  0.49090  Biso   1.000  H
  H182     1.0000 0.01510  0.55020  0.54430  Biso   1.000  H
  C115     1.0000 0.00680  0.47910  0.52420  Biso   1.000  C
  H183     1.0000 0.97680  0.50980  0.55350  Biso   1.000  H
  H184     1.0000 0.96810  0.42990  0.52190  Biso   1.000  H
  N70      1.0000 0.26628  0.87758  0.93155  Biso   1.000  N
  N71      1.0000 0.16876  0.91428  0.99648  Biso   1.000  N
  C116     1.0000 0.19073  0.82559  0.94127  Biso   1.000  C
  H185     1.0000 0.18280  0.77900  0.92160  Biso   1.000  H
  N72      1.0000 0.12958  0.84534  0.98033  Biso   1.000  N
  C117     1.0000 0.24994  0.93247  0.96737  Biso   1.000  C
  H186     1.0000 0.29020  0.97790  0.97150  Biso   1.000  H
  C118     1.0000 0.11933  0.96033  0.03816  Biso   1.000  C
  H187     1.0000 0.08280  0.92520  0.06280  Biso   1.000  H
  H188     1.0000 0.17240  0.98830  0.05870  Biso   1.000  H
  C119     1.0000 0.04370  0.01859  0.01509  Biso   1.000  C
  H189     1.0000 0.08100  0.05400  0.99090  Biso   1.000  H
  H190     1.0000 0.01510  0.05020  0.04430  Biso   1.000  H
  C120     1.0000 0.00680  0.97910  0.02420  Biso   1.000  C
  H191     1.0000 0.97680  0.00980  0.05350  Biso   1.000  H
  H192     1.0000 0.96810  0.92990  0.02190  Biso   1.000  H
  N73      1.0000 0.76628  0.87242  0.31845  Biso   1.000  N
  N74      1.0000 0.66876  0.83572  0.25352  Biso   1.000  N
  C121     1.0000 0.69073  0.92441  0.30873  Biso   1.000  C
  H193     1.0000 0.68280  0.97100  0.32840  Biso   1.000  H
  N75      1.0000 0.62958  0.90466  0.26967  Biso   1.000  N
  C122     1.0000 0.74994  0.81753  0.28263  Biso   1.000  C
  H194     1.0000 0.79020  0.77210  0.27850  Biso   1.000  H
  C123     1.0000 0.61933  0.78967  0.21184  Biso   1.000  C
  H195     1.0000 0.58280  0.82480  0.18720  Biso   1.000  H
  H196     1.0000 0.67240  0.76170  0.19130  Biso   1.000  H
  C124     1.0000 0.54370  0.73141  0.23491  Biso   1.000  C
  H197     1.0000 0.58100  0.69600  0.25910  Biso   1.000  H
  H198     1.0000 0.51510  0.69980  0.20570  Biso   1.000  H
  C125     1.0000 0.50680  0.77090  0.22580  Biso   1.000  C
  H199     1.0000 0.47680  0.74020  0.19650  Biso   1.000  H
  H200     1.0000 0.46810  0.82010  0.22810  Biso   1.000  H
  N76      1.0000 0.76628  0.37242  0.81845  Biso   1.000  N
  N77      1.0000 0.66876  0.33572  0.75352  Biso   1.000  N
  C126     1.0000 0.69073  0.42441  0.80873  Biso   1.000  C
  H201     1.0000 0.68280  0.47100  0.82840  Biso   1.000  H
  N78      1.0000 0.62958  0.40466  0.76967  Biso   1.000  N
  C127     1.0000 0.74994  0.31753  0.78263  Biso   1.000  C
  H202     1.0000 0.79020  0.27210  0.77850  Biso   1.000  H
  C128     1.0000 0.61933  0.28967  0.71184  Biso   1.000  C
  H203     1.0000 0.58280  0.32480  0.68720  Biso   1.000  H
  H204     1.0000 0.67240  0.26170  0.69130  Biso   1.000  H
  C129     1.0000 0.54370  0.23141  0.73491  Biso   1.000  C
  H205     1.0000 0.58100  0.19600  0.75910  Biso   1.000  H
  H206     1.0000 0.51510  0.19980  0.70570  Biso   1.000  H
  C130     1.0000 0.50680  0.27090  0.72580  Biso   1.000  C
  H207     1.0000 0.47680  0.24020  0.69650  Biso   1.000  H
  H208     1.0000 0.46810  0.32010  0.72810  Biso   1.000  H
  N79      1.0000 0.26628  0.87242  0.81845  Biso   1.000  N
  N80      1.0000 0.16876  0.83572  0.75352  Biso   1.000  N
  C131     1.0000 0.19073  0.92441  0.80873  Biso   1.000  C
  H209     1.0000 0.18280  0.97100  0.82840  Biso   1.000  H
  N81      1.0000 0.12958  0.90466  0.76967  Biso   1.000  N
  C132     1.0000 0.24994  0.81753  0.78263  Biso   1.000  C
  H210     1.0000 0.29020  0.77210  0.77850  Biso   1.000  H
  C133     1.0000 0.11933  0.78967  0.71184  Biso   1.000  C
  H211     1.0000 0.08280  0.82480  0.68720  Biso   1.000  H
  H212     1.0000 0.17240  0.76170  0.69130  Biso   1.000  H
  C134     1.0000 0.04370  0.73141  0.73491  Biso   1.000  C
  H213     1.0000 0.08100  0.69600  0.75910  Biso   1.000  H
  H214     1.0000 0.01510  0.69980  0.70570  Biso   1.000  H
  C135     1.0000 0.00680  0.77090  0.72580  Biso   1.000  C
  H215     1.0000 0.97680  0.74020  0.69650  Biso   1.000  H
  H216     1.0000 0.96810  0.82010  0.72810  Biso   1.000  H
  N82      1.0000 0.26628  0.37242  0.31845  Biso   1.000  N
  N83      1.0000 0.16876  0.33572  0.25352  Biso   1.000  N
  C136     1.0000 0.19073  0.42441  0.30873  Biso   1.000  C
  H217     1.0000 0.18280  0.47100  0.32840  Biso   1.000  H
  N84      1.0000 0.12958  0.40466  0.26967  Biso   1.000  N
  C137     1.0000 0.24994  0.31753  0.28263  Biso   1.000  C
  H218     1.0000 0.29020  0.27210  0.27850  Biso   1.000  H
  C138     1.0000 0.11933  0.28967  0.21184  Biso   1.000  C
  H219     1.0000 0.08280  0.32480  0.18720  Biso   1.000  H
  H220     1.0000 0.17240  0.26170  0.19130  Biso   1.000  H
  C139     1.0000 0.04370  0.23141  0.23491  Biso   1.000  C
  H221     1.0000 0.08100  0.19600  0.25910  Biso   1.000  H
  H222     1.0000 0.01510  0.19980  0.20570  Biso   1.000  H
  C140     1.0000 0.00680  0.27090  0.22580  Biso   1.000  C
  H223     1.0000 0.97680  0.24020  0.19650  Biso   1.000  H
  H224     1.0000 0.96810  0.32010  0.22810  Biso   1.000  H
  N85      1.0000 0.48372  0.37758  0.31845  Biso   1.000  N
  N86      1.0000 0.58124  0.41428  0.25352  Biso   1.000  N
  C141     1.0000 0.55927  0.32559  0.30873  Biso   1.000  C
  H225     1.0000 0.56720  0.27900  0.32840  Biso   1.000  H
  N87      1.0000 0.62042  0.34534  0.26967  Biso   1.000  N
  C142     1.0000 0.50006  0.43247  0.28263  Biso   1.000  C
  H226     1.0000 0.45980  0.47790  0.27850  Biso   1.000  H
  C143     1.0000 0.63067  0.46033  0.21184  Biso   1.000  C
  H227     1.0000 0.66720  0.42520  0.18720  Biso   1.000  H
  H228     1.0000 0.57760  0.48830  0.19130  Biso   1.000  H
  C144     1.0000 0.70630  0.51859  0.23491  Biso   1.000  C
  H229     1.0000 0.66900  0.55400  0.25910  Biso   1.000  H
  H230     1.0000 0.73490  0.55020  0.20570  Biso   1.000  H
  C145     1.0000 0.74320  0.47910  0.22580  Biso   1.000  C
  H231     1.0000 0.77320  0.50980  0.19650  Biso   1.000  H
  H232     1.0000 0.78190  0.42990  0.22810  Biso   1.000  H
  N88      1.0000 0.48372  0.87758  0.81845  Biso   1.000  N
  N89      1.0000 0.58124  0.91428  0.75352  Biso   1.000  N
  C146     1.0000 0.55927  0.82559  0.80873  Biso   1.000  C
  H233     1.0000 0.56720  0.77900  0.82840  Biso   1.000  H
  N90      1.0000 0.62042  0.84534  0.76967  Biso   1.000  N
  C147     1.0000 0.50006  0.93247  0.78263  Biso   1.000  C
  H234     1.0000 0.45980  0.97790  0.77850  Biso   1.000  H
  C148     1.0000 0.63067  0.96033  0.71184  Biso   1.000  C
  H235     1.0000 0.66720  0.92520  0.68720  Biso   1.000  H
  H236     1.0000 0.57760  0.98830  0.69130  Biso   1.000  H
  C149     1.0000 0.70630  0.01859  0.73491  Biso   1.000  C
  H237     1.0000 0.66900  0.05400  0.75910  Biso   1.000  H
  H238     1.0000 0.73490  0.05020  0.70570  Biso   1.000  H
  C150     1.0000 0.74320  0.97910  0.72580  Biso   1.000  C
  H239     1.0000 0.77320  0.00980  0.69650  Biso   1.000  H
  H240     1.0000 0.78190  0.92990  0.72810  Biso   1.000  H
  N91      1.0000 0.98372  0.37758  0.81845  Biso   1.000  N
  N92      1.0000 0.08124  0.41428  0.75352  Biso   1.000  N
  C151     1.0000 0.05927  0.32559  0.80873  Biso   1.000  C
  H241     1.0000 0.06720  0.27900  0.82840  Biso   1.000  H
  N93      1.0000 0.12042  0.34534  0.76967  Biso   1.000  N
  C152     1.0000 0.00006  0.43247  0.78263  Biso   1.000  C
  H242     1.0000 0.95980  0.47790  0.77850  Biso   1.000  H
  C153     1.0000 0.13067  0.46033  0.71184  Biso   1.000  C
  H243     1.0000 0.16720  0.42520  0.68720  Biso   1.000  H
  H244     1.0000 0.07760  0.48830  0.69130  Biso   1.000  H
  C154     1.0000 0.20630  0.51859  0.73491  Biso   1.000  C
  H245     1.0000 0.16900  0.55400  0.75910  Biso   1.000  H
  H246     1.0000 0.23490  0.55020  0.70570  Biso   1.000  H
  C155     1.0000 0.24320  0.47910  0.72580  Biso   1.000  C
  H247     1.0000 0.27320  0.50980  0.69650  Biso   1.000  H
  H248     1.0000 0.28190  0.42990  0.72810  Biso   1.000  H
  N94      1.0000 0.98372  0.87758  0.31845  Biso   1.000  N
  N95      1.0000 0.08124  0.91428  0.25352  Biso   1.000  N
  C156     1.0000 0.05927  0.82559  0.30873  Biso   1.000  C
  H249     1.0000 0.06720  0.77900  0.32840  Biso   1.000  H
  N96      1.0000 0.12042  0.84534  0.26967  Biso   1.000  N
  C157     1.0000 0.00006  0.93247  0.28263  Biso   1.000  C
  H250     1.0000 0.95980  0.97790  0.27850  Biso   1.000  H
  C158     1.0000 0.13067  0.96033  0.21184  Biso   1.000  C
  H251     1.0000 0.16720  0.92520  0.18720  Biso   1.000  H
  H252     1.0000 0.07760  0.98830  0.19130  Biso   1.000  H
  C159     1.0000 0.20630  0.01859  0.23491  Biso   1.000  C
  H253     1.0000 0.16900  0.05400  0.25910  Biso   1.000  H
  H254     1.0000 0.23490  0.05020  0.20570  Biso   1.000  H
  C160     1.0000 0.24320  0.97910  0.22580  Biso   1.000  C
  H255     1.0000 0.27320  0.00980  0.19650  Biso   1.000  H
  H256     1.0000 0.28190  0.92990  0.22810  Biso   1.000  H
  Cu1      1.0000 0.62500  0.12500  0.12500  Biso   1.000  Cu
  Cu2      1.0000 0.62500  0.62500  0.62500  Biso   1.000  Cu
  Cu3      1.0000 0.12500  0.62500  0.12500  Biso   1.000  Cu
  Cu4      1.0000 0.12500  0.12500  0.62500  Biso   1.000  Cu
  Cu5      1.0000 0.37500  0.87500  0.87500  Biso   1.000  Cu
  Cu6      1.0000 0.37500  0.37500  0.37500  Biso   1.000  Cu
  Cu7      1.0000 0.87500  0.37500  0.87500  Biso   1.000  Cu
  Cu8      1.0000 0.87500  0.87500  0.37500  Biso   1.000  Cu
