data_image0
_cell_length_a       12.901
_cell_length_b       17.061
_cell_length_c       24.719
_cell_angle_alpha    90
_cell_angle_beta     90
_cell_angle_gamma    90

_symmetry_space_group_name_H-M    "P 1"
_symmetry_int_tables_number       1

loop_
  _symmetry_equiv_pos_as_xyz
  'x, y, z'

loop_
  _atom_site_label
  _atom_site_occupancy
  _atom_site_fract_x
  _atom_site_fract_y
  _atom_site_fract_z
  _atom_site_thermal_displace_type
  _atom_site_B_iso_or_equiv
  _atom_site_type_symbol
  N1       1.0000 0.26501  0.87581  0.93262  Biso   1.000  N
  N2       1.0000 0.16752  0.91181  0.99923  Biso   1.000  N
  C1       1.0000 0.18983  0.82220  0.94254  Biso   1.000  C
  H1       1.0000 0.18230  0.77510  0.92240  Biso   1.000  H
  N3       1.0000 0.12818  0.84165  0.98285  Biso   1.000  N
  C2       1.0000 0.24832  0.93125  0.96920  Biso   1.000  C
  H2       1.0000 0.28820  0.97770  0.97320  Biso   1.000  H
  C3       1.0000 0.11628  0.95815  0.04131  Biso   1.000  C
  H3       1.0000 0.07680  0.92280  0.06550  Biso   1.000  H
  H4       1.0000 0.16930  0.98530  0.06340  Biso   1.000  H
  C4       1.0000 0.04310  0.01834  0.01689  Biso   1.000  C
  H5       1.0000 0.01170  0.04950  0.04640  Biso   1.000  H
  H6       1.0000 0.08350  0.05460  0.99380  Biso   1.000  H
  C5       1.0000 0.25450  0.22990  0.97510  Biso   1.000  C
  H7       1.0000 0.22410  0.26300  0.94630  Biso   1.000  H
  H8       1.0000 0.21290  0.18130  0.97720  Biso   1.000  H
  N4       1.0000 0.26501  0.37581  0.43262  Biso   1.000  N
  N5       1.0000 0.16752  0.41181  0.49923  Biso   1.000  N
  C6       1.0000 0.18983  0.32220  0.44254  Biso   1.000  C
  H9       1.0000 0.18230  0.27510  0.42240  Biso   1.000  H
  N6       1.0000 0.12818  0.34165  0.48285  Biso   1.000  N
  C7       1.0000 0.24832  0.43125  0.46920  Biso   1.000  C
  H10      1.0000 0.28820  0.47770  0.47320  Biso   1.000  H
  C8       1.0000 0.11628  0.45815  0.54131  Biso   1.000  C
  H11      1.0000 0.07680  0.42280  0.56550  Biso   1.000  H
  H12      1.0000 0.16930  0.48530  0.56340  Biso   1.000  H
  C9       1.0000 0.04310  0.51834  0.51689  Biso   1.000  C
  H13      1.0000 0.01170  0.54950  0.54640  Biso   1.000  H
  H14      1.0000 0.08350  0.55460  0.49380  Biso   1.000  H
  C10      1.0000 0.25450  0.72990  0.47510  Biso   1.000  C
  H15      1.0000 0.22410  0.76300  0.44630  Biso   1.000  H
  H16      1.0000 0.21290  0.68130  0.47720  Biso   1.000  H
  N7       1.0000 0.76501  0.87581  0.43262  Biso   1.000  N
  N8       1.0000 0.66752  0.91181  0.49923  Biso   1.000  N
  C11      1.0000 0.68983  0.82220  0.44254  Biso   1.000  C
  H17      1.0000 0.68230  0.77510  0.42240  Biso   1.000  H
  N9       1.0000 0.62818  0.84165  0.48285  Biso   1.000  N
  C12      1.0000 0.74832  0.93125  0.46920  Biso   1.000  C
  H18      1.0000 0.78820  0.97770  0.47320  Biso   1.000  H
  C13      1.0000 0.61628  0.95815  0.54131  Biso   1.000  C
  H19      1.0000 0.57680  0.92280  0.56550  Biso   1.000  H
  H20      1.0000 0.66930  0.98530  0.56340  Biso   1.000  H
  C14      1.0000 0.54310  0.01834  0.51689  Biso   1.000  C
  H21      1.0000 0.51170  0.04950  0.54640  Biso   1.000  H
  H22      1.0000 0.58350  0.05460  0.49380  Biso   1.000  H
  C15      1.0000 0.75450  0.22990  0.47510  Biso   1.000  C
  H23      1.0000 0.72410  0.26300  0.44630  Biso   1.000  H
  H24      1.0000 0.71290  0.18130  0.47720  Biso   1.000  H
  N10      1.0000 0.76501  0.37581  0.93262  Biso   1.000  N
  N11      1.0000 0.66752  0.41181  0.99923  Biso   1.000  N
  C16      1.0000 0.68983  0.32220  0.94254  Biso   1.000  C
  H25      1.0000 0.68230  0.27510  0.92240  Biso   1.000  H
  N12      1.0000 0.62818  0.34165  0.98285  Biso   1.000  N
  C17      1.0000 0.74832  0.43125  0.96920  Biso   1.000  C
  H26      1.0000 0.78820  0.47770  0.97320  Biso   1.000  H
  C18      1.0000 0.61628  0.45815  0.04131  Biso   1.000  C
  H27      1.0000 0.57680  0.42280  0.06550  Biso   1.000  H
  H28      1.0000 0.66930  0.48530  0.06340  Biso   1.000  H
  C19      1.0000 0.54310  0.51834  0.01689  Biso   1.000  C
  H29      1.0000 0.51170  0.54950  0.04640  Biso   1.000  H
  H30      1.0000 0.58350  0.55460  0.99380  Biso   1.000  H
  C20      1.0000 0.75450  0.72990  0.97510  Biso   1.000  C
  H31      1.0000 0.72410  0.76300  0.94630  Biso   1.000  H
  H32      1.0000 0.71290  0.68130  0.97720  Biso   1.000  H
  N13      1.0000 0.48499  0.87419  0.93262  Biso   1.000  N
  N14      1.0000 0.58248  0.83819  0.99923  Biso   1.000  N
  C21      1.0000 0.56017  0.92780  0.94254  Biso   1.000  C
  H33      1.0000 0.56770  0.97490  0.92240  Biso   1.000  H
  N15      1.0000 0.62182  0.90835  0.98285  Biso   1.000  N
  C22      1.0000 0.50168  0.81875  0.96920  Biso   1.000  C
  H34      1.0000 0.46180  0.77230  0.97320  Biso   1.000  H
  C23      1.0000 0.63372  0.79185  0.04131  Biso   1.000  C
  H35      1.0000 0.67320  0.82720  0.06550  Biso   1.000  H
  H36      1.0000 0.58070  0.76470  0.06340  Biso   1.000  H
  C24      1.0000 0.70690  0.73166  0.01689  Biso   1.000  C
  H37      1.0000 0.73830  0.70050  0.04640  Biso   1.000  H
  H38      1.0000 0.66650  0.69540  0.99380  Biso   1.000  H
  C25      1.0000 0.49550  0.52010  0.97510  Biso   1.000  C
  H39      1.0000 0.52590  0.48700  0.94630  Biso   1.000  H
  H40      1.0000 0.53710  0.56870  0.97720  Biso   1.000  H
  N16      1.0000 0.48499  0.37419  0.43262  Biso   1.000  N
  N17      1.0000 0.58248  0.33819  0.49923  Biso   1.000  N
  C26      1.0000 0.56017  0.42780  0.44254  Biso   1.000  C
  H41      1.0000 0.56770  0.47490  0.42240  Biso   1.000  H
  N18      1.0000 0.62182  0.40835  0.48285  Biso   1.000  N
  C27      1.0000 0.50168  0.31875  0.46920  Biso   1.000  C
  H42      1.0000 0.46180  0.27230  0.47320  Biso   1.000  H
  C28      1.0000 0.63372  0.29185  0.54131  Biso   1.000  C
  H43      1.0000 0.67320  0.32720  0.56550  Biso   1.000  H
  H44      1.0000 0.58070  0.26470  0.56340  Biso   1.000  H
  C29      1.0000 0.70690  0.23166  0.51689  Biso   1.000  C
  H45      1.0000 0.73830  0.20050  0.54640  Biso   1.000  H
  H46      1.0000 0.66650  0.19540  0.49380  Biso   1.000  H
  C30      1.0000 0.49550  0.02010  0.47510  Biso   1.000  C
  H47      1.0000 0.52590  0.98700  0.44630  Biso   1.000  H
  H48      1.0000 0.53710  0.06870  0.47720  Biso   1.000  H
  N19      1.0000 0.98499  0.87419  0.43262  Biso   1.000  N
  N20      1.0000 0.08248  0.83819  0.49923  Biso   1.000  N
  C31      1.0000 0.06017  0.92780  0.44254  Biso   1.000  C
  H49      1.0000 0.06770  0.97490  0.42240  Biso   1.000  H
  N21      1.0000 0.12182  0.90835  0.48285  Biso   1.000  N
  C32      1.0000 0.00168  0.81875  0.46920  Biso   1.000  C
  H50      1.0000 0.96180  0.77230  0.47320  Biso   1.000  H
  C33      1.0000 0.13372  0.79185  0.54131  Biso   1.000  C
  H51      1.0000 0.17320  0.82720  0.56550  Biso   1.000  H
  H52      1.0000 0.08070  0.76470  0.56340  Biso   1.000  H
  C34      1.0000 0.20690  0.73166  0.51689  Biso   1.000  C
  H53      1.0000 0.23830  0.70050  0.54640  Biso   1.000  H
  H54      1.0000 0.16650  0.69540  0.49380  Biso   1.000  H
  C35      1.0000 0.99550  0.52010  0.47510  Biso   1.000  C
  H55      1.0000 0.02590  0.48700  0.44630  Biso   1.000  H
  H56      1.0000 0.03710  0.56870  0.47720  Biso   1.000  H
  N22      1.0000 0.98499  0.37419  0.93262  Biso   1.000  N
  N23      1.0000 0.08248  0.33819  0.99923  Biso   1.000  N
  C36      1.0000 0.06017  0.42780  0.94254  Biso   1.000  C
  H57      1.0000 0.06770  0.47490  0.92240  Biso   1.000  H
  N24      1.0000 0.12182  0.40835  0.98285  Biso   1.000  N
  C37      1.0000 0.00168  0.31875  0.96920  Biso   1.000  C
  H58      1.0000 0.96180  0.27230  0.97320  Biso   1.000  H
  C38      1.0000 0.13372  0.29185  0.04131  Biso   1.000  C
  H59      1.0000 0.17320  0.32720  0.06550  Biso   1.000  H
  H60      1.0000 0.08070  0.26470  0.06340  Biso   1.000  H
  C39      1.0000 0.20690  0.23166  0.01689  Biso   1.000  C
  H61      1.0000 0.23830  0.20050  0.04640  Biso   1.000  H
  H62      1.0000 0.16650  0.19540  0.99380  Biso   1.000  H
  C40      1.0000 0.99550  0.02010  0.97510  Biso   1.000  C
  H63      1.0000 0.02590  0.98700  0.94630  Biso   1.000  H
  H64      1.0000 0.03710  0.06870  0.97720  Biso   1.000  H
  N25      1.0000 0.48499  0.87581  0.81738  Biso   1.000  N
  N26      1.0000 0.58248  0.91181  0.75077  Biso   1.000  N
  C41      1.0000 0.56017  0.82220  0.80746  Biso   1.000  C
  H65      1.0000 0.56770  0.77510  0.82760  Biso   1.000  H
  N27      1.0000 0.62182  0.84165  0.76715  Biso   1.000  N
  C42      1.0000 0.50168  0.93125  0.78080  Biso   1.000  C
  H66      1.0000 0.46180  0.97770  0.77680  Biso   1.000  H
  C43      1.0000 0.63372  0.95815  0.70869  Biso   1.000  C
  H67      1.0000 0.67320  0.92280  0.68450  Biso   1.000  H
  H68      1.0000 0.58070  0.98530  0.68660  Biso   1.000  H
  C44      1.0000 0.70690  0.01834  0.73311  Biso   1.000  C
  H69      1.0000 0.73830  0.04950  0.70360  Biso   1.000  H
  H70      1.0000 0.66650  0.05460  0.75620  Biso   1.000  H
  C45      1.0000 0.49550  0.22990  0.77490  Biso   1.000  C
  H71      1.0000 0.52590  0.26300  0.80370  Biso   1.000  H
  H72      1.0000 0.53710  0.18130  0.77280  Biso   1.000  H
  N28      1.0000 0.48499  0.37581  0.31738  Biso   1.000  N
  N29      1.0000 0.58248  0.41181  0.25077  Biso   1.000  N
  C46      1.0000 0.56017  0.32220  0.30746  Biso   1.000  C
  H73      1.0000 0.56770  0.27510  0.32760  Biso   1.000  H
  N30      1.0000 0.62182  0.34165  0.26715  Biso   1.000  N
  C47      1.0000 0.50168  0.43125  0.28080  Biso   1.000  C
  H74      1.0000 0.46180  0.47770  0.27680  Biso   1.000  H
  C48      1.0000 0.63372  0.45815  0.20869  Biso   1.000  C
  H75      1.0000 0.67320  0.42280  0.18450  Biso   1.000  H
  H76      1.0000 0.58070  0.48530  0.18660  Biso   1.000  H
  C49      1.0000 0.70690  0.51834  0.23311  Biso   1.000  C
  H77      1.0000 0.73830  0.54950  0.20360  Biso   1.000  H
  H78      1.0000 0.66650  0.55460  0.25620  Biso   1.000  H
  C50      1.0000 0.49550  0.72990  0.27490  Biso   1.000  C
  H79      1.0000 0.52590  0.76300  0.30370  Biso   1.000  H
  H80      1.0000 0.53710  0.68130  0.27280  Biso   1.000  H
  N31      1.0000 0.98499  0.87581  0.31738  Biso   1.000  N
  N32      1.0000 0.08248  0.91181  0.25077  Biso   1.000  N
  C51      1.0000 0.06017  0.82220  0.30746  Biso   1.000  C
  H81      1.0000 0.06770  0.77510  0.32760  Biso   1.000  H
  N33      1.0000 0.12182  0.84165  0.26715  Biso   1.000  N
  C52      1.0000 0.00168  0.93125  0.28080  Biso   1.000  C
  H82      1.0000 0.96180  0.97770  0.27680  Biso   1.000  H
  C53      1.0000 0.13372  0.95815  0.20869  Biso   1.000  C
  H83      1.0000 0.17320  0.92280  0.18450  Biso   1.000  H
  H84      1.0000 0.08070  0.98530  0.18660  Biso   1.000  H
  C54      1.0000 0.20690  0.01834  0.23311  Biso   1.000  C
  H85      1.0000 0.23830  0.04950  0.20360  Biso   1.000  H
  H86      1.0000 0.16650  0.05460  0.25620  Biso   1.000  H
  C55      1.0000 0.99550  0.22990  0.27490  Biso   1.000  C
  H87      1.0000 0.02590  0.26300  0.30370  Biso   1.000  H
  H88      1.0000 0.03710  0.18130  0.27280  Biso   1.000  H
  N34      1.0000 0.98499  0.37581  0.81738  Biso   1.000  N
  N35      1.0000 0.08248  0.41181  0.75077  Biso   1.000  N
  C56      1.0000 0.06017  0.32220  0.80746  Biso   1.000  C
  H89      1.0000 0.06770  0.27510  0.82760  Biso   1.000  H
  N36      1.0000 0.12182  0.34165  0.76715  Biso   1.000  N
  C57      1.0000 0.00168  0.43125  0.78080  Biso   1.000  C
  H90      1.0000 0.96180  0.47770  0.77680  Biso   1.000  H
  C58      1.0000 0.13372  0.45815  0.70869  Biso   1.000  C
  H91      1.0000 0.17320  0.42280  0.68450  Biso   1.000  H
  H92      1.0000 0.08070  0.48530  0.68660  Biso   1.000  H
  C59      1.0000 0.20690  0.51834  0.73311  Biso   1.000  C
  H93      1.0000 0.23830  0.54950  0.70360  Biso   1.000  H
  H94      1.0000 0.16650  0.55460  0.75620  Biso   1.000  H
  C60      1.0000 0.99550  0.72990  0.77490  Biso   1.000  C
  H95      1.0000 0.02590  0.76300  0.80370  Biso   1.000  H
  H96      1.0000 0.03710  0.68130  0.77280  Biso   1.000  H
  N37      1.0000 0.26501  0.87419  0.81738  Biso   1.000  N
  N38      1.0000 0.16752  0.83819  0.75077  Biso   1.000  N
  C61      1.0000 0.18983  0.92780  0.80746  Biso   1.000  C
  H97      1.0000 0.18230  0.97490  0.82760  Biso   1.000  H
  N39      1.0000 0.12818  0.90835  0.76715  Biso   1.000  N
  C62      1.0000 0.24832  0.81875  0.78080  Biso   1.000  C
  H98      1.0000 0.28820  0.77230  0.77680  Biso   1.000  H
  C63      1.0000 0.11628  0.79185  0.70869  Biso   1.000  C
  H99      1.0000 0.07680  0.82720  0.68450  Biso   1.000  H
  H100     1.0000 0.16930  0.76470  0.68660  Biso   1.000  H
  C64      1.0000 0.04310  0.73166  0.73311  Biso   1.000  C
  H101     1.0000 0.01170  0.70050  0.70360  Biso   1.000  H
  H102     1.0000 0.08350  0.69540  0.75620  Biso   1.000  H
  C65      1.0000 0.25450  0.52010  0.77490  Biso   1.000  C
  H103     1.0000 0.22410  0.48700  0.80370  Biso   1.000  H
  H104     1.0000 0.21290  0.56870  0.77280  Biso   1.000  H
  N40      1.0000 0.26501  0.37419  0.31738  Biso   1.000  N
  N41      1.0000 0.16752  0.33819  0.25077  Biso   1.000  N
  C66      1.0000 0.18983  0.42780  0.30746  Biso   1.000  C
  H105     1.0000 0.18230  0.47490  0.32760  Biso   1.000  H
  N42      1.0000 0.12818  0.40835  0.26715  Biso   1.000  N
  C67      1.0000 0.24832  0.31875  0.28080  Biso   1.000  C
  H106     1.0000 0.28820  0.27230  0.27680  Biso   1.000  H
  C68      1.0000 0.11628  0.29185  0.20869  Biso   1.000  C
  H107     1.0000 0.07680  0.32720  0.18450  Biso   1.000  H
  H108     1.0000 0.16930  0.26470  0.18660  Biso   1.000  H
  C69      1.0000 0.04310  0.23166  0.23311  Biso   1.000  C
  H109     1.0000 0.01170  0.20050  0.20360  Biso   1.000  H
  H110     1.0000 0.08350  0.19540  0.25620  Biso   1.000  H
  C70      1.0000 0.25450  0.02010  0.27490  Biso   1.000  C
  H111     1.0000 0.22410  0.98700  0.30370  Biso   1.000  H
  H112     1.0000 0.21290  0.06870  0.27280  Biso   1.000  H
  N43      1.0000 0.76501  0.87419  0.31738  Biso   1.000  N
  N44      1.0000 0.66752  0.83819  0.25077  Biso   1.000  N
  C71      1.0000 0.68983  0.92780  0.30746  Biso   1.000  C
  H113     1.0000 0.68230  0.97490  0.32760  Biso   1.000  H
  N45      1.0000 0.62818  0.90835  0.26715  Biso   1.000  N
  C72      1.0000 0.74832  0.81875  0.28080  Biso   1.000  C
  H114     1.0000 0.78820  0.77230  0.27680  Biso   1.000  H
  C73      1.0000 0.61628  0.79185  0.20869  Biso   1.000  C
  H115     1.0000 0.57680  0.82720  0.18450  Biso   1.000  H
  H116     1.0000 0.66930  0.76470  0.18660  Biso   1.000  H
  C74      1.0000 0.54310  0.73166  0.23311  Biso   1.000  C
  H117     1.0000 0.51170  0.70050  0.20360  Biso   1.000  H
  H118     1.0000 0.58350  0.69540  0.25620  Biso   1.000  H
  C75      1.0000 0.75450  0.52010  0.27490  Biso   1.000  C
  H119     1.0000 0.72410  0.48700  0.30370  Biso   1.000  H
  H120     1.0000 0.71290  0.56870  0.27280  Biso   1.000  H
  N46      1.0000 0.76501  0.37419  0.81738  Biso   1.000  N
  N47      1.0000 0.66752  0.33819  0.75077  Biso   1.000  N
  C76      1.0000 0.68983  0.42780  0.80746  Biso   1.000  C
  H121     1.0000 0.68230  0.47490  0.82760  Biso   1.000  H
  N48      1.0000 0.62818  0.40835  0.76715  Biso   1.000  N
  C77      1.0000 0.74832  0.31875  0.78080  Biso   1.000  C
  H122     1.0000 0.78820  0.27230  0.77680  Biso   1.000  H
  C78      1.0000 0.61628  0.29185  0.70869  Biso   1.000  C
  H123     1.0000 0.57680  0.32720  0.68450  Biso   1.000  H
  H124     1.0000 0.66930  0.26470  0.68660  Biso   1.000  H
  C79      1.0000 0.54310  0.23166  0.73311  Biso   1.000  C
  H125     1.0000 0.51170  0.20050  0.70360  Biso   1.000  H
  H126     1.0000 0.58350  0.19540  0.75620  Biso   1.000  H
  C80      1.0000 0.75450  0.02010  0.77490  Biso   1.000  C
  H127     1.0000 0.72410  0.98700  0.80370  Biso   1.000  H
  H128     1.0000 0.71290  0.06870  0.77280  Biso   1.000  H
  N49      1.0000 0.73499  0.12419  0.06738  Biso   1.000  N
  N50      1.0000 0.83248  0.08819  0.00077  Biso   1.000  N
  C81      1.0000 0.81017  0.17780  0.05746  Biso   1.000  C
  H129     1.0000 0.81770  0.22490  0.07760  Biso   1.000  H
  N51      1.0000 0.87182  0.15835  0.01715  Biso   1.000  N
  C82      1.0000 0.75168  0.06875  0.03080  Biso   1.000  C
  H130     1.0000 0.71180  0.02230  0.02680  Biso   1.000  H
  C83      1.0000 0.88372  0.04185  0.95869  Biso   1.000  C
  H131     1.0000 0.92320  0.07720  0.93450  Biso   1.000  H
  H132     1.0000 0.83070  0.01470  0.93660  Biso   1.000  H
  C84      1.0000 0.95690  0.98166  0.98311  Biso   1.000  C
  H133     1.0000 0.98830  0.95050  0.95360  Biso   1.000  H
  H134     1.0000 0.91650  0.94540  0.00620  Biso   1.000  H
  C85      1.0000 0.74550  0.77010  0.02490  Biso   1.000  C
  H135     1.0000 0.77590  0.73700  0.05370  Biso   1.000  H
  H136     1.0000 0.78710  0.81870  0.02280  Biso   1.000  H
  N52      1.0000 0.73499  0.62419  0.56738  Biso   1.000  N
  N53      1.0000 0.83248  0.58819  0.50077  Biso   1.000  N
  C86      1.0000 0.81017  0.67780  0.55746  Biso   1.000  C
  H137     1.0000 0.81770  0.72490  0.57760  Biso   1.000  H
  N54      1.0000 0.87182  0.65835  0.51715  Biso   1.000  N
  C87      1.0000 0.75168  0.56875  0.53080  Biso   1.000  C
  H138     1.0000 0.71180  0.52230  0.52680  Biso   1.000  H
  C88      1.0000 0.88372  0.54185  0.45869  Biso   1.000  C
  H139     1.0000 0.92320  0.57720  0.43450  Biso   1.000  H
  H140     1.0000 0.83070  0.51470  0.43660  Biso   1.000  H
  C89      1.0000 0.95690  0.48166  0.48311  Biso   1.000  C
  H141     1.0000 0.98830  0.45050  0.45360  Biso   1.000  H
  H142     1.0000 0.91650  0.44540  0.50620  Biso   1.000  H
  C90      1.0000 0.74550  0.27010  0.52490  Biso   1.000  C
  H143     1.0000 0.77590  0.23700  0.55370  Biso   1.000  H
  H144     1.0000 0.78710  0.31870  0.52280  Biso   1.000  H
  N55      1.0000 0.23499  0.12419  0.56738  Biso   1.000  N
  N56      1.0000 0.33248  0.08819  0.50077  Biso   1.000  N
  C91      1.0000 0.31017  0.17780  0.55746  Biso   1.000  C
  H145     1.0000 0.31770  0.22490  0.57760  Biso   1.000  H
  N57      1.0000 0.37182  0.15835  0.51715  Biso   1.000  N
  C92      1.0000 0.25168  0.06875  0.53080  Biso   1.000  C
  H146     1.0000 0.21180  0.02230  0.52680  Biso   1.000  H
  C93      1.0000 0.38372  0.04185  0.45869  Biso   1.000  C
  H147     1.0000 0.42320  0.07720  0.43450  Biso   1.000  H
  H148     1.0000 0.33070  0.01470  0.43660  Biso   1.000  H
  C94      1.0000 0.45690  0.98166  0.48311  Biso   1.000  C
  H149     1.0000 0.48830  0.95050  0.45360  Biso   1.000  H
  H150     1.0000 0.41650  0.94540  0.50620  Biso   1.000  H
  C95      1.0000 0.24550  0.77010  0.52490  Biso   1.000  C
  H151     1.0000 0.27590  0.73700  0.55370  Biso   1.000  H
  H152     1.0000 0.28710  0.81870  0.52280  Biso   1.000  H
  N58      1.0000 0.23499  0.62419  0.06738  Biso   1.000  N
  N59      1.0000 0.33248  0.58819  0.00077  Biso   1.000  N
  C96      1.0000 0.31017  0.67780  0.05746  Biso   1.000  C
  H153     1.0000 0.31770  0.72490  0.07760  Biso   1.000  H
  N60      1.0000 0.37182  0.65835  0.01715  Biso   1.000  N
  C97      1.0000 0.25168  0.56875  0.03080  Biso   1.000  C
  H154     1.0000 0.21180  0.52230  0.02680  Biso   1.000  H
  C98      1.0000 0.38372  0.54185  0.95869  Biso   1.000  C
  H155     1.0000 0.42320  0.57720  0.93450  Biso   1.000  H
  H156     1.0000 0.33070  0.51470  0.93660  Biso   1.000  H
  C99      1.0000 0.45690  0.48166  0.98311  Biso   1.000  C
  H157     1.0000 0.48830  0.45050  0.95360  Biso   1.000  H
  H158     1.0000 0.41650  0.44540  0.00620  Biso   1.000  H
  C100     1.0000 0.24550  0.27010  0.02490  Biso   1.000  C
  H159     1.0000 0.27590  0.23700  0.05370  Biso   1.000  H
  H160     1.0000 0.28710  0.31870  0.02280  Biso   1.000  H
  N61      1.0000 0.51501  0.12581  0.06738  Biso   1.000  N
  N62      1.0000 0.41752  0.16181  0.00077  Biso   1.000  N
  C101     1.0000 0.43983  0.07220  0.05746  Biso   1.000  C
  H161     1.0000 0.43230  0.02510  0.07760  Biso   1.000  H
  N63      1.0000 0.37818  0.09165  0.01715  Biso   1.000  N
  C102     1.0000 0.49832  0.18125  0.03080  Biso   1.000  C
  H162     1.0000 0.53820  0.22770  0.02680  Biso   1.000  H
  C103     1.0000 0.36628  0.20815  0.95869  Biso   1.000  C
  H163     1.0000 0.32680  0.17280  0.93450  Biso   1.000  H
  H164     1.0000 0.41930  0.23530  0.93660  Biso   1.000  H
  C104     1.0000 0.29310  0.26834  0.98311  Biso   1.000  C
  H165     1.0000 0.26170  0.29950  0.95360  Biso   1.000  H
  H166     1.0000 0.33350  0.30460  0.00620  Biso   1.000  H
  C105     1.0000 0.50450  0.47990  0.02490  Biso   1.000  C
  H167     1.0000 0.47410  0.51300  0.05370  Biso   1.000  H
  H168     1.0000 0.46290  0.43130  0.02280  Biso   1.000  H
  N64      1.0000 0.51501  0.62581  0.56738  Biso   1.000  N
  N65      1.0000 0.41752  0.66181  0.50077  Biso   1.000  N
  C106     1.0000 0.43983  0.57220  0.55746  Biso   1.000  C
  H169     1.0000 0.43230  0.52510  0.57760  Biso   1.000  H
  N66      1.0000 0.37818  0.59165  0.51715  Biso   1.000  N
  C107     1.0000 0.49832  0.68125  0.53080  Biso   1.000  C
  H170     1.0000 0.53820  0.72770  0.52680  Biso   1.000  H
  C108     1.0000 0.36628  0.70815  0.45869  Biso   1.000  C
  H171     1.0000 0.32680  0.67280  0.43450  Biso   1.000  H
  H172     1.0000 0.41930  0.73530  0.43660  Biso   1.000  H
  C109     1.0000 0.29310  0.76834  0.48311  Biso   1.000  C
  H173     1.0000 0.26170  0.79950  0.45360  Biso   1.000  H
  H174     1.0000 0.33350  0.80460  0.50620  Biso   1.000  H
  C110     1.0000 0.50450  0.97990  0.52490  Biso   1.000  C
  H175     1.0000 0.47410  0.01300  0.55370  Biso   1.000  H
  H176     1.0000 0.46290  0.93130  0.52280  Biso   1.000  H
  N67      1.0000 0.01501  0.12581  0.56738  Biso   1.000  N
  N68      1.0000 0.91752  0.16181  0.50077  Biso   1.000  N
  C111     1.0000 0.93983  0.07220  0.55746  Biso   1.000  C
  H177     1.0000 0.93230  0.02510  0.57760  Biso   1.000  H
  N69      1.0000 0.87818  0.09165  0.51715  Biso   1.000  N
  C112     1.0000 0.99832  0.18125  0.53080  Biso   1.000  C
  H178     1.0000 0.03820  0.22770  0.52680  Biso   1.000  H
  C113     1.0000 0.86628  0.20815  0.45869  Biso   1.000  C
  H179     1.0000 0.82680  0.17280  0.43450  Biso   1.000  H
  H180     1.0000 0.91930  0.23530  0.43660  Biso   1.000  H
  C114     1.0000 0.79310  0.26834  0.48311  Biso   1.000  C
  H181     1.0000 0.76170  0.29950  0.45360  Biso   1.000  H
  H182     1.0000 0.83350  0.30460  0.50620  Biso   1.000  H
  C115     1.0000 0.00450  0.47990  0.52490  Biso   1.000  C
  H183     1.0000 0.97410  0.51300  0.55370  Biso   1.000  H
  H184     1.0000 0.96290  0.43130  0.52280  Biso   1.000  H
  N70      1.0000 0.01501  0.62581  0.06738  Biso   1.000  N
  N71      1.0000 0.91752  0.66181  0.00077  Biso   1.000  N
  C116     1.0000 0.93983  0.57220  0.05746  Biso   1.000  C
  H185     1.0000 0.93230  0.52510  0.07760  Biso   1.000  H
  N72      1.0000 0.87818  0.59165  0.01715  Biso   1.000  N
  C117     1.0000 0.99832  0.68125  0.03080  Biso   1.000  C
  H186     1.0000 0.03820  0.72770  0.02680  Biso   1.000  H
  C118     1.0000 0.86628  0.70815  0.95869  Biso   1.000  C
  H187     1.0000 0.82680  0.67280  0.93450  Biso   1.000  H
  H188     1.0000 0.91930  0.73530  0.93660  Biso   1.000  H
  C119     1.0000 0.79310  0.76834  0.98311  Biso   1.000  C
  H189     1.0000 0.76170  0.79950  0.95360  Biso   1.000  H
  H190     1.0000 0.83350  0.80460  0.00620  Biso   1.000  H
  C120     1.0000 0.00450  0.97990  0.02490  Biso   1.000  C
  H191     1.0000 0.97410  0.01300  0.05370  Biso   1.000  H
  H192     1.0000 0.96290  0.93130  0.02280  Biso   1.000  H
  N73      1.0000 0.51501  0.12419  0.18262  Biso   1.000  N
  N74      1.0000 0.41752  0.08819  0.24923  Biso   1.000  N
  C121     1.0000 0.43983  0.17780  0.19254  Biso   1.000  C
  H193     1.0000 0.43230  0.22490  0.17240  Biso   1.000  H
  N75      1.0000 0.37818  0.15835  0.23285  Biso   1.000  N
  C122     1.0000 0.49832  0.06875  0.21920  Biso   1.000  C
  H194     1.0000 0.53820  0.02230  0.22320  Biso   1.000  H
  C123     1.0000 0.36628  0.04185  0.29131  Biso   1.000  C
  H195     1.0000 0.32680  0.07720  0.31550  Biso   1.000  H
  H196     1.0000 0.41930  0.01470  0.31340  Biso   1.000  H
  C124     1.0000 0.29310  0.98166  0.26689  Biso   1.000  C
  H197     1.0000 0.26170  0.95050  0.29640  Biso   1.000  H
  H198     1.0000 0.33350  0.94540  0.24380  Biso   1.000  H
  C125     1.0000 0.50450  0.77010  0.22510  Biso   1.000  C
  H199     1.0000 0.47410  0.73700  0.19630  Biso   1.000  H
  H200     1.0000 0.46290  0.81870  0.22720  Biso   1.000  H
  N76      1.0000 0.51501  0.62419  0.68262  Biso   1.000  N
  N77      1.0000 0.41752  0.58819  0.74923  Biso   1.000  N
  C126     1.0000 0.43983  0.67780  0.69254  Biso   1.000  C
  H201     1.0000 0.43230  0.72490  0.67240  Biso   1.000  H
  N78      1.0000 0.37818  0.65835  0.73285  Biso   1.000  N
  C127     1.0000 0.49832  0.56875  0.71920  Biso   1.000  C
  H202     1.0000 0.53820  0.52230  0.72320  Biso   1.000  H
  C128     1.0000 0.36628  0.54185  0.79131  Biso   1.000  C
  H203     1.0000 0.32680  0.57720  0.81550  Biso   1.000  H
  H204     1.0000 0.41930  0.51470  0.81340  Biso   1.000  H
  C129     1.0000 0.29310  0.48166  0.76689  Biso   1.000  C
  H205     1.0000 0.26170  0.45050  0.79640  Biso   1.000  H
  H206     1.0000 0.33350  0.44540  0.74380  Biso   1.000  H
  C130     1.0000 0.50450  0.27010  0.72510  Biso   1.000  C
  H207     1.0000 0.47410  0.23700  0.69630  Biso   1.000  H
  H208     1.0000 0.46290  0.31870  0.72720  Biso   1.000  H
  N79      1.0000 0.01501  0.12419  0.68262  Biso   1.000  N
  N80      1.0000 0.91752  0.08819  0.74923  Biso   1.000  N
  C131     1.0000 0.93983  0.17780  0.69254  Biso   1.000  C
  H209     1.0000 0.93230  0.22490  0.67240  Biso   1.000  H
  N81      1.0000 0.87818  0.15835  0.73285  Biso   1.000  N
  C132     1.0000 0.99832  0.06875  0.71920  Biso   1.000  C
  H210     1.0000 0.03820  0.02230  0.72320  Biso   1.000  H
  C133     1.0000 0.86628  0.04185  0.79131  Biso   1.000  C
  H211     1.0000 0.82680  0.07720  0.81550  Biso   1.000  H
  H212     1.0000 0.91930  0.01470  0.81340  Biso   1.000  H
  C134     1.0000 0.79310  0.98166  0.76689  Biso   1.000  C
  H213     1.0000 0.76170  0.95050  0.79640  Biso   1.000  H
  H214     1.0000 0.83350  0.94540  0.74380  Biso   1.000  H
  C135     1.0000 0.00450  0.77010  0.72510  Biso   1.000  C
  H215     1.0000 0.97410  0.73700  0.69630  Biso   1.000  H
  H216     1.0000 0.96290  0.81870  0.72720  Biso   1.000  H
  N82      1.0000 0.01501  0.62419  0.18262  Biso   1.000  N
  N83      1.0000 0.91752  0.58819  0.24923  Biso   1.000  N
  C136     1.0000 0.93983  0.67780  0.19254  Biso   1.000  C
  H217     1.0000 0.93230  0.72490  0.17240  Biso   1.000  H
  N84      1.0000 0.87818  0.65835  0.23285  Biso   1.000  N
  C137     1.0000 0.99832  0.56875  0.21920  Biso   1.000  C
  H218     1.0000 0.03820  0.52230  0.22320  Biso   1.000  H
  C138     1.0000 0.86628  0.54185  0.29131  Biso   1.000  C
  H219     1.0000 0.82680  0.57720  0.31550  Biso   1.000  H
  H220     1.0000 0.91930  0.51470  0.31340  Biso   1.000  H
  C139     1.0000 0.79310  0.48166  0.26689  Biso   1.000  C
  H221     1.0000 0.76170  0.45050  0.29640  Biso   1.000  H
  H222     1.0000 0.83350  0.44540  0.24380  Biso   1.000  H
  C140     1.0000 0.00450  0.27010  0.22510  Biso   1.000  C
  H223     1.0000 0.97410  0.23700  0.19630  Biso   1.000  H
  H224     1.0000 0.96290  0.31870  0.22720  Biso   1.000  H
  N85      1.0000 0.73499  0.12581  0.18262  Biso   1.000  N
  N86      1.0000 0.83248  0.16181  0.24923  Biso   1.000  N
  C141     1.0000 0.81017  0.07220  0.19254  Biso   1.000  C
  H225     1.0000 0.81770  0.02510  0.17240  Biso   1.000  H
  N87      1.0000 0.87182  0.09165  0.23285  Biso   1.000  N
  C142     1.0000 0.75168  0.18125  0.21920  Biso   1.000  C
  H226     1.0000 0.71180  0.22770  0.22320  Biso   1.000  H
  C143     1.0000 0.88372  0.20815  0.29131  Biso   1.000  C
  H227     1.0000 0.92320  0.17280  0.31550  Biso   1.000  H
  H228     1.0000 0.83070  0.23530  0.31340  Biso   1.000  H
  C144     1.0000 0.95690  0.26834  0.26689  Biso   1.000  C
  H229     1.0000 0.98830  0.29950  0.29640  Biso   1.000  H
  H230     1.0000 0.91650  0.30460  0.24380  Biso   1.000  H
  C145     1.0000 0.74550  0.47990  0.22510  Biso   1.000  C
  H231     1.0000 0.77590  0.51300  0.19630  Biso   1.000  H
  H232     1.0000 0.78710  0.43130  0.22720  Biso   1.000  H
  N88      1.0000 0.73499  0.62581  0.68262  Biso   1.000  N
  N89      1.0000 0.83248  0.66181  0.74923  Biso   1.000  N
  C146     1.0000 0.81017  0.57220  0.69254  Biso   1.000  C
  H233     1.0000 0.81770  0.52510  0.67240  Biso   1.000  H
  N90      1.0000 0.87182  0.59165  0.73285  Biso   1.000  N
  C147     1.0000 0.75168  0.68125  0.71920  Biso   1.000  C
  H234     1.0000 0.71180  0.72770  0.72320  Biso   1.000  H
  C148     1.0000 0.88372  0.70815  0.79131  Biso   1.000  C
  H235     1.0000 0.92320  0.67280  0.81550  Biso   1.000  H
  H236     1.0000 0.83070  0.73530  0.81340  Biso   1.000  H
  C149     1.0000 0.95690  0.76834  0.76689  Biso   1.000  C
  H237     1.0000 0.98830  0.79950  0.79640  Biso   1.000  H
  H238     1.0000 0.91650  0.80460  0.74380  Biso   1.000  H
  C150     1.0000 0.74550  0.97990  0.72510  Biso   1.000  C
  H239     1.0000 0.77590  0.01300  0.69630  Biso   1.000  H
  H240     1.0000 0.78710  0.93130  0.72720  Biso   1.000  H
  N91      1.0000 0.23499  0.12581  0.68262  Biso   1.000  N
  N92      1.0000 0.33248  0.16181  0.74923  Biso   1.000  N
  C151     1.0000 0.31017  0.07220  0.69254  Biso   1.000  C
  H241     1.0000 0.31770  0.02510  0.67240  Biso   1.000  H
  N93      1.0000 0.37182  0.09165  0.73285  Biso   1.000  N
  C152     1.0000 0.25168  0.18125  0.71920  Biso   1.000  C
  H242     1.0000 0.21180  0.22770  0.72320  Biso   1.000  H
  C153     1.0000 0.38372  0.20815  0.79131  Biso   1.000  C
  H243     1.0000 0.42320  0.17280  0.81550  Biso   1.000  H
  H244     1.0000 0.33070  0.23530  0.81340  Biso   1.000  H
  C154     1.0000 0.45690  0.26834  0.76689  Biso   1.000  C
  H245     1.0000 0.48830  0.29950  0.79640  Biso   1.000  H
  H246     1.0000 0.41650  0.30460  0.74380  Biso   1.000  H
  C155     1.0000 0.24550  0.47990  0.72510  Biso   1.000  C
  H247     1.0000 0.27590  0.51300  0.69630  Biso   1.000  H
  H248     1.0000 0.28710  0.43130  0.72720  Biso   1.000  H
  N94      1.0000 0.23499  0.62581  0.18262  Biso   1.000  N
  N95      1.0000 0.33248  0.66181  0.24923  Biso   1.000  N
  C156     1.0000 0.31017  0.57220  0.19254  Biso   1.000  C
  H249     1.0000 0.31770  0.52510  0.17240  Biso   1.000  H
  N96      1.0000 0.37182  0.59165  0.23285  Biso   1.000  N
  C157     1.0000 0.25168  0.68125  0.21920  Biso   1.000  C
  H250     1.0000 0.21180  0.72770  0.22320  Biso   1.000  H
  C158     1.0000 0.38372  0.70815  0.29131  Biso   1.000  C
  H251     1.0000 0.42320  0.67280  0.31550  Biso   1.000  H
  H252     1.0000 0.33070  0.73530  0.31340  Biso   1.000  H
  C159     1.0000 0.45690  0.76834  0.26689  Biso   1.000  C
  H253     1.0000 0.48830  0.79950  0.29640  Biso   1.000  H
  H254     1.0000 0.41650  0.80460  0.24380  Biso   1.000  H
  C160     1.0000 0.24550  0.97990  0.22510  Biso   1.000  C
  H255     1.0000 0.27590  0.01300  0.19630  Biso   1.000  H
  H256     1.0000 0.28710  0.93130  0.22720  Biso   1.000  H
  Cu1      1.0000 0.37500  0.87500  0.87500  Biso   1.000  Cu
  Cu2      1.0000 0.37500  0.37500  0.37500  Biso   1.000  Cu
  Cu3      1.0000 0.87500  0.87500  0.37500  Biso   1.000  Cu
  Cu4      1.0000 0.87500  0.37500  0.87500  Biso   1.000  Cu
  Cu5      1.0000 0.62500  0.12500  0.12500  Biso   1.000  Cu
  Cu6      1.0000 0.62500  0.62500  0.62500  Biso   1.000  Cu
  Cu7      1.0000 0.12500  0.12500  0.62500  Biso   1.000  Cu
  Cu8      1.0000 0.12500  0.62500  0.12500  Biso   1.000  Cu
