data_image0
_cell_length_a       12.8328
_cell_length_b       16.1439
_cell_length_c       16.2738
_cell_angle_alpha    84.645
_cell_angle_beta     79.837
_cell_angle_gamma    69.372

_symmetry_space_group_name_H-M    "P 1"
_symmetry_int_tables_number       1

loop_
  _symmetry_equiv_pos_as_xyz
  'x, y, z'

loop_
  _atom_site_label
  _atom_site_occupancy
  _atom_site_fract_x
  _atom_site_fract_y
  _atom_site_fract_z
  _atom_site_thermal_displace_type
  _atom_site_B_iso_or_equiv
  _atom_site_type_symbol
  Ni1      1.0000 0.43663  0.28215  0.95583  Biso   1.000  Ni
  Ni2      1.0000 0.50235  0.73982  0.44236  Biso   1.000  Ni
  Ni3      1.0000 0.50530  0.76551  0.24832  Biso   1.000  Ni
  O1       1.0000 0.58210  0.82970  0.41030  Biso   1.000  O
  O2       1.0000 0.59130  0.84216  0.27052  Biso   1.000  O
  O3       1.0000 0.70660  0.07160  0.53620  Biso   1.000  O
  O4       1.0000 0.59230  0.17750  0.46301  Biso   1.000  O
  O5       1.0000 0.42240  0.68497  0.22639  Biso   1.000  O
  O6       1.0000 0.48990  0.63080  0.09735  Biso   1.000  O
  O7       1.0000 0.45360  0.31135  0.07724  Biso   1.000  O
  O8       1.0000 0.30680  0.39190  0.01977  Biso   1.000  O
  O9       1.0000 0.36190  0.19153  0.00760  Biso   1.000  O
  O10      1.0000 0.22250  0.22710  0.93200  Biso   1.000  O
  O11      1.0000 0.41500  0.87165  0.18195  Biso   1.000  O
  O12      1.0000 0.41570  0.81917  0.06015  Biso   1.000  O
  O13      1.0000 0.58960  0.66979  0.33379  Biso   1.000  O
  O14      1.0000 0.67840  0.56323  0.24337  Biso   1.000  O
  O15      1.0000 0.72690  0.29160  0.57965  Biso   1.000  O
  O16      1.0000 0.57420  0.35012  0.51682  Biso   1.000  O
  O17      1.0000 0.39070  0.80092  0.35697  Biso   1.000  O
  H1       1.0000 0.33090  0.77630  0.36130  Biso   1.000  H
  H2       1.0000 0.35850  0.86460  0.36250  Biso   1.000  H
  O18      1.0000 0.36840  0.29084  0.84911  Biso   1.000  O
  H3       1.0000 0.32960  0.35250  0.83490  Biso   1.000  H
  H4       1.0000 0.31390  0.26050  0.85820  Biso   1.000  H
  C1       1.0000 0.61000  0.86020  0.33860  Biso   1.000  C
  C2       1.0000 0.67020  0.92560  0.33430  Biso   1.000  C
  C3       1.0000 0.74960  0.92960  0.26720  Biso   1.000  C
  H5       1.0000 0.76580  0.89230  0.22300  Biso   1.000  H
  C4       1.0000 0.80620  0.98920  0.26490  Biso   1.000  C
  H6       1.0000 0.86150  0.98940  0.21960  Biso   1.000  H
  C5       1.0000 0.78340  0.04810  0.32760  Biso   1.000  C
  C6       1.0000 0.70120  0.04430  0.39690  Biso   1.000  C
  C7       1.0000 0.64740  0.98330  0.39930  Biso   1.000  C
  H7       1.0000 0.59440  0.98070  0.44550  Biso   1.000  H
  C8       1.0000 0.66530  0.10420  0.46960  Biso   1.000  C
  C9       1.0000 0.80590  0.19600  0.34040  Biso   1.000  C
  H8       1.0000 0.73030  0.22040  0.36330  Biso   1.000  H
  C10      1.0000 0.85040  0.10780  0.32120  Biso   1.000  C
  C11      1.0000 0.96370  0.07520  0.28970  Biso   1.000  C
  H9       1.0000 0.99720  0.01550  0.27770  Biso   1.000  H
  C12      1.0000 0.02870  0.12910  0.27550  Biso   1.000  C
  H10      1.0000 0.10490  0.10450  0.25420  Biso   1.000  H
  C13      1.0000 0.98400  0.21850  0.29200  Biso   1.000  C
  C14      1.0000 0.87280  0.24860  0.32620  Biso   1.000  C
  H11      1.0000 0.84010  0.30760  0.34070  Biso   1.000  H
  C15      1.0000 0.02650  0.34990  0.31120  Biso   1.000  C
  H12      1.0000 0.96220  0.36710  0.35120  Biso   1.000  H
  C16      1.0000 0.09180  0.40350  0.29160  Biso   1.000  C
  H13      1.0000 0.06720  0.45660  0.31910  Biso   1.000  H
  C17      1.0000 0.23060  0.29800  0.20970  Biso   1.000  C
  H14      1.0000 0.30330  0.27690  0.18020  Biso   1.000  H
  C18      1.0000 0.16720  0.24140  0.22600  Biso   1.000  C
  H15      1.0000 0.19600  0.18390  0.20690  Biso   1.000  H
  C19      1.0000 0.05460  0.27580  0.27390  Biso   1.000  C
  C20      1.0000 0.18740  0.38560  0.23660  Biso   1.000  C
  C21      1.0000 0.25370  0.44720  0.21800  Biso   1.000  C
  C22      1.0000 0.23840  0.51180  0.27480  Biso   1.000  C
  H16      1.0000 0.18710  0.51550  0.32370  Biso   1.000  H
  C23      1.0000 0.29660  0.57000  0.26090  Biso   1.000  C
  H17      1.0000 0.28510  0.61150  0.30070  Biso   1.000  H
  C24      1.0000 0.37230  0.56750  0.18840  Biso   1.000  C
  C25      1.0000 0.39070  0.50320  0.13210  Biso   1.000  C
  H18      1.0000 0.44280  0.49980  0.08380  Biso   1.000  H
  C26      1.0000 0.33340  0.44330  0.14560  Biso   1.000  C
  C27      1.0000 0.43400  0.63260  0.16950  Biso   1.000  C
  C28      1.0000 0.36510  0.37650  0.07830  Biso   1.000  C
  C29      1.0000 0.27670  0.18190  0.98650  Biso   1.000  C
  C30      1.0000 0.24140  0.10710  0.02840  Biso   1.000  C
  C31      1.0000 0.13070  0.11270  0.03770  Biso   1.000  C
  H19      1.0000 0.07770  0.16310  0.01810  Biso   1.000  H
  C32      1.0000 0.09710  0.04350  0.07620  Biso   1.000  C
  H20      1.0000 0.02140  0.04940  0.08350  Biso   1.000  H
  C33      1.0000 0.17420  0.96580  0.10410  Biso   1.000  C
  C34      1.0000 0.28850  0.95960  0.09330  Biso   1.000  C
  C35      1.0000 0.31900  0.03070  0.05640  Biso   1.000  C
  H21      1.0000 0.39400  0.02670  0.05050  Biso   1.000  H
  C36      1.0000 0.38030  0.87560  0.11390  Biso   1.000  C
  C37      1.0000 0.13210  0.89570  0.14540  Biso   1.000  C
  C38      1.0000 0.16240  0.85390  0.22020  Biso   1.000  C
  H22      1.0000 0.21640  0.86640  0.24320  Biso   1.000  H
  C39      1.0000 0.11480  0.79410  0.26170  Biso   1.000  C
  H23      1.0000 0.13660  0.76760  0.31210  Biso   1.000  H
  C40      1.0000 0.03470  0.77300  0.22890  Biso   1.000  C
  C41      1.0000 0.00670  0.81210  0.15170  Biso   1.000  C
  H24      1.0000 0.95620  0.79700  0.12690  Biso   1.000  H
  C42      1.0000 0.05370  0.87270  0.11210  Biso   1.000  C
  H25      1.0000 0.03230  0.89920  0.06160  Biso   1.000  H
  C43      1.0000 0.97930  0.71220  0.27320  Biso   1.000  C
  C44      1.0000 0.95000  0.71150  0.35940  Biso   1.000  C
  H26      1.0000 0.96720  0.74940  0.39000  Biso   1.000  H
  C45      1.0000 0.89560  0.65550  0.40120  Biso   1.000  C
  H27      1.0000 0.87700  0.65670  0.45910  Biso   1.000  H
  C46      1.0000 0.86880  0.59830  0.35810  Biso   1.000  C
  C47      1.0000 0.89680  0.59760  0.27150  Biso   1.000  C
  H28      1.0000 0.87960  0.55930  0.24120  Biso   1.000  H
  C48      1.0000 0.95080  0.65450  0.23060  Biso   1.000  C
  H29      1.0000 0.96830  0.65400  0.17260  Biso   1.000  H
  C49      1.0000 0.81290  0.53650  0.40320  Biso   1.000  C
  C50      1.0000 0.86040  0.48010  0.46640  Biso   1.000  C
  H30      1.0000 0.92580  0.48280  0.48130  Biso   1.000  H
  C51      1.0000 0.81410  0.42000  0.50800  Biso   1.000  C
  H31      1.0000 0.84910  0.38240  0.54950  Biso   1.000  H
  C52      1.0000 0.71590  0.41520  0.48850  Biso   1.000  C
  C53      1.0000 0.66480  0.47320  0.42660  Biso   1.000  C
  H32      1.0000 0.59750  0.47200  0.41380  Biso   1.000  H
  C54      1.0000 0.71270  0.53250  0.38380  Biso   1.000  C
  C55      1.0000 0.65590  0.59210  0.31600  Biso   1.000  C
  C56      1.0000 0.66860  0.34730  0.53190  Biso   1.000  C
  C57      1.0000 0.08730  0.30920  0.33560  Biso   1.000  C
  H33      1.0000 0.06370  0.29670  0.39120  Biso   1.000  H
  C58      1.0000 0.15470  0.36130  0.31670  Biso   1.000  C
  H34      1.0000 0.17840  0.38030  0.36000  Biso   1.000  H
  C59      1.0000 0.13880  0.36380  0.17500  Biso   1.000  C
  H35      1.0000 0.14830  0.38730  0.12100  Biso   1.000  H
  C60      1.0000 0.07730  0.30840  0.19340  Biso   1.000  C
  H36      1.0000 0.04990  0.29210  0.15060  Biso   1.000  H
  Ni4      1.0000 0.56337  0.71785  0.04417  Biso   1.000  Ni
  Ni5      1.0000 0.49765  0.26018  0.55764  Biso   1.000  Ni
  Ni6      1.0000 0.49470  0.23449  0.75168  Biso   1.000  Ni
  O19      1.0000 0.41790  0.17030  0.58970  Biso   1.000  O
  O20      1.0000 0.40870  0.15784  0.72948  Biso   1.000  O
  O21      1.0000 0.29340  0.92840  0.46380  Biso   1.000  O
  O22      1.0000 0.40770  0.82250  0.53699  Biso   1.000  O
  O23      1.0000 0.57760  0.31503  0.77361  Biso   1.000  O
  O24      1.0000 0.51010  0.36920  0.90265  Biso   1.000  O
  O25      1.0000 0.54640  0.68865  0.92276  Biso   1.000  O
  O26      1.0000 0.69320  0.60810  0.98023  Biso   1.000  O
  O27      1.0000 0.63810  0.80847  0.99240  Biso   1.000  O
  O28      1.0000 0.77750  0.77290  0.06800  Biso   1.000  O
  O29      1.0000 0.58500  0.12835  0.81805  Biso   1.000  O
  O30      1.0000 0.58430  0.18083  0.93985  Biso   1.000  O
  O31      1.0000 0.41040  0.33021  0.66621  Biso   1.000  O
  O32      1.0000 0.32160  0.43677  0.75663  Biso   1.000  O
  O33      1.0000 0.27310  0.70840  0.42035  Biso   1.000  O
  O34      1.0000 0.42580  0.64988  0.48318  Biso   1.000  O
  O35      1.0000 0.60930  0.19908  0.64303  Biso   1.000  O
  H37      1.0000 0.66910  0.22370  0.63870  Biso   1.000  H
  H38      1.0000 0.64150  0.13540  0.63750  Biso   1.000  H
  O36      1.0000 0.63160  0.70916  0.15089  Biso   1.000  O
  H39      1.0000 0.67040  0.64750  0.16510  Biso   1.000  H
  H40      1.0000 0.68610  0.73950  0.14180  Biso   1.000  H
  C61      1.0000 0.39000  0.13980  0.66140  Biso   1.000  C
  C62      1.0000 0.32980  0.07440  0.66570  Biso   1.000  C
  C63      1.0000 0.25040  0.07040  0.73280  Biso   1.000  C
  H41      1.0000 0.23420  0.10770  0.77700  Biso   1.000  H
  C64      1.0000 0.19380  0.01080  0.73510  Biso   1.000  C
  H42      1.0000 0.13850  0.01060  0.78040  Biso   1.000  H
  C65      1.0000 0.21660  0.95190  0.67240  Biso   1.000  C
  C66      1.0000 0.29880  0.95570  0.60310  Biso   1.000  C
  C67      1.0000 0.35260  0.01670  0.60070  Biso   1.000  C
  H43      1.0000 0.40560  0.01930  0.55450  Biso   1.000  H
  C68      1.0000 0.33470  0.89580  0.53040  Biso   1.000  C
  C69      1.0000 0.19410  0.80400  0.65960  Biso   1.000  C
  H44      1.0000 0.26970  0.77960  0.63670  Biso   1.000  H
  C70      1.0000 0.14960  0.89220  0.67880  Biso   1.000  C
  C71      1.0000 0.03630  0.92480  0.71030  Biso   1.000  C
  H45      1.0000 0.00280  0.98450  0.72230  Biso   1.000  H
  C72      1.0000 0.97130  0.87090  0.72450  Biso   1.000  C
  H46      1.0000 0.89510  0.89550  0.74580  Biso   1.000  H
  C73      1.0000 0.01600  0.78150  0.70800  Biso   1.000  C
  C74      1.0000 0.12720  0.75140  0.67380  Biso   1.000  C
  H47      1.0000 0.15990  0.69240  0.65930  Biso   1.000  H
  C75      1.0000 0.97350  0.65010  0.68880  Biso   1.000  C
  H48      1.0000 0.03780  0.63290  0.64880  Biso   1.000  H
  C76      1.0000 0.90820  0.59650  0.70840  Biso   1.000  C
  H49      1.0000 0.93280  0.54340  0.68090  Biso   1.000  H
  C77      1.0000 0.76940  0.70200  0.79030  Biso   1.000  C
  H50      1.0000 0.69670  0.72310  0.81980  Biso   1.000  H
  C78      1.0000 0.83280  0.75860  0.77400  Biso   1.000  C
  H51      1.0000 0.80400  0.81610  0.79310  Biso   1.000  H
  C79      1.0000 0.94540  0.72420  0.72610  Biso   1.000  C
  C80      1.0000 0.81260  0.61440  0.76340  Biso   1.000  C
  C81      1.0000 0.74630  0.55280  0.78200  Biso   1.000  C
  C82      1.0000 0.76160  0.48820  0.72520  Biso   1.000  C
  H52      1.0000 0.81290  0.48450  0.67630  Biso   1.000  H
  C83      1.0000 0.70340  0.43000  0.73910  Biso   1.000  C
  H53      1.0000 0.71490  0.38850  0.69930  Biso   1.000  H
  C84      1.0000 0.62770  0.43250  0.81160  Biso   1.000  C
  C85      1.0000 0.60930  0.49680  0.86790  Biso   1.000  C
  H54      1.0000 0.55720  0.50020  0.91620  Biso   1.000  H
  C86      1.0000 0.66660  0.55670  0.85440  Biso   1.000  C
  C87      1.0000 0.56600  0.36740  0.83050  Biso   1.000  C
  C88      1.0000 0.63490  0.62350  0.92170  Biso   1.000  C
  C89      1.0000 0.72330  0.81810  0.01350  Biso   1.000  C
  C90      1.0000 0.75860  0.89290  0.97160  Biso   1.000  C
  C91      1.0000 0.86930  0.88730  0.96230  Biso   1.000  C
  H55      1.0000 0.92230  0.83690  0.98190  Biso   1.000  H
  C92      1.0000 0.90290  0.95650  0.92380  Biso   1.000  C
  H56      1.0000 0.97860  0.95060  0.91650  Biso   1.000  H
  C93      1.0000 0.82580  0.03420  0.89590  Biso   1.000  C
  C94      1.0000 0.71150  0.04040  0.90670  Biso   1.000  C
  C95      1.0000 0.68100  0.96930  0.94360  Biso   1.000  C
  H57      1.0000 0.60600  0.97330  0.94950  Biso   1.000  H
  C96      1.0000 0.61970  0.12440  0.88610  Biso   1.000  C
  C97      1.0000 0.86790  0.10430  0.85460  Biso   1.000  C
  C98      1.0000 0.83760  0.14610  0.77980  Biso   1.000  C
  H58      1.0000 0.78360  0.13360  0.75680  Biso   1.000  H
  C99      1.0000 0.88520  0.20590  0.73830  Biso   1.000  C
  H59      1.0000 0.86340  0.23240  0.68790  Biso   1.000  H
  C100     1.0000 0.96530  0.22700  0.77110  Biso   1.000  C
  C101     1.0000 0.99330  0.18790  0.84830  Biso   1.000  C
  H60      1.0000 0.04380  0.20300  0.87310  Biso   1.000  H
  C102     1.0000 0.94630  0.12730  0.88790  Biso   1.000  C
  H61      1.0000 0.96770  0.10080  0.93840  Biso   1.000  H
  C103     1.0000 0.02070  0.28780  0.72680  Biso   1.000  C
  C104     1.0000 0.05000  0.28850  0.64060  Biso   1.000  C
  H62      1.0000 0.03280  0.25060  0.61000  Biso   1.000  H
  C105     1.0000 0.10440  0.34450  0.59880  Biso   1.000  C
  H63      1.0000 0.12300  0.34330  0.54090  Biso   1.000  H
  C106     1.0000 0.13120  0.40170  0.64190  Biso   1.000  C
  C107     1.0000 0.10320  0.40240  0.72850  Biso   1.000  C
  H64      1.0000 0.12040  0.44070  0.75880  Biso   1.000  H
  C108     1.0000 0.04920  0.34550  0.76940  Biso   1.000  C
  H65      1.0000 0.03170  0.34600  0.82740  Biso   1.000  H
  C109     1.0000 0.18710  0.46350  0.59680  Biso   1.000  C
  C110     1.0000 0.13960  0.51990  0.53360  Biso   1.000  C
  H66      1.0000 0.07420  0.51720  0.51870  Biso   1.000  H
  C111     1.0000 0.18590  0.58000  0.49200  Biso   1.000  C
  H67      1.0000 0.15090  0.61760  0.45050  Biso   1.000  H
  C112     1.0000 0.28410  0.58480  0.51150  Biso   1.000  C
  C113     1.0000 0.33520  0.52680  0.57340  Biso   1.000  C
  H68      1.0000 0.40250  0.52800  0.58620  Biso   1.000  H
  C114     1.0000 0.28730  0.46750  0.61620  Biso   1.000  C
  C115     1.0000 0.34410  0.40790  0.68400  Biso   1.000  C
  C116     1.0000 0.33140  0.65270  0.46810  Biso   1.000  C
  C117     1.0000 0.91270  0.69080  0.66440  Biso   1.000  C
  H69      1.0000 0.93630  0.70330  0.60880  Biso   1.000  H
  C118     1.0000 0.84530  0.63870  0.68330  Biso   1.000  C
  H70      1.0000 0.82160  0.61970  0.64000  Biso   1.000  H
  C119     1.0000 0.86120  0.63620  0.82500  Biso   1.000  C
  H71      1.0000 0.85170  0.61270  0.87900  Biso   1.000  H
  C120     1.0000 0.92270  0.69160  0.80660  Biso   1.000  C
  H72      1.0000 0.95010  0.70790  0.84940  Biso   1.000  H
