data_image0
_cell_length_a       14.741
_cell_length_b       14.741
_cell_length_c       17.135
_cell_angle_alpha    90
_cell_angle_beta     90
_cell_angle_gamma    120

_symmetry_space_group_name_H-M    "P 1"
_symmetry_int_tables_number       1

loop_
  _symmetry_equiv_pos_as_xyz
  'x, y, z'

loop_
  _atom_site_label
  _atom_site_occupancy
  _atom_site_fract_x
  _atom_site_fract_y
  _atom_site_fract_z
  _atom_site_thermal_displace_type
  _atom_site_B_iso_or_equiv
  _atom_site_type_symbol
  O1       1.0000 0.50340  0.15720  0.16620  Biso   1.000  O
  C1       1.0000 0.37400  0.92900  0.14300  Biso   1.000  C
  H1       1.0000 0.37150  0.86650  0.16050  Biso   1.000  H
  H2       1.0000 0.30380  0.91560  0.13350  Biso   1.000  H
  H3       1.0000 0.40620  0.98270  0.18210  Biso   1.000  H
  C2       1.0000 0.59050  0.09700  0.99830  Biso   1.000  C
  C3       1.0000 0.43800  0.96700  0.06680  Biso   1.000  C
  H4       1.0000 0.70300  0.23700  0.04790  Biso   1.000  H
  H5       1.0000 0.75200  0.18970  0.99110  Biso   1.000  H
  H6       1.0000 0.69450  0.24630  0.95740  Biso   1.000  H
  C4       1.0000 0.69500  0.20300  0.99900  Biso   1.000  C
  O2       1.0000 0.84280  0.34620  0.16620  Biso   1.000  O
  C5       1.0000 0.07100  0.44500  0.14300  Biso   1.000  C
  H7       1.0000 0.13350  0.50500  0.16050  Biso   1.000  H
  H8       1.0000 0.08440  0.38820  0.13350  Biso   1.000  H
  H9       1.0000 0.01730  0.42350  0.18210  Biso   1.000  H
  C6       1.0000 0.90300  0.49350  0.99830  Biso   1.000  C
  C7       1.0000 0.03300  0.47100  0.06680  Biso   1.000  C
  H10      1.0000 0.76300  0.46600  0.04790  Biso   1.000  H
  H11      1.0000 0.81030  0.56230  0.99110  Biso   1.000  H
  H12      1.0000 0.75370  0.44820  0.95740  Biso   1.000  H
  C8       1.0000 0.79700  0.49200  0.99900  Biso   1.000  C
  O3       1.0000 0.65380  0.49660  0.16620  Biso   1.000  O
  C9       1.0000 0.55500  0.62600  0.14300  Biso   1.000  C
  H13      1.0000 0.49500  0.62850  0.16050  Biso   1.000  H
  H14      1.0000 0.61180  0.69620  0.13350  Biso   1.000  H
  H15      1.0000 0.57650  0.59380  0.18210  Biso   1.000  H
  C10      1.0000 0.50650  0.40950  0.99830  Biso   1.000  C
  C11      1.0000 0.52900  0.56200  0.06680  Biso   1.000  C
  H16      1.0000 0.53400  0.29700  0.04790  Biso   1.000  H
  H17      1.0000 0.43770  0.24800  0.99110  Biso   1.000  H
  H18      1.0000 0.55180  0.30550  0.95740  Biso   1.000  H
  C12      1.0000 0.50800  0.30500  0.99900  Biso   1.000  C
  O4       1.0000 0.49660  0.84280  0.66620  Biso   1.000  O
  C13      1.0000 0.62600  0.07100  0.64300  Biso   1.000  C
  H19      1.0000 0.62850  0.13350  0.66050  Biso   1.000  H
  H20      1.0000 0.69620  0.08440  0.63350  Biso   1.000  H
  H21      1.0000 0.59380  0.01730  0.68210  Biso   1.000  H
  C14      1.0000 0.40950  0.90300  0.49830  Biso   1.000  C
  C15      1.0000 0.56200  0.03300  0.56680  Biso   1.000  C
  H22      1.0000 0.29700  0.76300  0.54790  Biso   1.000  H
  H23      1.0000 0.24800  0.81030  0.49110  Biso   1.000  H
  H24      1.0000 0.30550  0.75370  0.45740  Biso   1.000  H
  C16      1.0000 0.30500  0.79700  0.49900  Biso   1.000  C
  O5       1.0000 0.15720  0.65380  0.66620  Biso   1.000  O
  C17      1.0000 0.92900  0.55500  0.64300  Biso   1.000  C
  H25      1.0000 0.86650  0.49500  0.66050  Biso   1.000  H
  H26      1.0000 0.91560  0.61180  0.63350  Biso   1.000  H
  H27      1.0000 0.98270  0.57650  0.68210  Biso   1.000  H
  C18      1.0000 0.09700  0.50650  0.49830  Biso   1.000  C
  C19      1.0000 0.96700  0.52900  0.56680  Biso   1.000  C
  H28      1.0000 0.23700  0.53400  0.54790  Biso   1.000  H
  H29      1.0000 0.18970  0.43770  0.49110  Biso   1.000  H
  H30      1.0000 0.24630  0.55180  0.45740  Biso   1.000  H
  C20      1.0000 0.20300  0.50800  0.49900  Biso   1.000  C
  O6       1.0000 0.34620  0.50340  0.66620  Biso   1.000  O
  C21      1.0000 0.44500  0.37400  0.64300  Biso   1.000  C
  H31      1.0000 0.50500  0.37150  0.66050  Biso   1.000  H
  H32      1.0000 0.38820  0.30380  0.63350  Biso   1.000  H
  H33      1.0000 0.42350  0.40620  0.68210  Biso   1.000  H
  C22      1.0000 0.49350  0.59050  0.49830  Biso   1.000  C
  C23      1.0000 0.47100  0.43800  0.56680  Biso   1.000  C
  H34      1.0000 0.46600  0.70300  0.54790  Biso   1.000  H
  H35      1.0000 0.56230  0.75200  0.49110  Biso   1.000  H
  H36      1.0000 0.44820  0.69450  0.45740  Biso   1.000  H
  C24      1.0000 0.49200  0.69500  0.49900  Biso   1.000  C
  O7       1.0000 0.15720  0.50340  0.83380  Biso   1.000  O
  C25      1.0000 0.92900  0.37400  0.85700  Biso   1.000  C
  H37      1.0000 0.86650  0.37150  0.83950  Biso   1.000  H
  H38      1.0000 0.91560  0.30380  0.86650  Biso   1.000  H
  H39      1.0000 0.98270  0.40620  0.81790  Biso   1.000  H
  C26      1.0000 0.09700  0.59050  0.00170  Biso   1.000  C
  C27      1.0000 0.96700  0.43800  0.93320  Biso   1.000  C
  H40      1.0000 0.23700  0.70300  0.95210  Biso   1.000  H
  H41      1.0000 0.18970  0.75200  0.00890  Biso   1.000  H
  H42      1.0000 0.24630  0.69450  0.04260  Biso   1.000  H
  C28      1.0000 0.20300  0.69500  0.00100  Biso   1.000  C
  O8       1.0000 0.34620  0.84280  0.83380  Biso   1.000  O
  C29      1.0000 0.44500  0.07100  0.85700  Biso   1.000  C
  H43      1.0000 0.50500  0.13350  0.83950  Biso   1.000  H
  H44      1.0000 0.38820  0.08440  0.86650  Biso   1.000  H
  H45      1.0000 0.42350  0.01730  0.81790  Biso   1.000  H
  C30      1.0000 0.49350  0.90300  0.00170  Biso   1.000  C
  C31      1.0000 0.47100  0.03300  0.93320  Biso   1.000  C
  H46      1.0000 0.46600  0.76300  0.95210  Biso   1.000  H
  H47      1.0000 0.56230  0.81030  0.00890  Biso   1.000  H
  H48      1.0000 0.44820  0.75370  0.04260  Biso   1.000  H
  C32      1.0000 0.49200  0.79700  0.00100  Biso   1.000  C
  O9       1.0000 0.49660  0.65380  0.83380  Biso   1.000  O
  C33      1.0000 0.62600  0.55500  0.85700  Biso   1.000  C
  H49      1.0000 0.62850  0.49500  0.83950  Biso   1.000  H
  H50      1.0000 0.69620  0.61180  0.86650  Biso   1.000  H
  H51      1.0000 0.59380  0.57650  0.81790  Biso   1.000  H
  C34      1.0000 0.40950  0.50650  0.00170  Biso   1.000  C
  C35      1.0000 0.56200  0.52900  0.93320  Biso   1.000  C
  H52      1.0000 0.29700  0.53400  0.95210  Biso   1.000  H
  H53      1.0000 0.24800  0.43770  0.00890  Biso   1.000  H
  H54      1.0000 0.30550  0.55180  0.04260  Biso   1.000  H
  C36      1.0000 0.30500  0.50800  0.00100  Biso   1.000  C
  O10      1.0000 0.84280  0.49660  0.33380  Biso   1.000  O
  C37      1.0000 0.07100  0.62600  0.35700  Biso   1.000  C
  H55      1.0000 0.13350  0.62850  0.33950  Biso   1.000  H
  H56      1.0000 0.08440  0.69620  0.36650  Biso   1.000  H
  H57      1.0000 0.01730  0.59380  0.31790  Biso   1.000  H
  C38      1.0000 0.90300  0.40950  0.50170  Biso   1.000  C
  C39      1.0000 0.03300  0.56200  0.43320  Biso   1.000  C
  H58      1.0000 0.76300  0.29700  0.45210  Biso   1.000  H
  H59      1.0000 0.81030  0.24800  0.50890  Biso   1.000  H
  H60      1.0000 0.75370  0.30550  0.54260  Biso   1.000  H
  C40      1.0000 0.79700  0.30500  0.50100  Biso   1.000  C
  O11      1.0000 0.65380  0.15720  0.33380  Biso   1.000  O
  C41      1.0000 0.55500  0.92900  0.35700  Biso   1.000  C
  H61      1.0000 0.49500  0.86650  0.33950  Biso   1.000  H
  H62      1.0000 0.61180  0.91560  0.36650  Biso   1.000  H
  H63      1.0000 0.57650  0.98270  0.31790  Biso   1.000  H
  C42      1.0000 0.50650  0.09700  0.50170  Biso   1.000  C
  C43      1.0000 0.52900  0.96700  0.43320  Biso   1.000  C
  H64      1.0000 0.53400  0.23700  0.45210  Biso   1.000  H
  H65      1.0000 0.43770  0.18970  0.50890  Biso   1.000  H
  H66      1.0000 0.55180  0.24630  0.54260  Biso   1.000  H
  C44      1.0000 0.50800  0.20300  0.50100  Biso   1.000  C
  O12      1.0000 0.50340  0.34620  0.33380  Biso   1.000  O
  C45      1.0000 0.37400  0.44500  0.35700  Biso   1.000  C
  H67      1.0000 0.37150  0.50500  0.33950  Biso   1.000  H
  H68      1.0000 0.30380  0.38820  0.36650  Biso   1.000  H
  H69      1.0000 0.40620  0.42350  0.31790  Biso   1.000  H
  C46      1.0000 0.59050  0.49350  0.50170  Biso   1.000  C
  C47      1.0000 0.43800  0.47100  0.43320  Biso   1.000  C
  H70      1.0000 0.70300  0.46600  0.45210  Biso   1.000  H
  H71      1.0000 0.75200  0.56230  0.50890  Biso   1.000  H
  H72      1.0000 0.69450  0.44820  0.54260  Biso   1.000  H
  C48      1.0000 0.69500  0.49200  0.50100  Biso   1.000  C
  O13      1.0000 0.49660  0.84280  0.83380  Biso   1.000  O
  C49      1.0000 0.62600  0.07100  0.85700  Biso   1.000  C
  H73      1.0000 0.62850  0.13350  0.83950  Biso   1.000  H
  H74      1.0000 0.69620  0.08440  0.86650  Biso   1.000  H
  H75      1.0000 0.59380  0.01730  0.81790  Biso   1.000  H
  C50      1.0000 0.40950  0.90300  0.00170  Biso   1.000  C
  C51      1.0000 0.56200  0.03300  0.93320  Biso   1.000  C
  H76      1.0000 0.29700  0.76300  0.95210  Biso   1.000  H
  H77      1.0000 0.24800  0.81030  0.00890  Biso   1.000  H
  H78      1.0000 0.30550  0.75370  0.04260  Biso   1.000  H
  C52      1.0000 0.30500  0.79700  0.00100  Biso   1.000  C
  O14      1.0000 0.15720  0.65380  0.83380  Biso   1.000  O
  C53      1.0000 0.92900  0.55500  0.85700  Biso   1.000  C
  H79      1.0000 0.86650  0.49500  0.83950  Biso   1.000  H
  H80      1.0000 0.91560  0.61180  0.86650  Biso   1.000  H
  H81      1.0000 0.98270  0.57650  0.81790  Biso   1.000  H
  C54      1.0000 0.09700  0.50650  0.00170  Biso   1.000  C
  C55      1.0000 0.96700  0.52900  0.93320  Biso   1.000  C
  H82      1.0000 0.23700  0.53400  0.95210  Biso   1.000  H
  H83      1.0000 0.18970  0.43770  0.00890  Biso   1.000  H
  H84      1.0000 0.24630  0.55180  0.04260  Biso   1.000  H
  C56      1.0000 0.20300  0.50800  0.00100  Biso   1.000  C
  O15      1.0000 0.34620  0.50340  0.83380  Biso   1.000  O
  C57      1.0000 0.44500  0.37400  0.85700  Biso   1.000  C
  H85      1.0000 0.50500  0.37150  0.83950  Biso   1.000  H
  H86      1.0000 0.38820  0.30380  0.86650  Biso   1.000  H
  H87      1.0000 0.42350  0.40620  0.81790  Biso   1.000  H
  C58      1.0000 0.49350  0.59050  0.00170  Biso   1.000  C
  C59      1.0000 0.47100  0.43800  0.93320  Biso   1.000  C
  H88      1.0000 0.46600  0.70300  0.95210  Biso   1.000  H
  H89      1.0000 0.56230  0.75200  0.00890  Biso   1.000  H
  H90      1.0000 0.44820  0.69450  0.04260  Biso   1.000  H
  C60      1.0000 0.49200  0.69500  0.00100  Biso   1.000  C
  O16      1.0000 0.50340  0.15720  0.33380  Biso   1.000  O
  C61      1.0000 0.37400  0.92900  0.35700  Biso   1.000  C
  H91      1.0000 0.37150  0.86650  0.33950  Biso   1.000  H
  H92      1.0000 0.30380  0.91560  0.36650  Biso   1.000  H
  H93      1.0000 0.40620  0.98270  0.31790  Biso   1.000  H
  C62      1.0000 0.59050  0.09700  0.50170  Biso   1.000  C
  C63      1.0000 0.43800  0.96700  0.43320  Biso   1.000  C
  H94      1.0000 0.70300  0.23700  0.45210  Biso   1.000  H
  H95      1.0000 0.75200  0.18970  0.50890  Biso   1.000  H
  H96      1.0000 0.69450  0.24630  0.54260  Biso   1.000  H
  C64      1.0000 0.69500  0.20300  0.50100  Biso   1.000  C
  O17      1.0000 0.84280  0.34620  0.33380  Biso   1.000  O
  C65      1.0000 0.07100  0.44500  0.35700  Biso   1.000  C
  H97      1.0000 0.13350  0.50500  0.33950  Biso   1.000  H
  H98      1.0000 0.08440  0.38820  0.36650  Biso   1.000  H
  H99      1.0000 0.01730  0.42350  0.31790  Biso   1.000  H
  C66      1.0000 0.90300  0.49350  0.50170  Biso   1.000  C
  C67      1.0000 0.03300  0.47100  0.43320  Biso   1.000  C
  H100     1.0000 0.76300  0.46600  0.45210  Biso   1.000  H
  H101     1.0000 0.81030  0.56230  0.50890  Biso   1.000  H
  H102     1.0000 0.75370  0.44820  0.54260  Biso   1.000  H
  C68      1.0000 0.79700  0.49200  0.50100  Biso   1.000  C
  O18      1.0000 0.65380  0.49660  0.33380  Biso   1.000  O
  C69      1.0000 0.55500  0.62600  0.35700  Biso   1.000  C
  H103     1.0000 0.49500  0.62850  0.33950  Biso   1.000  H
  H104     1.0000 0.61180  0.69620  0.36650  Biso   1.000  H
  H105     1.0000 0.57650  0.59380  0.31790  Biso   1.000  H
  C70      1.0000 0.50650  0.40950  0.50170  Biso   1.000  C
  C71      1.0000 0.52900  0.56200  0.43320  Biso   1.000  C
  H106     1.0000 0.53400  0.29700  0.45210  Biso   1.000  H
  H107     1.0000 0.43770  0.24800  0.50890  Biso   1.000  H
  H108     1.0000 0.55180  0.30550  0.54260  Biso   1.000  H
  C72      1.0000 0.50800  0.30500  0.50100  Biso   1.000  C
  O19      1.0000 0.84280  0.49660  0.16620  Biso   1.000  O
  C73      1.0000 0.07100  0.62600  0.14300  Biso   1.000  C
  H109     1.0000 0.13350  0.62850  0.16050  Biso   1.000  H
  H110     1.0000 0.08440  0.69620  0.13350  Biso   1.000  H
  H111     1.0000 0.01730  0.59380  0.18210  Biso   1.000  H
  C74      1.0000 0.90300  0.40950  0.99830  Biso   1.000  C
  C75      1.0000 0.03300  0.56200  0.06680  Biso   1.000  C
  H112     1.0000 0.76300  0.29700  0.04790  Biso   1.000  H
  H113     1.0000 0.81030  0.24800  0.99110  Biso   1.000  H
  H114     1.0000 0.75370  0.30550  0.95740  Biso   1.000  H
  C76      1.0000 0.79700  0.30500  0.99900  Biso   1.000  C
  O20      1.0000 0.65380  0.15720  0.16620  Biso   1.000  O
  C77      1.0000 0.55500  0.92900  0.14300  Biso   1.000  C
  H115     1.0000 0.49500  0.86650  0.16050  Biso   1.000  H
  H116     1.0000 0.61180  0.91560  0.13350  Biso   1.000  H
  H117     1.0000 0.57650  0.98270  0.18210  Biso   1.000  H
  C78      1.0000 0.50650  0.09700  0.99830  Biso   1.000  C
  C79      1.0000 0.52900  0.96700  0.06680  Biso   1.000  C
  H118     1.0000 0.53400  0.23700  0.04790  Biso   1.000  H
  H119     1.0000 0.43770  0.18970  0.99110  Biso   1.000  H
  H120     1.0000 0.55180  0.24630  0.95740  Biso   1.000  H
  C80      1.0000 0.50800  0.20300  0.99900  Biso   1.000  C
  O21      1.0000 0.50340  0.34620  0.16620  Biso   1.000  O
  C81      1.0000 0.37400  0.44500  0.14300  Biso   1.000  C
  H121     1.0000 0.37150  0.50500  0.16050  Biso   1.000  H
  H122     1.0000 0.30380  0.38820  0.13350  Biso   1.000  H
  H123     1.0000 0.40620  0.42350  0.18210  Biso   1.000  H
  C82      1.0000 0.59050  0.49350  0.99830  Biso   1.000  C
  C83      1.0000 0.43800  0.47100  0.06680  Biso   1.000  C
  H124     1.0000 0.70300  0.46600  0.04790  Biso   1.000  H
  H125     1.0000 0.75200  0.56230  0.99110  Biso   1.000  H
  H126     1.0000 0.69450  0.44820  0.95740  Biso   1.000  H
  C84      1.0000 0.69500  0.49200  0.99900  Biso   1.000  C
  O22      1.0000 0.15720  0.50340  0.66620  Biso   1.000  O
  C85      1.0000 0.92900  0.37400  0.64300  Biso   1.000  C
  H127     1.0000 0.86650  0.37150  0.66050  Biso   1.000  H
  H128     1.0000 0.91560  0.30380  0.63350  Biso   1.000  H
  H129     1.0000 0.98270  0.40620  0.68210  Biso   1.000  H
  C86      1.0000 0.09700  0.59050  0.49830  Biso   1.000  C
  C87      1.0000 0.96700  0.43800  0.56680  Biso   1.000  C
  H130     1.0000 0.23700  0.70300  0.54790  Biso   1.000  H
  H131     1.0000 0.18970  0.75200  0.49110  Biso   1.000  H
  H132     1.0000 0.24630  0.69450  0.45740  Biso   1.000  H
  C88      1.0000 0.20300  0.69500  0.49900  Biso   1.000  C
  O23      1.0000 0.34620  0.84280  0.66620  Biso   1.000  O
  C89      1.0000 0.44500  0.07100  0.64300  Biso   1.000  C
  H133     1.0000 0.50500  0.13350  0.66050  Biso   1.000  H
  H134     1.0000 0.38820  0.08440  0.63350  Biso   1.000  H
  H135     1.0000 0.42350  0.01730  0.68210  Biso   1.000  H
  C90      1.0000 0.49350  0.90300  0.49830  Biso   1.000  C
  C91      1.0000 0.47100  0.03300  0.56680  Biso   1.000  C
  H136     1.0000 0.46600  0.76300  0.54790  Biso   1.000  H
  H137     1.0000 0.56230  0.81030  0.49110  Biso   1.000  H
  H138     1.0000 0.44820  0.75370  0.45740  Biso   1.000  H
  C92      1.0000 0.49200  0.79700  0.49900  Biso   1.000  C
  O24      1.0000 0.49660  0.65380  0.66620  Biso   1.000  O
  C93      1.0000 0.62600  0.55500  0.64300  Biso   1.000  C
  H139     1.0000 0.62850  0.49500  0.66050  Biso   1.000  H
  H140     1.0000 0.69620  0.61180  0.63350  Biso   1.000  H
  H141     1.0000 0.59380  0.57650  0.68210  Biso   1.000  H
  C94      1.0000 0.40950  0.50650  0.49830  Biso   1.000  C
  C95      1.0000 0.56200  0.52900  0.56680  Biso   1.000  C
  H142     1.0000 0.29700  0.53400  0.54790  Biso   1.000  H
  H143     1.0000 0.24800  0.43770  0.49110  Biso   1.000  H
  H144     1.0000 0.30550  0.55180  0.45740  Biso   1.000  H
  C96      1.0000 0.30500  0.50800  0.49900  Biso   1.000  C
  Fe1      1.0000 0.51660  0.25830  0.25000  Biso   1.000  Fe
  Fe2      1.0000 0.74170  0.25830  0.25000  Biso   1.000  Fe
  Fe3      1.0000 0.74170  0.48340  0.25000  Biso   1.000  Fe
  Fe4      1.0000 0.48340  0.74170  0.75000  Biso   1.000  Fe
  Fe5      1.0000 0.25830  0.74170  0.75000  Biso   1.000  Fe
  Fe6      1.0000 0.25830  0.51660  0.75000  Biso   1.000  Fe
  O25      1.0000 0.66667  0.33333  0.25000  Biso   1.000  O
  O26      1.0000 0.33333  0.66667  0.75000  Biso   1.000  O
  C97      1.0000 0.56545  0.13090  0.13920  Biso   1.000  C
  C98      1.0000 0.53150  0.06300  0.06570  Biso   1.000  C
  C99      1.0000 0.86910  0.43455  0.13920  Biso   1.000  C
  C100     1.0000 0.93700  0.46850  0.06570  Biso   1.000  C
  C101     1.0000 0.56545  0.43455  0.13920  Biso   1.000  C
  C102     1.0000 0.53150  0.46850  0.06570  Biso   1.000  C
  C103     1.0000 0.43455  0.86910  0.63920  Biso   1.000  C
  C104     1.0000 0.46850  0.93700  0.56570  Biso   1.000  C
  C105     1.0000 0.13090  0.56545  0.63920  Biso   1.000  C
  C106     1.0000 0.06300  0.53150  0.56570  Biso   1.000  C
  C107     1.0000 0.43455  0.56545  0.63920  Biso   1.000  C
  C108     1.0000 0.46850  0.53150  0.56570  Biso   1.000  C
  C109     1.0000 0.13090  0.56545  0.86080  Biso   1.000  C
  C110     1.0000 0.06300  0.53150  0.93430  Biso   1.000  C
  C111     1.0000 0.43455  0.86910  0.86080  Biso   1.000  C
  C112     1.0000 0.46850  0.93700  0.93430  Biso   1.000  C
  C113     1.0000 0.43455  0.56545  0.86080  Biso   1.000  C
  C114     1.0000 0.46850  0.53150  0.93430  Biso   1.000  C
  C115     1.0000 0.86910  0.43455  0.36080  Biso   1.000  C
  C116     1.0000 0.93700  0.46850  0.43430  Biso   1.000  C
  C117     1.0000 0.56545  0.13090  0.36080  Biso   1.000  C
  C118     1.0000 0.53150  0.06300  0.43430  Biso   1.000  C
  C119     1.0000 0.56545  0.43455  0.36080  Biso   1.000  C
  C120     1.0000 0.53150  0.46850  0.43430  Biso   1.000  C
