data_image0
_cell_length_a       11.2644
_cell_length_b       12.7025
_cell_length_c       13.2365
_cell_angle_alpha    97.922
_cell_angle_beta     112.939
_cell_angle_gamma    109.088

_symmetry_space_group_name_H-M    "P 1"
_symmetry_int_tables_number       1

loop_
  _symmetry_equiv_pos_as_xyz
  'x, y, z'

loop_
  _atom_site_label
  _atom_site_occupancy
  _atom_site_fract_x
  _atom_site_fract_y
  _atom_site_fract_z
  _atom_site_thermal_displace_type
  _atom_site_B_iso_or_equiv
  _atom_site_type_symbol
  Mn1      1.0000 0.89498  0.06990  0.22334  Biso   1.000  Mn
  C1       1.0000 0.97110  0.22880  0.12670  Biso   1.000  C
  C2       1.0000 0.98070  0.31800  0.06250  Biso   1.000  C
  C3       1.0000 0.00570  0.42830  0.11520  Biso   1.000  C
  H1       1.0000 0.02150  0.44820  0.19100  Biso   1.000  H
  C4       1.0000 0.00820  0.51340  0.05610  Biso   1.000  C
  C5       1.0000 0.03130  0.63000  0.10520  Biso   1.000  C
  C6       1.0000 0.96020  0.28690  0.94950  Biso   1.000  C
  H2       1.0000 0.94120  0.21110  0.91260  Biso   1.000  H
  C7       1.0000 0.16560  0.03140  0.26690  Biso   1.000  C
  C8       1.0000 0.29390  0.00660  0.33360  Biso   1.000  C
  C9       1.0000 0.34570  0.04030  0.45160  Biso   1.000  C
  H3       1.0000 0.30060  0.07280  0.48370  Biso   1.000  H
  C10      1.0000 0.52620  0.06080  0.64630  Biso   1.000  C
  C11      1.0000 0.46430  0.02620  0.52290  Biso   1.000  C
  C12      1.0000 0.36020  0.95550  0.28380  Biso   1.000  C
  H4       1.0000 0.32650  0.93350  0.20440  Biso   1.000  H
  C13      1.0000 0.29110  0.03910  0.38310  Biso   1.000  C
  C14      1.0000 0.32850  0.08920  0.49710  Biso   1.000  C
  H5       1.0000 0.27580  0.12430  0.51540  Biso   1.000  H
  C15      1.0000 0.44460  0.08600  0.58260  Biso   1.000  C
  C16      1.0000 0.51920  0.02580  0.55660  Biso   1.000  C
  C17      1.0000 0.35940  0.98160  0.35290  Biso   1.000  C
  H6       1.0000 0.33000  0.94700  0.27560  Biso   1.000  H
  C18      1.0000 0.78160  0.82320  0.05820  Biso   1.000  C
  C19      1.0000 0.68140  0.69570  0.02400  Biso   1.000  C
  C20      1.0000 0.60750  0.65920  0.08030  Biso   1.000  C
  H7       1.0000 0.62020  0.71290  0.14320  Biso   1.000  H
  C21      1.0000 0.51030  0.54100  0.04690  Biso   1.000  C
  C22      1.0000 0.66000  0.61650  0.92890  Biso   1.000  C
  H8       1.0000 0.71110  0.64040  0.88920  Biso   1.000  H
  C23      1.0000 0.43590  0.49640  0.10650  Biso   1.000  C
  O1       1.0000 0.99440  0.26020  0.22790  Biso   1.000  O
  O2       1.0000 0.93140  0.12250  0.07240  Biso   1.000  O
  O3       1.0000 0.09860  0.07080  0.31040  Biso   1.000  O
  O4       1.0000 0.13840  0.00410  0.16800  Biso   1.000  O
  O5       1.0000 0.79960  0.88930  0.14630  Biso   1.000  O
  O6       1.0000 0.83370  0.84990  0.99280  Biso   1.000  O
  N1       1.0000 0.04560  0.66510  0.22100  Biso   1.000  N
  O7       1.0000 0.95050  0.59260  0.23910  Biso   1.000  O
  O8       1.0000 0.12890  0.75500  0.28370  Biso   1.000  O
  N2       1.0000 0.47360  0.13000  0.70260  Biso   1.000  N
  O9       1.0000 0.42210  0.18880  0.66660  Biso   1.000  O
  O10      1.0000 0.46770  0.09920  0.78930  Biso   1.000  O
  O11      1.0000 0.37600  0.12460  0.71350  Biso   1.000  O
  O12      1.0000 0.60230  0.20350  0.77390  Biso   1.000  O
  N3       1.0000 0.49290  0.56790  0.23400  Biso   1.000  N
  O13      1.0000 0.61800  0.63370  0.29720  Biso   1.000  O
  O14      1.0000 0.39950  0.55390  0.26240  Biso   1.000  O
  S1       1.0000 0.92010  0.17790  0.49300  Biso   1.000  S
  O15      1.0000 0.86410  0.09330  0.37830  Biso   1.000  O
  C24      1.0000 0.99100  0.32130  0.48390  Biso   1.000  C
  H9       1.0000 0.91650  0.33490  0.42830  Biso   1.000  H
  H10      1.0000 0.06320  0.32910  0.46070  Biso   1.000  H
  H11      1.0000 0.03070  0.37740  0.55780  Biso   1.000  H
  C25      1.0000 0.07400  0.17600  0.60000  Biso   1.000  C
  H12      1.0000 0.05110  0.10150  0.61360  Biso   1.000  H
  H13      1.0000 0.11100  0.23680  0.66960  Biso   1.000  H
  H14      1.0000 0.14490  0.18860  0.57340  Biso   1.000  H
  C26      1.0000 0.05800  0.32400  0.50660  Biso   1.000  C
  C27      1.0000 0.05900  0.14900  0.59500  Biso   1.000  C
  H15      1.0000 0.05120  0.35500  0.44350  Biso   1.000  H
  H16      1.0000 0.13940  0.37870  0.57610  Biso   1.000  H
  H17      1.0000 0.97380  0.31010  0.51530  Biso   1.000  H
  H18      1.0000 0.14010  0.19600  0.66770  Biso   1.000  H
  H19      1.0000 0.05780  0.07230  0.57540  Biso   1.000  H
  H20      1.0000 0.97420  0.14180  0.59870  Biso   1.000  H
  N4       1.0000 0.64630  0.41930  0.86610  Biso   1.000  N
  O16      1.0000 0.65960  0.33530  0.89790  Biso   1.000  O
  O17      1.0000 0.66800  0.44110  0.79000  Biso   1.000  O
  O18      1.0000 0.93440  0.12310  0.38910  Biso   1.000  O
  O19      1.0000 0.02400  0.74390  0.24990  Biso   1.000  O
  O20      1.0000 0.14400  0.64730  0.30870  Biso   1.000  O
  S2       1.0000 0.07140  0.21640  0.48420  Biso   1.000  S
  Mn2      1.0000 0.10502  0.93010  0.77666  Biso   1.000  Mn
  C28      1.0000 0.02890  0.77120  0.87330  Biso   1.000  C
  C29      1.0000 0.01930  0.68200  0.93750  Biso   1.000  C
  C30      1.0000 0.99430  0.57170  0.88480  Biso   1.000  C
  H21      1.0000 0.97850  0.55180  0.80900  Biso   1.000  H
  C31      1.0000 0.99180  0.48660  0.94390  Biso   1.000  C
  C32      1.0000 0.96870  0.37000  0.89480  Biso   1.000  C
  C33      1.0000 0.03980  0.71310  0.05050  Biso   1.000  C
  H22      1.0000 0.05880  0.78890  0.08740  Biso   1.000  H
  C34      1.0000 0.83440  0.96860  0.73310  Biso   1.000  C
  C35      1.0000 0.70610  0.99340  0.66640  Biso   1.000  C
  C36      1.0000 0.65430  0.95970  0.54840  Biso   1.000  C
  H23      1.0000 0.69940  0.92720  0.51630  Biso   1.000  H
  C37      1.0000 0.47380  0.93920  0.35370  Biso   1.000  C
  C38      1.0000 0.53570  0.97380  0.47710  Biso   1.000  C
  C39      1.0000 0.63980  0.04450  0.71620  Biso   1.000  C
  H24      1.0000 0.67350  0.06650  0.79560  Biso   1.000  H
  C40      1.0000 0.70890  0.96090  0.61690  Biso   1.000  C
  C41      1.0000 0.67150  0.91080  0.50290  Biso   1.000  C
  H25      1.0000 0.72420  0.87570  0.48460  Biso   1.000  H
  C42      1.0000 0.55540  0.91400  0.41740  Biso   1.000  C
  C43      1.0000 0.48080  0.97420  0.44340  Biso   1.000  C
  C44      1.0000 0.64060  0.01840  0.64710  Biso   1.000  C
  H26      1.0000 0.67000  0.05300  0.72440  Biso   1.000  H
  C45      1.0000 0.21840  0.17680  0.94180  Biso   1.000  C
  C46      1.0000 0.31860  0.30430  0.97600  Biso   1.000  C
  C47      1.0000 0.39250  0.34080  0.91970  Biso   1.000  C
  H27      1.0000 0.37980  0.28710  0.85680  Biso   1.000  H
  C48      1.0000 0.48970  0.45900  0.95310  Biso   1.000  C
  C49      1.0000 0.34000  0.38350  0.07110  Biso   1.000  C
  H28      1.0000 0.28890  0.35960  0.11080  Biso   1.000  H
  C50      1.0000 0.56410  0.50360  0.89350  Biso   1.000  C
  O21      1.0000 0.00560  0.73980  0.77210  Biso   1.000  O
  O22      1.0000 0.06860  0.87750  0.92760  Biso   1.000  O
  O23      1.0000 0.90140  0.92920  0.68960  Biso   1.000  O
  O24      1.0000 0.86160  0.99590  0.83200  Biso   1.000  O
  O25      1.0000 0.20040  0.11070  0.85370  Biso   1.000  O
  O26      1.0000 0.16630  0.15010  0.00720  Biso   1.000  O
  N5       1.0000 0.95440  0.33490  0.77900  Biso   1.000  N
  O27      1.0000 0.04950  0.40740  0.76090  Biso   1.000  O
  O28      1.0000 0.87110  0.24500  0.71630  Biso   1.000  O
  N6       1.0000 0.52640  0.87000  0.29740  Biso   1.000  N
  O29      1.0000 0.57790  0.81120  0.33340  Biso   1.000  O
  O30      1.0000 0.53230  0.90080  0.21070  Biso   1.000  O
  O31      1.0000 0.62400  0.87540  0.28650  Biso   1.000  O
  O32      1.0000 0.39770  0.79650  0.22610  Biso   1.000  O
  N7       1.0000 0.50710  0.43210  0.76600  Biso   1.000  N
  O33      1.0000 0.38200  0.36630  0.70280  Biso   1.000  O
  O34      1.0000 0.60050  0.44610  0.73760  Biso   1.000  O
  S3       1.0000 0.07990  0.82210  0.50700  Biso   1.000  S
  O35      1.0000 0.13590  0.90670  0.62170  Biso   1.000  O
  C51      1.0000 0.00900  0.67870  0.51610  Biso   1.000  C
  H29      1.0000 0.08350  0.66510  0.57170  Biso   1.000  H
  H30      1.0000 0.93680  0.67090  0.53930  Biso   1.000  H
  H31      1.0000 0.96930  0.62260  0.44220  Biso   1.000  H
  C52      1.0000 0.92600  0.82400  0.40000  Biso   1.000  C
  H32      1.0000 0.94890  0.89850  0.38640  Biso   1.000  H
  H33      1.0000 0.88900  0.76320  0.33040  Biso   1.000  H
  H34      1.0000 0.85510  0.81140  0.42660  Biso   1.000  H
  C53      1.0000 0.94200  0.67600  0.49340  Biso   1.000  C
  C54      1.0000 0.94100  0.85100  0.40500  Biso   1.000  C
  H35      1.0000 0.94880  0.64500  0.55650  Biso   1.000  H
  H36      1.0000 0.86060  0.62130  0.42390  Biso   1.000  H
  H37      1.0000 0.02620  0.68990  0.48470  Biso   1.000  H
  H38      1.0000 0.85990  0.80400  0.33230  Biso   1.000  H
  H39      1.0000 0.94220  0.92770  0.42460  Biso   1.000  H
  H40      1.0000 0.02580  0.85820  0.40130  Biso   1.000  H
  N8       1.0000 0.35370  0.58070  0.13390  Biso   1.000  N
  O36      1.0000 0.34040  0.66470  0.10210  Biso   1.000  O
  O37      1.0000 0.33200  0.55890  0.21000  Biso   1.000  O
  O38      1.0000 0.06560  0.87690  0.61090  Biso   1.000  O
  O39      1.0000 0.97600  0.25610  0.75010  Biso   1.000  O
  O40      1.0000 0.85600  0.35270  0.69130  Biso   1.000  O
  S4       1.0000 0.92860  0.78360  0.51580  Biso   1.000  S
  Mn3      1.0000 0.00000  0.00000  0.00000  Biso   1.000  Mn
