data_image0
_cell_length_a       24.4118
_cell_length_b       24.4118
_cell_length_c       14.6499
_cell_angle_alpha    90
_cell_angle_beta     90
_cell_angle_gamma    90

_symmetry_space_group_name_H-M    "P 1"
_symmetry_int_tables_number       1

loop_
  _symmetry_equiv_pos_as_xyz
  'x, y, z'

loop_
  _atom_site_label
  _atom_site_occupancy
  _atom_site_fract_x
  _atom_site_fract_y
  _atom_site_fract_z
  _atom_site_thermal_displace_type
  _atom_site_B_iso_or_equiv
  _atom_site_type_symbol
  F1       1.0000 0.29710  0.32760  0.32090  Biso   1.000  F
  F2       1.0000 0.24890  0.28670  0.42470  Biso   1.000  F
  F3       1.0000 0.23160  0.37060  0.39050  Biso   1.000  F
  O1       1.0000 0.05508  0.35270  0.09020  Biso   1.000  O
  O2       1.0000 0.10170  0.41649  0.16770  Biso   1.000  O
  C1       1.0000 0.20460  0.24710  0.23470  Biso   1.000  C
  C2       1.0000 0.20310  0.29910  0.27420  Biso   1.000  C
  C3       1.0000 0.16630  0.33650  0.24540  Biso   1.000  C
  H1       1.0000 0.16540  0.37150  0.27350  Biso   1.000  H
  C4       1.0000 0.13050  0.32510  0.17700  Biso   1.000  C
  C5       1.0000 0.12930  0.27330  0.14100  Biso   1.000  C
  H2       1.0000 0.10240  0.26380  0.09680  Biso   1.000  H
  C6       1.0000 0.16650  0.23560  0.16860  Biso   1.000  C
  H3       1.0000 0.16630  0.20030  0.14140  Biso   1.000  H
  C7       1.0000 0.09230  0.36800  0.14220  Biso   1.000  C
  C8       1.0000 0.24570  0.32270  0.35450  Biso   1.000  C
  F4       1.0000 0.15510  0.13480  0.17170  Biso   1.000  F
  F5       1.0000 0.20990  0.16500  0.06850  Biso   1.000  F
  F6       1.0000 0.12270  0.17390  0.04920  Biso   1.000  F
  H4       1.0000 0.22810  0.30820  0.32160  Biso   1.000  H
  C9       1.0000 0.16140  0.17660  0.11120  Biso   1.000  C
  F7       1.0000 0.70290  0.67240  0.32090  Biso   1.000  F
  F8       1.0000 0.75110  0.71330  0.42470  Biso   1.000  F
  F9       1.0000 0.76840  0.62940  0.39050  Biso   1.000  F
  O3       1.0000 0.94492  0.64730  0.09020  Biso   1.000  O
  O4       1.0000 0.89830  0.58351  0.16770  Biso   1.000  O
  C10      1.0000 0.79540  0.75290  0.23470  Biso   1.000  C
  C11      1.0000 0.79690  0.70090  0.27420  Biso   1.000  C
  C12      1.0000 0.83370  0.66350  0.24540  Biso   1.000  C
  H5       1.0000 0.83460  0.62850  0.27350  Biso   1.000  H
  C13      1.0000 0.86950  0.67490  0.17700  Biso   1.000  C
  C14      1.0000 0.87070  0.72670  0.14100  Biso   1.000  C
  H6       1.0000 0.89760  0.73620  0.09680  Biso   1.000  H
  C15      1.0000 0.83350  0.76440  0.16860  Biso   1.000  C
  H7       1.0000 0.83370  0.79970  0.14140  Biso   1.000  H
  C16      1.0000 0.90770  0.63200  0.14220  Biso   1.000  C
  C17      1.0000 0.75430  0.67730  0.35450  Biso   1.000  C
  F10      1.0000 0.84490  0.86520  0.17170  Biso   1.000  F
  F11      1.0000 0.79010  0.83500  0.06850  Biso   1.000  F
  F12      1.0000 0.87730  0.82610  0.04920  Biso   1.000  F
  H8       1.0000 0.77190  0.69180  0.32160  Biso   1.000  H
  C18      1.0000 0.83860  0.82340  0.11120  Biso   1.000  C
  F13      1.0000 0.67240  0.29710  0.82090  Biso   1.000  F
  F14      1.0000 0.71330  0.24890  0.92470  Biso   1.000  F
  F15      1.0000 0.62940  0.23160  0.89050  Biso   1.000  F
  O5       1.0000 0.64730  0.05508  0.59020  Biso   1.000  O
  O6       1.0000 0.58351  0.10170  0.66770  Biso   1.000  O
  C19      1.0000 0.75290  0.20460  0.73470  Biso   1.000  C
  C20      1.0000 0.70090  0.20310  0.77420  Biso   1.000  C
  C21      1.0000 0.66350  0.16630  0.74540  Biso   1.000  C
  H9       1.0000 0.62850  0.16540  0.77350  Biso   1.000  H
  C22      1.0000 0.67490  0.13050  0.67700  Biso   1.000  C
  C23      1.0000 0.72670  0.12930  0.64100  Biso   1.000  C
  H10      1.0000 0.73620  0.10240  0.59680  Biso   1.000  H
  C24      1.0000 0.76440  0.16650  0.66860  Biso   1.000  C
  H11      1.0000 0.79970  0.16630  0.64140  Biso   1.000  H
  C25      1.0000 0.63200  0.09230  0.64220  Biso   1.000  C
  C26      1.0000 0.67730  0.24570  0.85450  Biso   1.000  C
  F16      1.0000 0.86520  0.15510  0.67170  Biso   1.000  F
  F17      1.0000 0.83500  0.20990  0.56850  Biso   1.000  F
  F18      1.0000 0.82610  0.12270  0.54920  Biso   1.000  F
  H12      1.0000 0.69180  0.22810  0.82160  Biso   1.000  H
  C27      1.0000 0.82340  0.16140  0.61120  Biso   1.000  C
  F19      1.0000 0.32760  0.70290  0.82090  Biso   1.000  F
  F20      1.0000 0.28670  0.75110  0.92470  Biso   1.000  F
  F21      1.0000 0.37060  0.76840  0.89050  Biso   1.000  F
  O7       1.0000 0.35270  0.94492  0.59020  Biso   1.000  O
  O8       1.0000 0.41649  0.89830  0.66770  Biso   1.000  O
  C28      1.0000 0.24710  0.79540  0.73470  Biso   1.000  C
  C29      1.0000 0.29910  0.79690  0.77420  Biso   1.000  C
  C30      1.0000 0.33650  0.83370  0.74540  Biso   1.000  C
  H13      1.0000 0.37150  0.83460  0.77350  Biso   1.000  H
  C31      1.0000 0.32510  0.86950  0.67700  Biso   1.000  C
  C32      1.0000 0.27330  0.87070  0.64100  Biso   1.000  C
  H14      1.0000 0.26380  0.89760  0.59680  Biso   1.000  H
  C33      1.0000 0.23560  0.83350  0.66860  Biso   1.000  C
  H15      1.0000 0.20030  0.83370  0.64140  Biso   1.000  H
  C34      1.0000 0.36800  0.90770  0.64220  Biso   1.000  C
  C35      1.0000 0.32270  0.75430  0.85450  Biso   1.000  C
  F22      1.0000 0.13480  0.84490  0.67170  Biso   1.000  F
  F23      1.0000 0.16500  0.79010  0.56850  Biso   1.000  F
  F24      1.0000 0.17390  0.87730  0.54920  Biso   1.000  F
  H16      1.0000 0.30820  0.77190  0.82160  Biso   1.000  H
  C36      1.0000 0.17660  0.83860  0.61120  Biso   1.000  C
  F25      1.0000 0.70290  0.32760  0.67910  Biso   1.000  F
  F26      1.0000 0.75110  0.28670  0.57530  Biso   1.000  F
  F27      1.0000 0.76840  0.37060  0.60950  Biso   1.000  F
  O9       1.0000 0.94492  0.35270  0.90980  Biso   1.000  O
  O10      1.0000 0.89830  0.41649  0.83230  Biso   1.000  O
  C37      1.0000 0.79540  0.24710  0.76530  Biso   1.000  C
  C38      1.0000 0.79690  0.29910  0.72580  Biso   1.000  C
  C39      1.0000 0.83370  0.33650  0.75460  Biso   1.000  C
  H17      1.0000 0.83460  0.37150  0.72650  Biso   1.000  H
  C40      1.0000 0.86950  0.32510  0.82300  Biso   1.000  C
  C41      1.0000 0.87070  0.27330  0.85900  Biso   1.000  C
  H18      1.0000 0.89760  0.26380  0.90320  Biso   1.000  H
  C42      1.0000 0.83350  0.23560  0.83140  Biso   1.000  C
  H19      1.0000 0.83370  0.20030  0.85860  Biso   1.000  H
  C43      1.0000 0.90770  0.36800  0.85780  Biso   1.000  C
  C44      1.0000 0.75430  0.32270  0.64550  Biso   1.000  C
  F28      1.0000 0.84490  0.13480  0.82830  Biso   1.000  F
  F29      1.0000 0.79010  0.16500  0.93150  Biso   1.000  F
  F30      1.0000 0.87730  0.17390  0.95080  Biso   1.000  F
  H20      1.0000 0.77190  0.30820  0.67840  Biso   1.000  H
  C45      1.0000 0.83860  0.17660  0.88880  Biso   1.000  C
  F31      1.0000 0.29710  0.67240  0.67910  Biso   1.000  F
  F32      1.0000 0.24890  0.71330  0.57530  Biso   1.000  F
  F33      1.0000 0.23160  0.62940  0.60950  Biso   1.000  F
  O11      1.0000 0.05508  0.64730  0.90980  Biso   1.000  O
  O12      1.0000 0.10170  0.58351  0.83230  Biso   1.000  O
  C46      1.0000 0.20460  0.75290  0.76530  Biso   1.000  C
  C47      1.0000 0.20310  0.70090  0.72580  Biso   1.000  C
  C48      1.0000 0.16630  0.66350  0.75460  Biso   1.000  C
  H21      1.0000 0.16540  0.62850  0.72650  Biso   1.000  H
  C49      1.0000 0.13050  0.67490  0.82300  Biso   1.000  C
  C50      1.0000 0.12930  0.72670  0.85900  Biso   1.000  C
  H22      1.0000 0.10240  0.73620  0.90320  Biso   1.000  H
  C51      1.0000 0.16650  0.76440  0.83140  Biso   1.000  C
  H23      1.0000 0.16630  0.79970  0.85860  Biso   1.000  H
  C52      1.0000 0.09230  0.63200  0.85780  Biso   1.000  C
  C53      1.0000 0.24570  0.67730  0.64550  Biso   1.000  C
  F34      1.0000 0.15510  0.86520  0.82830  Biso   1.000  F
  F35      1.0000 0.20990  0.83500  0.93150  Biso   1.000  F
  F36      1.0000 0.12270  0.82610  0.95080  Biso   1.000  F
  H24      1.0000 0.22810  0.69180  0.67840  Biso   1.000  H
  C54      1.0000 0.16140  0.82340  0.88880  Biso   1.000  C
  F37      1.0000 0.32760  0.29710  0.17910  Biso   1.000  F
  F38      1.0000 0.28670  0.24890  0.07530  Biso   1.000  F
  F39      1.0000 0.37060  0.23160  0.10950  Biso   1.000  F
  O13      1.0000 0.35270  0.05508  0.40980  Biso   1.000  O
  O14      1.0000 0.41649  0.10170  0.33230  Biso   1.000  O
  C55      1.0000 0.24710  0.20460  0.26530  Biso   1.000  C
  C56      1.0000 0.29910  0.20310  0.22580  Biso   1.000  C
  C57      1.0000 0.33650  0.16630  0.25460  Biso   1.000  C
  H25      1.0000 0.37150  0.16540  0.22650  Biso   1.000  H
  C58      1.0000 0.32510  0.13050  0.32300  Biso   1.000  C
  C59      1.0000 0.27330  0.12930  0.35900  Biso   1.000  C
  H26      1.0000 0.26380  0.10240  0.40320  Biso   1.000  H
  C60      1.0000 0.23560  0.16650  0.33140  Biso   1.000  C
  H27      1.0000 0.20030  0.16630  0.35860  Biso   1.000  H
  C61      1.0000 0.36800  0.09230  0.35780  Biso   1.000  C
  C62      1.0000 0.32270  0.24570  0.14550  Biso   1.000  C
  F40      1.0000 0.13480  0.15510  0.32830  Biso   1.000  F
  F41      1.0000 0.16500  0.20990  0.43150  Biso   1.000  F
  F42      1.0000 0.17390  0.12270  0.45080  Biso   1.000  F
  H28      1.0000 0.30820  0.22810  0.17840  Biso   1.000  H
  C63      1.0000 0.17660  0.16140  0.38880  Biso   1.000  C
  F43      1.0000 0.67240  0.70290  0.17910  Biso   1.000  F
  F44      1.0000 0.71330  0.75110  0.07530  Biso   1.000  F
  F45      1.0000 0.62940  0.76840  0.10950  Biso   1.000  F
  O15      1.0000 0.64730  0.94492  0.40980  Biso   1.000  O
  O16      1.0000 0.58351  0.89830  0.33230  Biso   1.000  O
  C64      1.0000 0.75290  0.79540  0.26530  Biso   1.000  C
  C65      1.0000 0.70090  0.79690  0.22580  Biso   1.000  C
  C66      1.0000 0.66350  0.83370  0.25460  Biso   1.000  C
  H29      1.0000 0.62850  0.83460  0.22650  Biso   1.000  H
  C67      1.0000 0.67490  0.86950  0.32300  Biso   1.000  C
  C68      1.0000 0.72670  0.87070  0.35900  Biso   1.000  C
  H30      1.0000 0.73620  0.89760  0.40320  Biso   1.000  H
  C69      1.0000 0.76440  0.83350  0.33140  Biso   1.000  C
  H31      1.0000 0.79970  0.83370  0.35860  Biso   1.000  H
  C70      1.0000 0.63200  0.90770  0.35780  Biso   1.000  C
  C71      1.0000 0.67730  0.75430  0.14550  Biso   1.000  C
  F46      1.0000 0.86520  0.84490  0.32830  Biso   1.000  F
  F47      1.0000 0.83500  0.79010  0.43150  Biso   1.000  F
  F48      1.0000 0.82610  0.87730  0.45080  Biso   1.000  F
  H32      1.0000 0.69180  0.77190  0.17840  Biso   1.000  H
  C72      1.0000 0.82340  0.83860  0.38880  Biso   1.000  C
  F49      1.0000 0.70290  0.67240  0.67910  Biso   1.000  F
  F50      1.0000 0.75110  0.71330  0.57530  Biso   1.000  F
  F51      1.0000 0.76840  0.62940  0.60950  Biso   1.000  F
  O17      1.0000 0.94492  0.64730  0.90980  Biso   1.000  O
  O18      1.0000 0.89830  0.58351  0.83230  Biso   1.000  O
  C73      1.0000 0.79540  0.75290  0.76530  Biso   1.000  C
  C74      1.0000 0.79690  0.70090  0.72580  Biso   1.000  C
  C75      1.0000 0.83370  0.66350  0.75460  Biso   1.000  C
  H33      1.0000 0.83460  0.62850  0.72650  Biso   1.000  H
  C76      1.0000 0.86950  0.67490  0.82300  Biso   1.000  C
  C77      1.0000 0.87070  0.72670  0.85900  Biso   1.000  C
  H34      1.0000 0.89760  0.73620  0.90320  Biso   1.000  H
  C78      1.0000 0.83350  0.76440  0.83140  Biso   1.000  C
  H35      1.0000 0.83370  0.79970  0.85860  Biso   1.000  H
  C79      1.0000 0.90770  0.63200  0.85780  Biso   1.000  C
  C80      1.0000 0.75430  0.67730  0.64550  Biso   1.000  C
  F52      1.0000 0.84490  0.86520  0.82830  Biso   1.000  F
  F53      1.0000 0.79010  0.83500  0.93150  Biso   1.000  F
  F54      1.0000 0.87730  0.82610  0.95080  Biso   1.000  F
  H36      1.0000 0.77190  0.69180  0.67840  Biso   1.000  H
  C81      1.0000 0.83860  0.82340  0.88880  Biso   1.000  C
  F55      1.0000 0.29710  0.32760  0.67910  Biso   1.000  F
  F56      1.0000 0.24890  0.28670  0.57530  Biso   1.000  F
  F57      1.0000 0.23160  0.37060  0.60950  Biso   1.000  F
  O19      1.0000 0.05508  0.35270  0.90980  Biso   1.000  O
  O20      1.0000 0.10170  0.41649  0.83230  Biso   1.000  O
  C82      1.0000 0.20460  0.24710  0.76530  Biso   1.000  C
  C83      1.0000 0.20310  0.29910  0.72580  Biso   1.000  C
  C84      1.0000 0.16630  0.33650  0.75460  Biso   1.000  C
  H37      1.0000 0.16540  0.37150  0.72650  Biso   1.000  H
  C85      1.0000 0.13050  0.32510  0.82300  Biso   1.000  C
  C86      1.0000 0.12930  0.27330  0.85900  Biso   1.000  C
  H38      1.0000 0.10240  0.26380  0.90320  Biso   1.000  H
  C87      1.0000 0.16650  0.23560  0.83140  Biso   1.000  C
  H39      1.0000 0.16630  0.20030  0.85860  Biso   1.000  H
  C88      1.0000 0.09230  0.36800  0.85780  Biso   1.000  C
  C89      1.0000 0.24570  0.32270  0.64550  Biso   1.000  C
  F58      1.0000 0.15510  0.13480  0.82830  Biso   1.000  F
  F59      1.0000 0.20990  0.16500  0.93150  Biso   1.000  F
  F60      1.0000 0.12270  0.17390  0.95080  Biso   1.000  F
  H40      1.0000 0.22810  0.30820  0.67840  Biso   1.000  H
  C90      1.0000 0.16140  0.17660  0.88880  Biso   1.000  C
  F61      1.0000 0.32760  0.70290  0.17910  Biso   1.000  F
  F62      1.0000 0.28670  0.75110  0.07530  Biso   1.000  F
  F63      1.0000 0.37060  0.76840  0.10950  Biso   1.000  F
  O21      1.0000 0.35270  0.94492  0.40980  Biso   1.000  O
  O22      1.0000 0.41649  0.89830  0.33230  Biso   1.000  O
  C91      1.0000 0.24710  0.79540  0.26530  Biso   1.000  C
  C92      1.0000 0.29910  0.79690  0.22580  Biso   1.000  C
  C93      1.0000 0.33650  0.83370  0.25460  Biso   1.000  C
  H41      1.0000 0.37150  0.83460  0.22650  Biso   1.000  H
  C94      1.0000 0.32510  0.86950  0.32300  Biso   1.000  C
  C95      1.0000 0.27330  0.87070  0.35900  Biso   1.000  C
  H42      1.0000 0.26380  0.89760  0.40320  Biso   1.000  H
  C96      1.0000 0.23560  0.83350  0.33140  Biso   1.000  C
  H43      1.0000 0.20030  0.83370  0.35860  Biso   1.000  H
  C97      1.0000 0.36800  0.90770  0.35780  Biso   1.000  C
  C98      1.0000 0.32270  0.75430  0.14550  Biso   1.000  C
  F64      1.0000 0.13480  0.84490  0.32830  Biso   1.000  F
  F65      1.0000 0.16500  0.79010  0.43150  Biso   1.000  F
  F66      1.0000 0.17390  0.87730  0.45080  Biso   1.000  F
  H44      1.0000 0.30820  0.77190  0.17840  Biso   1.000  H
  C99      1.0000 0.17660  0.83860  0.38880  Biso   1.000  C
  F67      1.0000 0.67240  0.29710  0.17910  Biso   1.000  F
  F68      1.0000 0.71330  0.24890  0.07530  Biso   1.000  F
  F69      1.0000 0.62940  0.23160  0.10950  Biso   1.000  F
  O23      1.0000 0.64730  0.05508  0.40980  Biso   1.000  O
  O24      1.0000 0.58351  0.10170  0.33230  Biso   1.000  O
  C100     1.0000 0.75290  0.20460  0.26530  Biso   1.000  C
  C101     1.0000 0.70090  0.20310  0.22580  Biso   1.000  C
  C102     1.0000 0.66350  0.16630  0.25460  Biso   1.000  C
  H45      1.0000 0.62850  0.16540  0.22650  Biso   1.000  H
  C103     1.0000 0.67490  0.13050  0.32300  Biso   1.000  C
  C104     1.0000 0.72670  0.12930  0.35900  Biso   1.000  C
  H46      1.0000 0.73620  0.10240  0.40320  Biso   1.000  H
  C105     1.0000 0.76440  0.16650  0.33140  Biso   1.000  C
  H47      1.0000 0.79970  0.16630  0.35860  Biso   1.000  H
  C106     1.0000 0.63200  0.09230  0.35780  Biso   1.000  C
  C107     1.0000 0.67730  0.24570  0.14550  Biso   1.000  C
  F70      1.0000 0.86520  0.15510  0.32830  Biso   1.000  F
  F71      1.0000 0.83500  0.20990  0.43150  Biso   1.000  F
  F72      1.0000 0.82610  0.12270  0.45080  Biso   1.000  F
  H48      1.0000 0.69180  0.22810  0.17840  Biso   1.000  H
  C108     1.0000 0.82340  0.16140  0.38880  Biso   1.000  C
  F73      1.0000 0.29710  0.67240  0.32090  Biso   1.000  F
  F74      1.0000 0.24890  0.71330  0.42470  Biso   1.000  F
  F75      1.0000 0.23160  0.62940  0.39050  Biso   1.000  F
  O25      1.0000 0.05508  0.64730  0.09020  Biso   1.000  O
  O26      1.0000 0.10170  0.58351  0.16770  Biso   1.000  O
  C109     1.0000 0.20460  0.75290  0.23470  Biso   1.000  C
  C110     1.0000 0.20310  0.70090  0.27420  Biso   1.000  C
  C111     1.0000 0.16630  0.66350  0.24540  Biso   1.000  C
  H49      1.0000 0.16540  0.62850  0.27350  Biso   1.000  H
  C112     1.0000 0.13050  0.67490  0.17700  Biso   1.000  C
  C113     1.0000 0.12930  0.72670  0.14100  Biso   1.000  C
  H50      1.0000 0.10240  0.73620  0.09680  Biso   1.000  H
  C114     1.0000 0.16650  0.76440  0.16860  Biso   1.000  C
  H51      1.0000 0.16630  0.79970  0.14140  Biso   1.000  H
  C115     1.0000 0.09230  0.63200  0.14220  Biso   1.000  C
  C116     1.0000 0.24570  0.67730  0.35450  Biso   1.000  C
  F76      1.0000 0.15510  0.86520  0.17170  Biso   1.000  F
  F77      1.0000 0.20990  0.83500  0.06850  Biso   1.000  F
  F78      1.0000 0.12270  0.82610  0.04920  Biso   1.000  F
  H52      1.0000 0.22810  0.69180  0.32160  Biso   1.000  H
  C117     1.0000 0.16140  0.82340  0.11120  Biso   1.000  C
  F79      1.0000 0.70290  0.32760  0.32090  Biso   1.000  F
  F80      1.0000 0.75110  0.28670  0.42470  Biso   1.000  F
  F81      1.0000 0.76840  0.37060  0.39050  Biso   1.000  F
  O27      1.0000 0.94492  0.35270  0.09020  Biso   1.000  O
  O28      1.0000 0.89830  0.41649  0.16770  Biso   1.000  O
  C118     1.0000 0.79540  0.24710  0.23470  Biso   1.000  C
  C119     1.0000 0.79690  0.29910  0.27420  Biso   1.000  C
  C120     1.0000 0.83370  0.33650  0.24540  Biso   1.000  C
  H53      1.0000 0.83460  0.37150  0.27350  Biso   1.000  H
  C121     1.0000 0.86950  0.32510  0.17700  Biso   1.000  C
  C122     1.0000 0.87070  0.27330  0.14100  Biso   1.000  C
  H54      1.0000 0.89760  0.26380  0.09680  Biso   1.000  H
  C123     1.0000 0.83350  0.23560  0.16860  Biso   1.000  C
  H55      1.0000 0.83370  0.20030  0.14140  Biso   1.000  H
  C124     1.0000 0.90770  0.36800  0.14220  Biso   1.000  C
  C125     1.0000 0.75430  0.32270  0.35450  Biso   1.000  C
  F82      1.0000 0.84490  0.13480  0.17170  Biso   1.000  F
  F83      1.0000 0.79010  0.16500  0.06850  Biso   1.000  F
  F84      1.0000 0.87730  0.17390  0.04920  Biso   1.000  F
  H56      1.0000 0.77190  0.30820  0.32160  Biso   1.000  H
  C126     1.0000 0.83860  0.17660  0.11120  Biso   1.000  C
  F85      1.0000 0.67240  0.70290  0.82090  Biso   1.000  F
  F86      1.0000 0.71330  0.75110  0.92470  Biso   1.000  F
  F87      1.0000 0.62940  0.76840  0.89050  Biso   1.000  F
  O29      1.0000 0.64730  0.94492  0.59020  Biso   1.000  O
  O30      1.0000 0.58351  0.89830  0.66770  Biso   1.000  O
  C127     1.0000 0.75290  0.79540  0.73470  Biso   1.000  C
  C128     1.0000 0.70090  0.79690  0.77420  Biso   1.000  C
  C129     1.0000 0.66350  0.83370  0.74540  Biso   1.000  C
  H57      1.0000 0.62850  0.83460  0.77350  Biso   1.000  H
  C130     1.0000 0.67490  0.86950  0.67700  Biso   1.000  C
  C131     1.0000 0.72670  0.87070  0.64100  Biso   1.000  C
  H58      1.0000 0.73620  0.89760  0.59680  Biso   1.000  H
  C132     1.0000 0.76440  0.83350  0.66860  Biso   1.000  C
  H59      1.0000 0.79970  0.83370  0.64140  Biso   1.000  H
  C133     1.0000 0.63200  0.90770  0.64220  Biso   1.000  C
  C134     1.0000 0.67730  0.75430  0.85450  Biso   1.000  C
  F88      1.0000 0.86520  0.84490  0.67170  Biso   1.000  F
  F89      1.0000 0.83500  0.79010  0.56850  Biso   1.000  F
  F90      1.0000 0.82610  0.87730  0.54920  Biso   1.000  F
  H60      1.0000 0.69180  0.77190  0.82160  Biso   1.000  H
  C135     1.0000 0.82340  0.83860  0.61120  Biso   1.000  C
  F91      1.0000 0.32760  0.29710  0.82090  Biso   1.000  F
  F92      1.0000 0.28670  0.24890  0.92470  Biso   1.000  F
  F93      1.0000 0.37060  0.23160  0.89050  Biso   1.000  F
  O31      1.0000 0.35270  0.05508  0.59020  Biso   1.000  O
  O32      1.0000 0.41649  0.10170  0.66770  Biso   1.000  O
  C136     1.0000 0.24710  0.20460  0.73470  Biso   1.000  C
  C137     1.0000 0.29910  0.20310  0.77420  Biso   1.000  C
  C138     1.0000 0.33650  0.16630  0.74540  Biso   1.000  C
  H61      1.0000 0.37150  0.16540  0.77350  Biso   1.000  H
  C139     1.0000 0.32510  0.13050  0.67700  Biso   1.000  C
  C140     1.0000 0.27330  0.12930  0.64100  Biso   1.000  C
  H62      1.0000 0.26380  0.10240  0.59680  Biso   1.000  H
  C141     1.0000 0.23560  0.16650  0.66860  Biso   1.000  C
  H63      1.0000 0.20030  0.16630  0.64140  Biso   1.000  H
  C142     1.0000 0.36800  0.09230  0.64220  Biso   1.000  C
  C143     1.0000 0.32270  0.24570  0.85450  Biso   1.000  C
  F94      1.0000 0.13480  0.15510  0.67170  Biso   1.000  F
  F95      1.0000 0.16500  0.20990  0.56850  Biso   1.000  F
  F96      1.0000 0.17390  0.12270  0.54920  Biso   1.000  F
  H64      1.0000 0.30820  0.22810  0.82160  Biso   1.000  H
  C144     1.0000 0.17660  0.16140  0.61120  Biso   1.000  C
  Zr1      1.0000 0.00000  0.39972  0.00000  Biso   1.000  Zr
  Zr2      1.0000 0.00000  0.60028  0.00000  Biso   1.000  Zr
  Zr3      1.0000 0.60028  0.00000  0.50000  Biso   1.000  Zr
  Zr4      1.0000 0.39972  0.00000  0.50000  Biso   1.000  Zr
  Zr5      1.0000 0.07219  0.50000  0.12021  Biso   1.000  Zr
  Zr6      1.0000 0.92781  0.50000  0.12021  Biso   1.000  Zr
  Zr7      1.0000 0.50000  0.07219  0.62021  Biso   1.000  Zr
  Zr8      1.0000 0.50000  0.92781  0.62021  Biso   1.000  Zr
  Zr9      1.0000 0.92781  0.50000  0.87979  Biso   1.000  Zr
  Zr10     1.0000 0.07219  0.50000  0.87979  Biso   1.000  Zr
  Zr11     1.0000 0.50000  0.07219  0.37979  Biso   1.000  Zr
  Zr12     1.0000 0.50000  0.92781  0.37979  Biso   1.000  Zr
  O33      1.0000 0.07330  0.45030  0.00000  Biso   1.000  O
  O34      1.0000 0.92670  0.54970  0.00000  Biso   1.000  O
  O35      1.0000 0.54970  0.07330  0.50000  Biso   1.000  O
  O36      1.0000 0.45030  0.92670  0.50000  Biso   1.000  O
  O37      1.0000 0.92670  0.45030  0.00000  Biso   1.000  O
  O38      1.0000 0.07330  0.54970  0.00000  Biso   1.000  O
  O39      1.0000 0.45030  0.07330  0.50000  Biso   1.000  O
  O40      1.0000 0.54970  0.92670  0.50000  Biso   1.000  O
  O41      1.0000 0.00000  0.45150  0.12050  Biso   1.000  O
  O42      1.0000 0.00000  0.54850  0.12050  Biso   1.000  O
  O43      1.0000 0.54850  0.00000  0.62050  Biso   1.000  O
  O44      1.0000 0.45150  0.00000  0.62050  Biso   1.000  O
  O45      1.0000 0.00000  0.45150  0.87950  Biso   1.000  O
  O46      1.0000 0.00000  0.54850  0.87950  Biso   1.000  O
  O47      1.0000 0.45150  0.00000  0.37950  Biso   1.000  O
  O48      1.0000 0.54850  0.00000  0.37950  Biso   1.000  O
