data_image0
_cell_length_a       23.7851
_cell_length_b       23.7851
_cell_length_c       16.8399
_cell_angle_alpha    90
_cell_angle_beta     90
_cell_angle_gamma    90

_symmetry_space_group_name_H-M    "P 1"
_symmetry_int_tables_number       1

loop_
  _symmetry_equiv_pos_as_xyz
  'x, y, z'

loop_
  _atom_site_label
  _atom_site_occupancy
  _atom_site_fract_x
  _atom_site_fract_y
  _atom_site_fract_z
  _atom_site_thermal_displace_type
  _atom_site_B_iso_or_equiv
  _atom_site_type_symbol
  O1       1.0000 0.44234  0.15082  0.07970  Biso   1.000  O
  O2       1.0000 0.39822  0.08360  0.15060  Biso   1.000  O
  C1       1.0000 0.40700  0.13420  0.12950  Biso   1.000  C
  C2       1.0000 0.37050  0.17730  0.16660  Biso   1.000  C
  C3       1.0000 0.33630  0.16290  0.22910  Biso   1.000  C
  H1       1.0000 0.33660  0.12540  0.24880  Biso   1.000  H
  C4       1.0000 0.30090  0.20300  0.26370  Biso   1.000  C
  H2       1.0000 0.27920  0.19330  0.30910  Biso   1.000  H
  C5       1.0000 0.29740  0.25580  0.23310  Biso   1.000  C
  C6       1.0000 0.33240  0.26980  0.17130  Biso   1.000  C
  C7       1.0000 0.37020  0.23150  0.13850  Biso   1.000  C
  H3       1.0000 0.39520  0.24270  0.09740  Biso   1.000  H
  F1       1.0000 0.34120  0.37220  0.17310  Biso   1.000  F
  F2       1.0000 0.36610  0.33450  0.06360  Biso   1.000  F
  C8       1.0000 0.33060  0.32460  0.12600  Biso   1.000  C
  F3       1.0000 0.28010  0.34340  0.09340  Biso   1.000  F
  H4       1.0000 0.33090  0.30680  0.15030  Biso   1.000  H
  F4       1.0000 0.27550  0.12670  0.36100  Biso   1.000  F
  F5       1.0000 0.20920  0.17880  0.32320  Biso   1.000  F
  F6       1.0000 0.27040  0.20950  0.40450  Biso   1.000  F
  C9       1.0000 0.26720  0.17960  0.33230  Biso   1.000  C
  O3       1.0000 0.55766  0.84918  0.07970  Biso   1.000  O
  O4       1.0000 0.60178  0.91640  0.15060  Biso   1.000  O
  C10      1.0000 0.59300  0.86580  0.12950  Biso   1.000  C
  C11      1.0000 0.62950  0.82270  0.16660  Biso   1.000  C
  C12      1.0000 0.66370  0.83710  0.22910  Biso   1.000  C
  H5       1.0000 0.66340  0.87460  0.24880  Biso   1.000  H
  C13      1.0000 0.69910  0.79700  0.26370  Biso   1.000  C
  H6       1.0000 0.72080  0.80670  0.30910  Biso   1.000  H
  C14      1.0000 0.70260  0.74420  0.23310  Biso   1.000  C
  C15      1.0000 0.66760  0.73020  0.17130  Biso   1.000  C
  C16      1.0000 0.62980  0.76850  0.13850  Biso   1.000  C
  H7       1.0000 0.60480  0.75730  0.09740  Biso   1.000  H
  F7       1.0000 0.65880  0.62780  0.17310  Biso   1.000  F
  F8       1.0000 0.63390  0.66550  0.06360  Biso   1.000  F
  C17      1.0000 0.66940  0.67540  0.12600  Biso   1.000  C
  F9       1.0000 0.71990  0.65660  0.09340  Biso   1.000  F
  H8       1.0000 0.66910  0.69320  0.15030  Biso   1.000  H
  F10      1.0000 0.72450  0.87330  0.36100  Biso   1.000  F
  F11      1.0000 0.79080  0.82120  0.32320  Biso   1.000  F
  F12      1.0000 0.72960  0.79050  0.40450  Biso   1.000  F
  C18      1.0000 0.73280  0.82040  0.33230  Biso   1.000  C
  O5       1.0000 0.84918  0.44234  0.57970  Biso   1.000  O
  O6       1.0000 0.91640  0.39822  0.65060  Biso   1.000  O
  C19      1.0000 0.86580  0.40700  0.62950  Biso   1.000  C
  C20      1.0000 0.82270  0.37050  0.66660  Biso   1.000  C
  C21      1.0000 0.83710  0.33630  0.72910  Biso   1.000  C
  H9       1.0000 0.87460  0.33660  0.74880  Biso   1.000  H
  C22      1.0000 0.79700  0.30090  0.76370  Biso   1.000  C
  H10      1.0000 0.80670  0.27920  0.80910  Biso   1.000  H
  C23      1.0000 0.74420  0.29740  0.73310  Biso   1.000  C
  C24      1.0000 0.73020  0.33240  0.67130  Biso   1.000  C
  C25      1.0000 0.76850  0.37020  0.63850  Biso   1.000  C
  H11      1.0000 0.75730  0.39520  0.59740  Biso   1.000  H
  F13      1.0000 0.62780  0.34120  0.67310  Biso   1.000  F
  F14      1.0000 0.66550  0.36610  0.56360  Biso   1.000  F
  C26      1.0000 0.67540  0.33060  0.62600  Biso   1.000  C
  F15      1.0000 0.65660  0.28010  0.59340  Biso   1.000  F
  H12      1.0000 0.69320  0.33090  0.65030  Biso   1.000  H
  F16      1.0000 0.87330  0.27550  0.86100  Biso   1.000  F
  F17      1.0000 0.82120  0.20920  0.82320  Biso   1.000  F
  F18      1.0000 0.79050  0.27040  0.90450  Biso   1.000  F
  C27      1.0000 0.82040  0.26720  0.83230  Biso   1.000  C
  O7       1.0000 0.15082  0.55766  0.57970  Biso   1.000  O
  O8       1.0000 0.08360  0.60178  0.65060  Biso   1.000  O
  C28      1.0000 0.13420  0.59300  0.62950  Biso   1.000  C
  C29      1.0000 0.17730  0.62950  0.66660  Biso   1.000  C
  C30      1.0000 0.16290  0.66370  0.72910  Biso   1.000  C
  H13      1.0000 0.12540  0.66340  0.74880  Biso   1.000  H
  C31      1.0000 0.20300  0.69910  0.76370  Biso   1.000  C
  H14      1.0000 0.19330  0.72080  0.80910  Biso   1.000  H
  C32      1.0000 0.25580  0.70260  0.73310  Biso   1.000  C
  C33      1.0000 0.26980  0.66760  0.67130  Biso   1.000  C
  C34      1.0000 0.23150  0.62980  0.63850  Biso   1.000  C
  H15      1.0000 0.24270  0.60480  0.59740  Biso   1.000  H
  F19      1.0000 0.37220  0.65880  0.67310  Biso   1.000  F
  F20      1.0000 0.33450  0.63390  0.56360  Biso   1.000  F
  C35      1.0000 0.32460  0.66940  0.62600  Biso   1.000  C
  F21      1.0000 0.34340  0.71990  0.59340  Biso   1.000  F
  H16      1.0000 0.30680  0.66910  0.65030  Biso   1.000  H
  F22      1.0000 0.12670  0.72450  0.86100  Biso   1.000  F
  F23      1.0000 0.17880  0.79080  0.82320  Biso   1.000  F
  F24      1.0000 0.20950  0.72960  0.90450  Biso   1.000  F
  C36      1.0000 0.17960  0.73280  0.83230  Biso   1.000  C
  O9       1.0000 0.55766  0.15082  0.92030  Biso   1.000  O
  O10      1.0000 0.60178  0.08360  0.84940  Biso   1.000  O
  C37      1.0000 0.59300  0.13420  0.87050  Biso   1.000  C
  C38      1.0000 0.62950  0.17730  0.83340  Biso   1.000  C
  C39      1.0000 0.66370  0.16290  0.77090  Biso   1.000  C
  H17      1.0000 0.66340  0.12540  0.75120  Biso   1.000  H
  C40      1.0000 0.69910  0.20300  0.73630  Biso   1.000  C
  H18      1.0000 0.72080  0.19330  0.69090  Biso   1.000  H
  C41      1.0000 0.70260  0.25580  0.76690  Biso   1.000  C
  C42      1.0000 0.66760  0.26980  0.82870  Biso   1.000  C
  C43      1.0000 0.62980  0.23150  0.86150  Biso   1.000  C
  H19      1.0000 0.60480  0.24270  0.90260  Biso   1.000  H
  F25      1.0000 0.65880  0.37220  0.82690  Biso   1.000  F
  F26      1.0000 0.63390  0.33450  0.93640  Biso   1.000  F
  C44      1.0000 0.66940  0.32460  0.87400  Biso   1.000  C
  F27      1.0000 0.71990  0.34340  0.90660  Biso   1.000  F
  H20      1.0000 0.66910  0.30680  0.84970  Biso   1.000  H
  F28      1.0000 0.72450  0.12670  0.63900  Biso   1.000  F
  F29      1.0000 0.79080  0.17880  0.67680  Biso   1.000  F
  F30      1.0000 0.72960  0.20950  0.59550  Biso   1.000  F
  C45      1.0000 0.73280  0.17960  0.66770  Biso   1.000  C
  O11      1.0000 0.44234  0.84918  0.92030  Biso   1.000  O
  O12      1.0000 0.39822  0.91640  0.84940  Biso   1.000  O
  C46      1.0000 0.40700  0.86580  0.87050  Biso   1.000  C
  C47      1.0000 0.37050  0.82270  0.83340  Biso   1.000  C
  C48      1.0000 0.33630  0.83710  0.77090  Biso   1.000  C
  H21      1.0000 0.33660  0.87460  0.75120  Biso   1.000  H
  C49      1.0000 0.30090  0.79700  0.73630  Biso   1.000  C
  H22      1.0000 0.27920  0.80670  0.69090  Biso   1.000  H
  C50      1.0000 0.29740  0.74420  0.76690  Biso   1.000  C
  C51      1.0000 0.33240  0.73020  0.82870  Biso   1.000  C
  C52      1.0000 0.37020  0.76850  0.86150  Biso   1.000  C
  H23      1.0000 0.39520  0.75730  0.90260  Biso   1.000  H
  F31      1.0000 0.34120  0.62780  0.82690  Biso   1.000  F
  F32      1.0000 0.36610  0.66550  0.93640  Biso   1.000  F
  C53      1.0000 0.33060  0.67540  0.87400  Biso   1.000  C
  F33      1.0000 0.28010  0.65660  0.90660  Biso   1.000  F
  H24      1.0000 0.33090  0.69320  0.84970  Biso   1.000  H
  F34      1.0000 0.27550  0.87330  0.63900  Biso   1.000  F
  F35      1.0000 0.20920  0.82120  0.67680  Biso   1.000  F
  F36      1.0000 0.27040  0.79050  0.59550  Biso   1.000  F
  C54      1.0000 0.26720  0.82040  0.66770  Biso   1.000  C
  O13      1.0000 0.15082  0.44234  0.42030  Biso   1.000  O
  O14      1.0000 0.08360  0.39822  0.34940  Biso   1.000  O
  C55      1.0000 0.13420  0.40700  0.37050  Biso   1.000  C
  C56      1.0000 0.17730  0.37050  0.33340  Biso   1.000  C
  C57      1.0000 0.16290  0.33630  0.27090  Biso   1.000  C
  H25      1.0000 0.12540  0.33660  0.25120  Biso   1.000  H
  C58      1.0000 0.20300  0.30090  0.23630  Biso   1.000  C
  H26      1.0000 0.19330  0.27920  0.19090  Biso   1.000  H
  C59      1.0000 0.25580  0.29740  0.26690  Biso   1.000  C
  C60      1.0000 0.26980  0.33240  0.32870  Biso   1.000  C
  C61      1.0000 0.23150  0.37020  0.36150  Biso   1.000  C
  H27      1.0000 0.24270  0.39520  0.40260  Biso   1.000  H
  F37      1.0000 0.37220  0.34120  0.32690  Biso   1.000  F
  F38      1.0000 0.33450  0.36610  0.43640  Biso   1.000  F
  C62      1.0000 0.32460  0.33060  0.37400  Biso   1.000  C
  F39      1.0000 0.34340  0.28010  0.40660  Biso   1.000  F
  H28      1.0000 0.30680  0.33090  0.34970  Biso   1.000  H
  F40      1.0000 0.12670  0.27550  0.13900  Biso   1.000  F
  F41      1.0000 0.17880  0.20920  0.17680  Biso   1.000  F
  F42      1.0000 0.20950  0.27040  0.09550  Biso   1.000  F
  C63      1.0000 0.17960  0.26720  0.16770  Biso   1.000  C
  O15      1.0000 0.84918  0.55766  0.42030  Biso   1.000  O
  O16      1.0000 0.91640  0.60178  0.34940  Biso   1.000  O
  C64      1.0000 0.86580  0.59300  0.37050  Biso   1.000  C
  C65      1.0000 0.82270  0.62950  0.33340  Biso   1.000  C
  C66      1.0000 0.83710  0.66370  0.27090  Biso   1.000  C
  H29      1.0000 0.87460  0.66340  0.25120  Biso   1.000  H
  C67      1.0000 0.79700  0.69910  0.23630  Biso   1.000  C
  H30      1.0000 0.80670  0.72080  0.19090  Biso   1.000  H
  C68      1.0000 0.74420  0.70260  0.26690  Biso   1.000  C
  C69      1.0000 0.73020  0.66760  0.32870  Biso   1.000  C
  C70      1.0000 0.76850  0.62980  0.36150  Biso   1.000  C
  H31      1.0000 0.75730  0.60480  0.40260  Biso   1.000  H
  F43      1.0000 0.62780  0.65880  0.32690  Biso   1.000  F
  F44      1.0000 0.66550  0.63390  0.43640  Biso   1.000  F
  C71      1.0000 0.67540  0.66940  0.37400  Biso   1.000  C
  F45      1.0000 0.65660  0.71990  0.40660  Biso   1.000  F
  H32      1.0000 0.69320  0.66910  0.34970  Biso   1.000  H
  F46      1.0000 0.87330  0.72450  0.13900  Biso   1.000  F
  F47      1.0000 0.82120  0.79080  0.17680  Biso   1.000  F
  F48      1.0000 0.79050  0.72960  0.09550  Biso   1.000  F
  C72      1.0000 0.82040  0.73280  0.16770  Biso   1.000  C
  O17      1.0000 0.55766  0.84918  0.92030  Biso   1.000  O
  O18      1.0000 0.60178  0.91640  0.84940  Biso   1.000  O
  C73      1.0000 0.59300  0.86580  0.87050  Biso   1.000  C
  C74      1.0000 0.62950  0.82270  0.83340  Biso   1.000  C
  C75      1.0000 0.66370  0.83710  0.77090  Biso   1.000  C
  H33      1.0000 0.66340  0.87460  0.75120  Biso   1.000  H
  C76      1.0000 0.69910  0.79700  0.73630  Biso   1.000  C
  H34      1.0000 0.72080  0.80670  0.69090  Biso   1.000  H
  C77      1.0000 0.70260  0.74420  0.76690  Biso   1.000  C
  C78      1.0000 0.66760  0.73020  0.82870  Biso   1.000  C
  C79      1.0000 0.62980  0.76850  0.86150  Biso   1.000  C
  H35      1.0000 0.60480  0.75730  0.90260  Biso   1.000  H
  F49      1.0000 0.65880  0.62780  0.82690  Biso   1.000  F
  F50      1.0000 0.63390  0.66550  0.93640  Biso   1.000  F
  C80      1.0000 0.66940  0.67540  0.87400  Biso   1.000  C
  F51      1.0000 0.71990  0.65660  0.90660  Biso   1.000  F
  H36      1.0000 0.66910  0.69320  0.84970  Biso   1.000  H
  F52      1.0000 0.72450  0.87330  0.63900  Biso   1.000  F
  F53      1.0000 0.79080  0.82120  0.67680  Biso   1.000  F
  F54      1.0000 0.72960  0.79050  0.59550  Biso   1.000  F
  C81      1.0000 0.73280  0.82040  0.66770  Biso   1.000  C
  O19      1.0000 0.44234  0.15082  0.92030  Biso   1.000  O
  O20      1.0000 0.39822  0.08360  0.84940  Biso   1.000  O
  C82      1.0000 0.40700  0.13420  0.87050  Biso   1.000  C
  C83      1.0000 0.37050  0.17730  0.83340  Biso   1.000  C
  C84      1.0000 0.33630  0.16290  0.77090  Biso   1.000  C
  H37      1.0000 0.33660  0.12540  0.75120  Biso   1.000  H
  C85      1.0000 0.30090  0.20300  0.73630  Biso   1.000  C
  H38      1.0000 0.27920  0.19330  0.69090  Biso   1.000  H
  C86      1.0000 0.29740  0.25580  0.76690  Biso   1.000  C
  C87      1.0000 0.33240  0.26980  0.82870  Biso   1.000  C
  C88      1.0000 0.37020  0.23150  0.86150  Biso   1.000  C
  H39      1.0000 0.39520  0.24270  0.90260  Biso   1.000  H
  F55      1.0000 0.34120  0.37220  0.82690  Biso   1.000  F
  F56      1.0000 0.36610  0.33450  0.93640  Biso   1.000  F
  C89      1.0000 0.33060  0.32460  0.87400  Biso   1.000  C
  F57      1.0000 0.28010  0.34340  0.90660  Biso   1.000  F
  H40      1.0000 0.33090  0.30680  0.84970  Biso   1.000  H
  F58      1.0000 0.27550  0.12670  0.63900  Biso   1.000  F
  F59      1.0000 0.20920  0.17880  0.67680  Biso   1.000  F
  F60      1.0000 0.27040  0.20950  0.59550  Biso   1.000  F
  C90      1.0000 0.26720  0.17960  0.66770  Biso   1.000  C
  O21      1.0000 0.15082  0.55766  0.42030  Biso   1.000  O
  O22      1.0000 0.08360  0.60178  0.34940  Biso   1.000  O
  C91      1.0000 0.13420  0.59300  0.37050  Biso   1.000  C
  C92      1.0000 0.17730  0.62950  0.33340  Biso   1.000  C
  C93      1.0000 0.16290  0.66370  0.27090  Biso   1.000  C
  H41      1.0000 0.12540  0.66340  0.25120  Biso   1.000  H
  C94      1.0000 0.20300  0.69910  0.23630  Biso   1.000  C
  H42      1.0000 0.19330  0.72080  0.19090  Biso   1.000  H
  C95      1.0000 0.25580  0.70260  0.26690  Biso   1.000  C
  C96      1.0000 0.26980  0.66760  0.32870  Biso   1.000  C
  C97      1.0000 0.23150  0.62980  0.36150  Biso   1.000  C
  H43      1.0000 0.24270  0.60480  0.40260  Biso   1.000  H
  F61      1.0000 0.37220  0.65880  0.32690  Biso   1.000  F
  F62      1.0000 0.33450  0.63390  0.43640  Biso   1.000  F
  C98      1.0000 0.32460  0.66940  0.37400  Biso   1.000  C
  F63      1.0000 0.34340  0.71990  0.40660  Biso   1.000  F
  H44      1.0000 0.30680  0.66910  0.34970  Biso   1.000  H
  F64      1.0000 0.12670  0.72450  0.13900  Biso   1.000  F
  F65      1.0000 0.17880  0.79080  0.17680  Biso   1.000  F
  F66      1.0000 0.20950  0.72960  0.09550  Biso   1.000  F
  C99      1.0000 0.17960  0.73280  0.16770  Biso   1.000  C
  O23      1.0000 0.84918  0.44234  0.42030  Biso   1.000  O
  O24      1.0000 0.91640  0.39822  0.34940  Biso   1.000  O
  C100     1.0000 0.86580  0.40700  0.37050  Biso   1.000  C
  C101     1.0000 0.82270  0.37050  0.33340  Biso   1.000  C
  C102     1.0000 0.83710  0.33630  0.27090  Biso   1.000  C
  H45      1.0000 0.87460  0.33660  0.25120  Biso   1.000  H
  C103     1.0000 0.79700  0.30090  0.23630  Biso   1.000  C
  H46      1.0000 0.80670  0.27920  0.19090  Biso   1.000  H
  C104     1.0000 0.74420  0.29740  0.26690  Biso   1.000  C
  C105     1.0000 0.73020  0.33240  0.32870  Biso   1.000  C
  C106     1.0000 0.76850  0.37020  0.36150  Biso   1.000  C
  H47      1.0000 0.75730  0.39520  0.40260  Biso   1.000  H
  F67      1.0000 0.62780  0.34120  0.32690  Biso   1.000  F
  F68      1.0000 0.66550  0.36610  0.43640  Biso   1.000  F
  C107     1.0000 0.67540  0.33060  0.37400  Biso   1.000  C
  F69      1.0000 0.65660  0.28010  0.40660  Biso   1.000  F
  H48      1.0000 0.69320  0.33090  0.34970  Biso   1.000  H
  F70      1.0000 0.87330  0.27550  0.13900  Biso   1.000  F
  F71      1.0000 0.82120  0.20920  0.17680  Biso   1.000  F
  F72      1.0000 0.79050  0.27040  0.09550  Biso   1.000  F
  C108     1.0000 0.82040  0.26720  0.16770  Biso   1.000  C
  O25      1.0000 0.44234  0.84918  0.07970  Biso   1.000  O
  O26      1.0000 0.39822  0.91640  0.15060  Biso   1.000  O
  C109     1.0000 0.40700  0.86580  0.12950  Biso   1.000  C
  C110     1.0000 0.37050  0.82270  0.16660  Biso   1.000  C
  C111     1.0000 0.33630  0.83710  0.22910  Biso   1.000  C
  H49      1.0000 0.33660  0.87460  0.24880  Biso   1.000  H
  C112     1.0000 0.30090  0.79700  0.26370  Biso   1.000  C
  H50      1.0000 0.27920  0.80670  0.30910  Biso   1.000  H
  C113     1.0000 0.29740  0.74420  0.23310  Biso   1.000  C
  C114     1.0000 0.33240  0.73020  0.17130  Biso   1.000  C
  C115     1.0000 0.37020  0.76850  0.13850  Biso   1.000  C
  H51      1.0000 0.39520  0.75730  0.09740  Biso   1.000  H
  F73      1.0000 0.34120  0.62780  0.17310  Biso   1.000  F
  F74      1.0000 0.36610  0.66550  0.06360  Biso   1.000  F
  C116     1.0000 0.33060  0.67540  0.12600  Biso   1.000  C
  F75      1.0000 0.28010  0.65660  0.09340  Biso   1.000  F
  H52      1.0000 0.33090  0.69320  0.15030  Biso   1.000  H
  F76      1.0000 0.27550  0.87330  0.36100  Biso   1.000  F
  F77      1.0000 0.20920  0.82120  0.32320  Biso   1.000  F
  F78      1.0000 0.27040  0.79050  0.40450  Biso   1.000  F
  C117     1.0000 0.26720  0.82040  0.33230  Biso   1.000  C
  O27      1.0000 0.55766  0.15082  0.07970  Biso   1.000  O
  O28      1.0000 0.60178  0.08360  0.15060  Biso   1.000  O
  C118     1.0000 0.59300  0.13420  0.12950  Biso   1.000  C
  C119     1.0000 0.62950  0.17730  0.16660  Biso   1.000  C
  C120     1.0000 0.66370  0.16290  0.22910  Biso   1.000  C
  H53      1.0000 0.66340  0.12540  0.24880  Biso   1.000  H
  C121     1.0000 0.69910  0.20300  0.26370  Biso   1.000  C
  H54      1.0000 0.72080  0.19330  0.30910  Biso   1.000  H
  C122     1.0000 0.70260  0.25580  0.23310  Biso   1.000  C
  C123     1.0000 0.66760  0.26980  0.17130  Biso   1.000  C
  C124     1.0000 0.62980  0.23150  0.13850  Biso   1.000  C
  H55      1.0000 0.60480  0.24270  0.09740  Biso   1.000  H
  F79      1.0000 0.65880  0.37220  0.17310  Biso   1.000  F
  F80      1.0000 0.63390  0.33450  0.06360  Biso   1.000  F
  C125     1.0000 0.66940  0.32460  0.12600  Biso   1.000  C
  F81      1.0000 0.71990  0.34340  0.09340  Biso   1.000  F
  H56      1.0000 0.66910  0.30680  0.15030  Biso   1.000  H
  F82      1.0000 0.72450  0.12670  0.36100  Biso   1.000  F
  F83      1.0000 0.79080  0.17880  0.32320  Biso   1.000  F
  F84      1.0000 0.72960  0.20950  0.40450  Biso   1.000  F
  C126     1.0000 0.73280  0.17960  0.33230  Biso   1.000  C
  O29      1.0000 0.84918  0.55766  0.57970  Biso   1.000  O
  O30      1.0000 0.91640  0.60178  0.65060  Biso   1.000  O
  C127     1.0000 0.86580  0.59300  0.62950  Biso   1.000  C
  C128     1.0000 0.82270  0.62950  0.66660  Biso   1.000  C
  C129     1.0000 0.83710  0.66370  0.72910  Biso   1.000  C
  H57      1.0000 0.87460  0.66340  0.74880  Biso   1.000  H
  C130     1.0000 0.79700  0.69910  0.76370  Biso   1.000  C
  H58      1.0000 0.80670  0.72080  0.80910  Biso   1.000  H
  C131     1.0000 0.74420  0.70260  0.73310  Biso   1.000  C
  C132     1.0000 0.73020  0.66760  0.67130  Biso   1.000  C
  C133     1.0000 0.76850  0.62980  0.63850  Biso   1.000  C
  H59      1.0000 0.75730  0.60480  0.59740  Biso   1.000  H
  F85      1.0000 0.62780  0.65880  0.67310  Biso   1.000  F
  F86      1.0000 0.66550  0.63390  0.56360  Biso   1.000  F
  C134     1.0000 0.67540  0.66940  0.62600  Biso   1.000  C
  F87      1.0000 0.65660  0.71990  0.59340  Biso   1.000  F
  H60      1.0000 0.69320  0.66910  0.65030  Biso   1.000  H
  F88      1.0000 0.87330  0.72450  0.86100  Biso   1.000  F
  F89      1.0000 0.82120  0.79080  0.82320  Biso   1.000  F
  F90      1.0000 0.79050  0.72960  0.90450  Biso   1.000  F
  C135     1.0000 0.82040  0.73280  0.83230  Biso   1.000  C
  O31      1.0000 0.15082  0.44234  0.57970  Biso   1.000  O
  O32      1.0000 0.08360  0.39822  0.65060  Biso   1.000  O
  C136     1.0000 0.13420  0.40700  0.62950  Biso   1.000  C
  C137     1.0000 0.17730  0.37050  0.66660  Biso   1.000  C
  C138     1.0000 0.16290  0.33630  0.72910  Biso   1.000  C
  H61      1.0000 0.12540  0.33660  0.74880  Biso   1.000  H
  C139     1.0000 0.20300  0.30090  0.76370  Biso   1.000  C
  H62      1.0000 0.19330  0.27920  0.80910  Biso   1.000  H
  C140     1.0000 0.25580  0.29740  0.73310  Biso   1.000  C
  C141     1.0000 0.26980  0.33240  0.67130  Biso   1.000  C
  C142     1.0000 0.23150  0.37020  0.63850  Biso   1.000  C
  H63      1.0000 0.24270  0.39520  0.59740  Biso   1.000  H
  F91      1.0000 0.37220  0.34120  0.67310  Biso   1.000  F
  F92      1.0000 0.33450  0.36610  0.56360  Biso   1.000  F
  C143     1.0000 0.32460  0.33060  0.62600  Biso   1.000  C
  F93      1.0000 0.34340  0.28010  0.59340  Biso   1.000  F
  H64      1.0000 0.30680  0.33090  0.65030  Biso   1.000  H
  F94      1.0000 0.12670  0.27550  0.86100  Biso   1.000  F
  F95      1.0000 0.17880  0.20920  0.82320  Biso   1.000  F
  F96      1.0000 0.20950  0.27040  0.90450  Biso   1.000  F
  C144     1.0000 0.17960  0.26720  0.83230  Biso   1.000  C
  Zr1      1.0000 0.50000  0.10411  0.00000  Biso   1.000  Zr
  Zr2      1.0000 0.50000  0.89589  0.00000  Biso   1.000  Zr
  Zr3      1.0000 0.89589  0.50000  0.50000  Biso   1.000  Zr
  Zr4      1.0000 0.10411  0.50000  0.50000  Biso   1.000  Zr
  Zr5      1.0000 0.42687  0.00000  0.10496  Biso   1.000  Zr
  O33      1.0000 0.45300  0.00000  0.23090  Biso   1.000  O
  C145     1.0000 0.44300  0.00000  0.37540  Biso   1.000  C
  H65      1.0000 0.41350  0.00000  0.33740  Biso   1.000  H
  C146     1.0000 0.42930  0.00000  0.45670  Biso   1.000  C
  H66      1.0000 0.39060  0.00000  0.47070  Biso   1.000  H
  C147     1.0000 0.47212  0.00000  0.51190  Biso   1.000  C
  C148     1.0000 0.54160  0.00000  0.40720  Biso   1.000  C
  H67      1.0000 0.58070  0.00000  0.39370  Biso   1.000  H
  Zr6      1.0000 0.57313  0.00000  0.10496  Biso   1.000  Zr
  O34      1.0000 0.54700  0.00000  0.23090  Biso   1.000  O
  C149     1.0000 0.55700  0.00000  0.37540  Biso   1.000  C
  H68      1.0000 0.58650  0.00000  0.33740  Biso   1.000  H
  C150     1.0000 0.57070  0.00000  0.45670  Biso   1.000  C
  H69      1.0000 0.60940  0.00000  0.47070  Biso   1.000  H
  C151     1.0000 0.52788  0.00000  0.51190  Biso   1.000  C
  C152     1.0000 0.45840  0.00000  0.40720  Biso   1.000  C
  H70      1.0000 0.41930  0.00000  0.39370  Biso   1.000  H
  Zr7      1.0000 0.00000  0.42687  0.60496  Biso   1.000  Zr
  O35      1.0000 0.00000  0.45300  0.73090  Biso   1.000  O
  C153     1.0000 0.00000  0.44300  0.87540  Biso   1.000  C
  H71      1.0000 0.00000  0.41350  0.83740  Biso   1.000  H
  C154     1.0000 0.00000  0.42930  0.95670  Biso   1.000  C
  H72      1.0000 0.00000  0.39060  0.97070  Biso   1.000  H
  C155     1.0000 0.00000  0.47212  0.01190  Biso   1.000  C
  C156     1.0000 0.00000  0.54160  0.90720  Biso   1.000  C
  H73      1.0000 0.00000  0.58070  0.89370  Biso   1.000  H
  Zr8      1.0000 0.00000  0.57313  0.60496  Biso   1.000  Zr
  O36      1.0000 0.00000  0.54700  0.73090  Biso   1.000  O
  C157     1.0000 0.00000  0.55700  0.87540  Biso   1.000  C
  H74      1.0000 0.00000  0.58650  0.83740  Biso   1.000  H
  C158     1.0000 0.00000  0.57070  0.95670  Biso   1.000  C
  H75      1.0000 0.00000  0.60940  0.97070  Biso   1.000  H
  C159     1.0000 0.00000  0.52788  0.01190  Biso   1.000  C
  C160     1.0000 0.00000  0.45840  0.90720  Biso   1.000  C
  H76      1.0000 0.00000  0.41930  0.89370  Biso   1.000  H
  Zr9      1.0000 0.57313  0.00000  0.89504  Biso   1.000  Zr
  O37      1.0000 0.54700  0.00000  0.76910  Biso   1.000  O
  C161     1.0000 0.55700  0.00000  0.62460  Biso   1.000  C
  H77      1.0000 0.58650  0.00000  0.66260  Biso   1.000  H
  C162     1.0000 0.57070  0.00000  0.54330  Biso   1.000  C
  H78      1.0000 0.60940  0.00000  0.52930  Biso   1.000  H
  C163     1.0000 0.52788  0.00000  0.48810  Biso   1.000  C
  C164     1.0000 0.45840  0.00000  0.59280  Biso   1.000  C
  H79      1.0000 0.41930  0.00000  0.60630  Biso   1.000  H
  Zr10     1.0000 0.42687  0.00000  0.89504  Biso   1.000  Zr
  O38      1.0000 0.45300  0.00000  0.76910  Biso   1.000  O
  C165     1.0000 0.44300  0.00000  0.62460  Biso   1.000  C
  H80      1.0000 0.41350  0.00000  0.66260  Biso   1.000  H
  C166     1.0000 0.42930  0.00000  0.54330  Biso   1.000  C
  H81      1.0000 0.39060  0.00000  0.52930  Biso   1.000  H
  C167     1.0000 0.47212  0.00000  0.48810  Biso   1.000  C
  C168     1.0000 0.54160  0.00000  0.59280  Biso   1.000  C
  H82      1.0000 0.58070  0.00000  0.60630  Biso   1.000  H
  Zr11     1.0000 0.00000  0.42687  0.39504  Biso   1.000  Zr
  O39      1.0000 0.00000  0.45300  0.26910  Biso   1.000  O
  C169     1.0000 0.00000  0.44300  0.12460  Biso   1.000  C
  H83      1.0000 0.00000  0.41350  0.16260  Biso   1.000  H
  C170     1.0000 0.00000  0.42930  0.04330  Biso   1.000  C
  H84      1.0000 0.00000  0.39060  0.02930  Biso   1.000  H
  C171     1.0000 0.00000  0.47212  0.98810  Biso   1.000  C
  C172     1.0000 0.00000  0.54160  0.09280  Biso   1.000  C
  H85      1.0000 0.00000  0.58070  0.10630  Biso   1.000  H
  Zr12     1.0000 0.00000  0.57313  0.39504  Biso   1.000  Zr
  O40      1.0000 0.00000  0.54700  0.26910  Biso   1.000  O
  C173     1.0000 0.00000  0.55700  0.12460  Biso   1.000  C
  H86      1.0000 0.00000  0.58650  0.16260  Biso   1.000  H
  C174     1.0000 0.00000  0.57070  0.04330  Biso   1.000  C
  H87      1.0000 0.00000  0.60940  0.02930  Biso   1.000  H
  C175     1.0000 0.00000  0.52788  0.98810  Biso   1.000  C
  C176     1.0000 0.00000  0.45840  0.09280  Biso   1.000  C
  H88      1.0000 0.00000  0.41930  0.10630  Biso   1.000  H
  O41      1.0000 0.42410  0.05070  0.00000  Biso   1.000  O
  O42      1.0000 0.57590  0.94930  0.00000  Biso   1.000  O
  O43      1.0000 0.94930  0.42410  0.50000  Biso   1.000  O
  O44      1.0000 0.05070  0.57590  0.50000  Biso   1.000  O
  O45      1.0000 0.57590  0.05070  0.00000  Biso   1.000  O
  O46      1.0000 0.42410  0.94930  0.00000  Biso   1.000  O
  O47      1.0000 0.05070  0.42410  0.50000  Biso   1.000  O
  O48      1.0000 0.94930  0.57590  0.50000  Biso   1.000  O
  O49      1.0000 0.50000  0.05080  0.09980  Biso   1.000  O
  O50      1.0000 0.50000  0.94920  0.09980  Biso   1.000  O
  O51      1.0000 0.94920  0.50000  0.59980  Biso   1.000  O
  O52      1.0000 0.05080  0.50000  0.59980  Biso   1.000  O
  O53      1.0000 0.50000  0.05080  0.90020  Biso   1.000  O
  O54      1.0000 0.50000  0.94920  0.90020  Biso   1.000  O
  O55      1.0000 0.05080  0.50000  0.40020  Biso   1.000  O
  O56      1.0000 0.94920  0.50000  0.40020  Biso   1.000  O
  C177     1.0000 0.50000  0.00000  0.26560  Biso   1.000  C
  C178     1.0000 0.50000  0.00000  0.35150  Biso   1.000  C
  C179     1.0000 0.00000  0.50000  0.76560  Biso   1.000  C
  C180     1.0000 0.00000  0.50000  0.85150  Biso   1.000  C
  C181     1.0000 0.50000  0.00000  0.73440  Biso   1.000  C
  C182     1.0000 0.50000  0.00000  0.64850  Biso   1.000  C
  C183     1.0000 0.00000  0.50000  0.23440  Biso   1.000  C
  C184     1.0000 0.00000  0.50000  0.14850  Biso   1.000  C
