data_image0
_cell_length_a       24.295
_cell_length_b       24.295
_cell_length_c       15.0574
_cell_angle_alpha    90
_cell_angle_beta     90
_cell_angle_gamma    90

_symmetry_space_group_name_H-M    "P 1"
_symmetry_int_tables_number       1

loop_
  _symmetry_equiv_pos_as_xyz
  'x, y, z'

loop_
  _atom_site_label
  _atom_site_occupancy
  _atom_site_fract_x
  _atom_site_fract_y
  _atom_site_fract_z
  _atom_site_thermal_displace_type
  _atom_site_B_iso_or_equiv
  _atom_site_type_symbol
  F1       1.0000 0.34440  0.29400  0.08030  Biso   1.000  F
  F2       1.0000 0.32980  0.38100  0.05760  Biso   1.000  F
  F3       1.0000 0.36700  0.35130  0.18480  Biso   1.000  F
  O1       1.0000 0.14785  0.44465  0.08780  Biso   1.000  O
  O2       1.0000 0.08362  0.39754  0.16460  Biso   1.000  O
  C1       1.0000 0.25420  0.29630  0.23290  Biso   1.000  C
  C2       1.0000 0.26690  0.33420  0.16910  Biso   1.000  C
  C3       1.0000 0.22760  0.37140  0.13900  Biso   1.000  C
  H1       1.0000 0.23660  0.39750  0.09450  Biso   1.000  H
  C4       1.0000 0.17580  0.36980  0.17410  Biso   1.000  C
  C5       1.0000 0.16270  0.33440  0.24130  Biso   1.000  C
  H2       1.0000 0.12720  0.33570  0.26780  Biso   1.000  H
  C6       1.0000 0.20150  0.29650  0.27100  Biso   1.000  C
  H3       1.0000 0.19240  0.27110  0.31660  Biso   1.000  H
  C7       1.0000 0.13260  0.40740  0.13880  Biso   1.000  C
  C8       1.0000 0.32250  0.34160  0.12440  Biso   1.000  C
  H4       1.0000 0.30310  0.33510  0.14500  Biso   1.000  H
  F4       1.0000 0.21490  0.25360  0.42050  Biso   1.000  F
  F5       1.0000 0.12900  0.27250  0.38700  Biso   1.000  F
  C9       1.0000 0.17960  0.25970  0.34490  Biso   1.000  C
  F6       1.0000 0.17030  0.20340  0.32240  Biso   1.000  F
  F7       1.0000 0.65560  0.70600  0.08030  Biso   1.000  F
  F8       1.0000 0.67020  0.61900  0.05760  Biso   1.000  F
  F9       1.0000 0.63300  0.64870  0.18480  Biso   1.000  F
  O3       1.0000 0.85215  0.55535  0.08780  Biso   1.000  O
  O4       1.0000 0.91638  0.60246  0.16460  Biso   1.000  O
  C10      1.0000 0.74580  0.70370  0.23290  Biso   1.000  C
  C11      1.0000 0.73310  0.66580  0.16910  Biso   1.000  C
  C12      1.0000 0.77240  0.62860  0.13900  Biso   1.000  C
  H5       1.0000 0.76340  0.60250  0.09450  Biso   1.000  H
  C13      1.0000 0.82420  0.63020  0.17410  Biso   1.000  C
  C14      1.0000 0.83730  0.66560  0.24130  Biso   1.000  C
  H6       1.0000 0.87280  0.66430  0.26780  Biso   1.000  H
  C15      1.0000 0.79850  0.70350  0.27100  Biso   1.000  C
  H7       1.0000 0.80760  0.72890  0.31660  Biso   1.000  H
  C16      1.0000 0.86740  0.59260  0.13880  Biso   1.000  C
  C17      1.0000 0.67750  0.65840  0.12440  Biso   1.000  C
  H8       1.0000 0.69690  0.66490  0.14500  Biso   1.000  H
  F10      1.0000 0.78510  0.74640  0.42050  Biso   1.000  F
  F11      1.0000 0.87100  0.72750  0.38700  Biso   1.000  F
  C18      1.0000 0.82040  0.74030  0.34490  Biso   1.000  C
  F12      1.0000 0.82970  0.79660  0.32240  Biso   1.000  F
  F13      1.0000 0.70600  0.34440  0.58030  Biso   1.000  F
  F14      1.0000 0.61900  0.32980  0.55760  Biso   1.000  F
  F15      1.0000 0.64870  0.36700  0.68480  Biso   1.000  F
  O5       1.0000 0.55535  0.14785  0.58780  Biso   1.000  O
  O6       1.0000 0.60246  0.08362  0.66460  Biso   1.000  O
  C19      1.0000 0.70370  0.25420  0.73290  Biso   1.000  C
  C20      1.0000 0.66580  0.26690  0.66910  Biso   1.000  C
  C21      1.0000 0.62860  0.22760  0.63900  Biso   1.000  C
  H9       1.0000 0.60250  0.23660  0.59450  Biso   1.000  H
  C22      1.0000 0.63020  0.17580  0.67410  Biso   1.000  C
  C23      1.0000 0.66560  0.16270  0.74130  Biso   1.000  C
  H10      1.0000 0.66430  0.12720  0.76780  Biso   1.000  H
  C24      1.0000 0.70350  0.20150  0.77100  Biso   1.000  C
  H11      1.0000 0.72890  0.19240  0.81660  Biso   1.000  H
  C25      1.0000 0.59260  0.13260  0.63880  Biso   1.000  C
  C26      1.0000 0.65840  0.32250  0.62440  Biso   1.000  C
  H12      1.0000 0.66490  0.30310  0.64500  Biso   1.000  H
  F16      1.0000 0.74640  0.21490  0.92050  Biso   1.000  F
  F17      1.0000 0.72750  0.12900  0.88700  Biso   1.000  F
  C27      1.0000 0.74030  0.17960  0.84490  Biso   1.000  C
  F18      1.0000 0.79660  0.17030  0.82240  Biso   1.000  F
  F19      1.0000 0.29400  0.65560  0.58030  Biso   1.000  F
  F20      1.0000 0.38100  0.67020  0.55760  Biso   1.000  F
  F21      1.0000 0.35130  0.63300  0.68480  Biso   1.000  F
  O7       1.0000 0.44465  0.85215  0.58780  Biso   1.000  O
  O8       1.0000 0.39754  0.91638  0.66460  Biso   1.000  O
  C28      1.0000 0.29630  0.74580  0.73290  Biso   1.000  C
  C29      1.0000 0.33420  0.73310  0.66910  Biso   1.000  C
  C30      1.0000 0.37140  0.77240  0.63900  Biso   1.000  C
  H13      1.0000 0.39750  0.76340  0.59450  Biso   1.000  H
  C31      1.0000 0.36980  0.82420  0.67410  Biso   1.000  C
  C32      1.0000 0.33440  0.83730  0.74130  Biso   1.000  C
  H14      1.0000 0.33570  0.87280  0.76780  Biso   1.000  H
  C33      1.0000 0.29650  0.79850  0.77100  Biso   1.000  C
  H15      1.0000 0.27110  0.80760  0.81660  Biso   1.000  H
  C34      1.0000 0.40740  0.86740  0.63880  Biso   1.000  C
  C35      1.0000 0.34160  0.67750  0.62440  Biso   1.000  C
  H16      1.0000 0.33510  0.69690  0.64500  Biso   1.000  H
  F22      1.0000 0.25360  0.78510  0.92050  Biso   1.000  F
  F23      1.0000 0.27250  0.87100  0.88700  Biso   1.000  F
  C36      1.0000 0.25970  0.82040  0.84490  Biso   1.000  C
  F24      1.0000 0.20340  0.82970  0.82240  Biso   1.000  F
  F25      1.0000 0.65560  0.29400  0.91970  Biso   1.000  F
  F26      1.0000 0.67020  0.38100  0.94240  Biso   1.000  F
  F27      1.0000 0.63300  0.35130  0.81520  Biso   1.000  F
  O9       1.0000 0.85215  0.44465  0.91220  Biso   1.000  O
  O10      1.0000 0.91638  0.39754  0.83540  Biso   1.000  O
  C37      1.0000 0.74580  0.29630  0.76710  Biso   1.000  C
  C38      1.0000 0.73310  0.33420  0.83090  Biso   1.000  C
  C39      1.0000 0.77240  0.37140  0.86100  Biso   1.000  C
  H17      1.0000 0.76340  0.39750  0.90550  Biso   1.000  H
  C40      1.0000 0.82420  0.36980  0.82590  Biso   1.000  C
  C41      1.0000 0.83730  0.33440  0.75870  Biso   1.000  C
  H18      1.0000 0.87280  0.33570  0.73220  Biso   1.000  H
  C42      1.0000 0.79850  0.29650  0.72900  Biso   1.000  C
  H19      1.0000 0.80760  0.27110  0.68340  Biso   1.000  H
  C43      1.0000 0.86740  0.40740  0.86120  Biso   1.000  C
  C44      1.0000 0.67750  0.34160  0.87560  Biso   1.000  C
  H20      1.0000 0.69690  0.33510  0.85500  Biso   1.000  H
  F28      1.0000 0.78510  0.25360  0.57950  Biso   1.000  F
  F29      1.0000 0.87100  0.27250  0.61300  Biso   1.000  F
  C45      1.0000 0.82040  0.25970  0.65510  Biso   1.000  C
  F30      1.0000 0.82970  0.20340  0.67760  Biso   1.000  F
  F31      1.0000 0.34440  0.70600  0.91970  Biso   1.000  F
  F32      1.0000 0.32980  0.61900  0.94240  Biso   1.000  F
  F33      1.0000 0.36700  0.64870  0.81520  Biso   1.000  F
  O11      1.0000 0.14785  0.55535  0.91220  Biso   1.000  O
  O12      1.0000 0.08362  0.60246  0.83540  Biso   1.000  O
  C46      1.0000 0.25420  0.70370  0.76710  Biso   1.000  C
  C47      1.0000 0.26690  0.66580  0.83090  Biso   1.000  C
  C48      1.0000 0.22760  0.62860  0.86100  Biso   1.000  C
  H21      1.0000 0.23660  0.60250  0.90550  Biso   1.000  H
  C49      1.0000 0.17580  0.63020  0.82590  Biso   1.000  C
  C50      1.0000 0.16270  0.66560  0.75870  Biso   1.000  C
  H22      1.0000 0.12720  0.66430  0.73220  Biso   1.000  H
  C51      1.0000 0.20150  0.70350  0.72900  Biso   1.000  C
  H23      1.0000 0.19240  0.72890  0.68340  Biso   1.000  H
  C52      1.0000 0.13260  0.59260  0.86120  Biso   1.000  C
  C53      1.0000 0.32250  0.65840  0.87560  Biso   1.000  C
  H24      1.0000 0.30310  0.66490  0.85500  Biso   1.000  H
  F34      1.0000 0.21490  0.74640  0.57950  Biso   1.000  F
  F35      1.0000 0.12900  0.72750  0.61300  Biso   1.000  F
  C54      1.0000 0.17960  0.74030  0.65510  Biso   1.000  C
  F36      1.0000 0.17030  0.79660  0.67760  Biso   1.000  F
  F37      1.0000 0.29400  0.34440  0.41970  Biso   1.000  F
  F38      1.0000 0.38100  0.32980  0.44240  Biso   1.000  F
  F39      1.0000 0.35130  0.36700  0.31520  Biso   1.000  F
  O13      1.0000 0.44465  0.14785  0.41220  Biso   1.000  O
  O14      1.0000 0.39754  0.08362  0.33540  Biso   1.000  O
  C55      1.0000 0.29630  0.25420  0.26710  Biso   1.000  C
  C56      1.0000 0.33420  0.26690  0.33090  Biso   1.000  C
  C57      1.0000 0.37140  0.22760  0.36100  Biso   1.000  C
  H25      1.0000 0.39750  0.23660  0.40550  Biso   1.000  H
  C58      1.0000 0.36980  0.17580  0.32590  Biso   1.000  C
  C59      1.0000 0.33440  0.16270  0.25870  Biso   1.000  C
  H26      1.0000 0.33570  0.12720  0.23220  Biso   1.000  H
  C60      1.0000 0.29650  0.20150  0.22900  Biso   1.000  C
  H27      1.0000 0.27110  0.19240  0.18340  Biso   1.000  H
  C61      1.0000 0.40740  0.13260  0.36120  Biso   1.000  C
  C62      1.0000 0.34160  0.32250  0.37560  Biso   1.000  C
  H28      1.0000 0.33510  0.30310  0.35500  Biso   1.000  H
  F40      1.0000 0.25360  0.21490  0.07950  Biso   1.000  F
  F41      1.0000 0.27250  0.12900  0.11300  Biso   1.000  F
  C63      1.0000 0.25970  0.17960  0.15510  Biso   1.000  C
  F42      1.0000 0.20340  0.17030  0.17760  Biso   1.000  F
  F43      1.0000 0.70600  0.65560  0.41970  Biso   1.000  F
  F44      1.0000 0.61900  0.67020  0.44240  Biso   1.000  F
  F45      1.0000 0.64870  0.63300  0.31520  Biso   1.000  F
  O15      1.0000 0.55535  0.85215  0.41220  Biso   1.000  O
  O16      1.0000 0.60246  0.91638  0.33540  Biso   1.000  O
  C64      1.0000 0.70370  0.74580  0.26710  Biso   1.000  C
  C65      1.0000 0.66580  0.73310  0.33090  Biso   1.000  C
  C66      1.0000 0.62860  0.77240  0.36100  Biso   1.000  C
  H29      1.0000 0.60250  0.76340  0.40550  Biso   1.000  H
  C67      1.0000 0.63020  0.82420  0.32590  Biso   1.000  C
  C68      1.0000 0.66560  0.83730  0.25870  Biso   1.000  C
  H30      1.0000 0.66430  0.87280  0.23220  Biso   1.000  H
  C69      1.0000 0.70350  0.79850  0.22900  Biso   1.000  C
  H31      1.0000 0.72890  0.80760  0.18340  Biso   1.000  H
  C70      1.0000 0.59260  0.86740  0.36120  Biso   1.000  C
  C71      1.0000 0.65840  0.67750  0.37560  Biso   1.000  C
  H32      1.0000 0.66490  0.69690  0.35500  Biso   1.000  H
  F46      1.0000 0.74640  0.78510  0.07950  Biso   1.000  F
  F47      1.0000 0.72750  0.87100  0.11300  Biso   1.000  F
  C72      1.0000 0.74030  0.82040  0.15510  Biso   1.000  C
  F48      1.0000 0.79660  0.82970  0.17760  Biso   1.000  F
  F49      1.0000 0.65560  0.70600  0.91970  Biso   1.000  F
  F50      1.0000 0.67020  0.61900  0.94240  Biso   1.000  F
  F51      1.0000 0.63300  0.64870  0.81520  Biso   1.000  F
  O17      1.0000 0.85215  0.55535  0.91220  Biso   1.000  O
  O18      1.0000 0.91638  0.60246  0.83540  Biso   1.000  O
  C73      1.0000 0.74580  0.70370  0.76710  Biso   1.000  C
  C74      1.0000 0.73310  0.66580  0.83090  Biso   1.000  C
  C75      1.0000 0.77240  0.62860  0.86100  Biso   1.000  C
  H33      1.0000 0.76340  0.60250  0.90550  Biso   1.000  H
  C76      1.0000 0.82420  0.63020  0.82590  Biso   1.000  C
  C77      1.0000 0.83730  0.66560  0.75870  Biso   1.000  C
  H34      1.0000 0.87280  0.66430  0.73220  Biso   1.000  H
  C78      1.0000 0.79850  0.70350  0.72900  Biso   1.000  C
  H35      1.0000 0.80760  0.72890  0.68340  Biso   1.000  H
  C79      1.0000 0.86740  0.59260  0.86120  Biso   1.000  C
  C80      1.0000 0.67750  0.65840  0.87560  Biso   1.000  C
  H36      1.0000 0.69690  0.66490  0.85500  Biso   1.000  H
  F52      1.0000 0.78510  0.74640  0.57950  Biso   1.000  F
  F53      1.0000 0.87100  0.72750  0.61300  Biso   1.000  F
  C81      1.0000 0.82040  0.74030  0.65510  Biso   1.000  C
  F54      1.0000 0.82970  0.79660  0.67760  Biso   1.000  F
  F55      1.0000 0.34440  0.29400  0.91970  Biso   1.000  F
  F56      1.0000 0.32980  0.38100  0.94240  Biso   1.000  F
  F57      1.0000 0.36700  0.35130  0.81520  Biso   1.000  F
  O19      1.0000 0.14785  0.44465  0.91220  Biso   1.000  O
  O20      1.0000 0.08362  0.39754  0.83540  Biso   1.000  O
  C82      1.0000 0.25420  0.29630  0.76710  Biso   1.000  C
  C83      1.0000 0.26690  0.33420  0.83090  Biso   1.000  C
  C84      1.0000 0.22760  0.37140  0.86100  Biso   1.000  C
  H37      1.0000 0.23660  0.39750  0.90550  Biso   1.000  H
  C85      1.0000 0.17580  0.36980  0.82590  Biso   1.000  C
  C86      1.0000 0.16270  0.33440  0.75870  Biso   1.000  C
  H38      1.0000 0.12720  0.33570  0.73220  Biso   1.000  H
  C87      1.0000 0.20150  0.29650  0.72900  Biso   1.000  C
  H39      1.0000 0.19240  0.27110  0.68340  Biso   1.000  H
  C88      1.0000 0.13260  0.40740  0.86120  Biso   1.000  C
  C89      1.0000 0.32250  0.34160  0.87560  Biso   1.000  C
  H40      1.0000 0.30310  0.33510  0.85500  Biso   1.000  H
  F58      1.0000 0.21490  0.25360  0.57950  Biso   1.000  F
  F59      1.0000 0.12900  0.27250  0.61300  Biso   1.000  F
  C90      1.0000 0.17960  0.25970  0.65510  Biso   1.000  C
  F60      1.0000 0.17030  0.20340  0.67760  Biso   1.000  F
  F61      1.0000 0.29400  0.65560  0.41970  Biso   1.000  F
  F62      1.0000 0.38100  0.67020  0.44240  Biso   1.000  F
  F63      1.0000 0.35130  0.63300  0.31520  Biso   1.000  F
  O21      1.0000 0.44465  0.85215  0.41220  Biso   1.000  O
  O22      1.0000 0.39754  0.91638  0.33540  Biso   1.000  O
  C91      1.0000 0.29630  0.74580  0.26710  Biso   1.000  C
  C92      1.0000 0.33420  0.73310  0.33090  Biso   1.000  C
  C93      1.0000 0.37140  0.77240  0.36100  Biso   1.000  C
  H41      1.0000 0.39750  0.76340  0.40550  Biso   1.000  H
  C94      1.0000 0.36980  0.82420  0.32590  Biso   1.000  C
  C95      1.0000 0.33440  0.83730  0.25870  Biso   1.000  C
  H42      1.0000 0.33570  0.87280  0.23220  Biso   1.000  H
  C96      1.0000 0.29650  0.79850  0.22900  Biso   1.000  C
  H43      1.0000 0.27110  0.80760  0.18340  Biso   1.000  H
  C97      1.0000 0.40740  0.86740  0.36120  Biso   1.000  C
  C98      1.0000 0.34160  0.67750  0.37560  Biso   1.000  C
  H44      1.0000 0.33510  0.69690  0.35500  Biso   1.000  H
  F64      1.0000 0.25360  0.78510  0.07950  Biso   1.000  F
  F65      1.0000 0.27250  0.87100  0.11300  Biso   1.000  F
  C99      1.0000 0.25970  0.82040  0.15510  Biso   1.000  C
  F66      1.0000 0.20340  0.82970  0.17760  Biso   1.000  F
  F67      1.0000 0.70600  0.34440  0.41970  Biso   1.000  F
  F68      1.0000 0.61900  0.32980  0.44240  Biso   1.000  F
  F69      1.0000 0.64870  0.36700  0.31520  Biso   1.000  F
  O23      1.0000 0.55535  0.14785  0.41220  Biso   1.000  O
  O24      1.0000 0.60246  0.08362  0.33540  Biso   1.000  O
  C100     1.0000 0.70370  0.25420  0.26710  Biso   1.000  C
  C101     1.0000 0.66580  0.26690  0.33090  Biso   1.000  C
  C102     1.0000 0.62860  0.22760  0.36100  Biso   1.000  C
  H45      1.0000 0.60250  0.23660  0.40550  Biso   1.000  H
  C103     1.0000 0.63020  0.17580  0.32590  Biso   1.000  C
  C104     1.0000 0.66560  0.16270  0.25870  Biso   1.000  C
  H46      1.0000 0.66430  0.12720  0.23220  Biso   1.000  H
  C105     1.0000 0.70350  0.20150  0.22900  Biso   1.000  C
  H47      1.0000 0.72890  0.19240  0.18340  Biso   1.000  H
  C106     1.0000 0.59260  0.13260  0.36120  Biso   1.000  C
  C107     1.0000 0.65840  0.32250  0.37560  Biso   1.000  C
  H48      1.0000 0.66490  0.30310  0.35500  Biso   1.000  H
  F70      1.0000 0.74640  0.21490  0.07950  Biso   1.000  F
  F71      1.0000 0.72750  0.12900  0.11300  Biso   1.000  F
  C108     1.0000 0.74030  0.17960  0.15510  Biso   1.000  C
  F72      1.0000 0.79660  0.17030  0.17760  Biso   1.000  F
  F73      1.0000 0.34440  0.70600  0.08030  Biso   1.000  F
  F74      1.0000 0.32980  0.61900  0.05760  Biso   1.000  F
  F75      1.0000 0.36700  0.64870  0.18480  Biso   1.000  F
  O25      1.0000 0.14785  0.55535  0.08780  Biso   1.000  O
  O26      1.0000 0.08362  0.60246  0.16460  Biso   1.000  O
  C109     1.0000 0.25420  0.70370  0.23290  Biso   1.000  C
  C110     1.0000 0.26690  0.66580  0.16910  Biso   1.000  C
  C111     1.0000 0.22760  0.62860  0.13900  Biso   1.000  C
  H49      1.0000 0.23660  0.60250  0.09450  Biso   1.000  H
  C112     1.0000 0.17580  0.63020  0.17410  Biso   1.000  C
  C113     1.0000 0.16270  0.66560  0.24130  Biso   1.000  C
  H50      1.0000 0.12720  0.66430  0.26780  Biso   1.000  H
  C114     1.0000 0.20150  0.70350  0.27100  Biso   1.000  C
  H51      1.0000 0.19240  0.72890  0.31660  Biso   1.000  H
  C115     1.0000 0.13260  0.59260  0.13880  Biso   1.000  C
  C116     1.0000 0.32250  0.65840  0.12440  Biso   1.000  C
  H52      1.0000 0.30310  0.66490  0.14500  Biso   1.000  H
  F76      1.0000 0.21490  0.74640  0.42050  Biso   1.000  F
  F77      1.0000 0.12900  0.72750  0.38700  Biso   1.000  F
  C117     1.0000 0.17960  0.74030  0.34490  Biso   1.000  C
  F78      1.0000 0.17030  0.79660  0.32240  Biso   1.000  F
  F79      1.0000 0.65560  0.29400  0.08030  Biso   1.000  F
  F80      1.0000 0.67020  0.38100  0.05760  Biso   1.000  F
  F81      1.0000 0.63300  0.35130  0.18480  Biso   1.000  F
  O27      1.0000 0.85215  0.44465  0.08780  Biso   1.000  O
  O28      1.0000 0.91638  0.39754  0.16460  Biso   1.000  O
  C118     1.0000 0.74580  0.29630  0.23290  Biso   1.000  C
  C119     1.0000 0.73310  0.33420  0.16910  Biso   1.000  C
  C120     1.0000 0.77240  0.37140  0.13900  Biso   1.000  C
  H53      1.0000 0.76340  0.39750  0.09450  Biso   1.000  H
  C121     1.0000 0.82420  0.36980  0.17410  Biso   1.000  C
  C122     1.0000 0.83730  0.33440  0.24130  Biso   1.000  C
  H54      1.0000 0.87280  0.33570  0.26780  Biso   1.000  H
  C123     1.0000 0.79850  0.29650  0.27100  Biso   1.000  C
  H55      1.0000 0.80760  0.27110  0.31660  Biso   1.000  H
  C124     1.0000 0.86740  0.40740  0.13880  Biso   1.000  C
  C125     1.0000 0.67750  0.34160  0.12440  Biso   1.000  C
  H56      1.0000 0.69690  0.33510  0.14500  Biso   1.000  H
  F82      1.0000 0.78510  0.25360  0.42050  Biso   1.000  F
  F83      1.0000 0.87100  0.27250  0.38700  Biso   1.000  F
  C126     1.0000 0.82040  0.25970  0.34490  Biso   1.000  C
  F84      1.0000 0.82970  0.20340  0.32240  Biso   1.000  F
  F85      1.0000 0.70600  0.65560  0.58030  Biso   1.000  F
  F86      1.0000 0.61900  0.67020  0.55760  Biso   1.000  F
  F87      1.0000 0.64870  0.63300  0.68480  Biso   1.000  F
  O29      1.0000 0.55535  0.85215  0.58780  Biso   1.000  O
  O30      1.0000 0.60246  0.91638  0.66460  Biso   1.000  O
  C127     1.0000 0.70370  0.74580  0.73290  Biso   1.000  C
  C128     1.0000 0.66580  0.73310  0.66910  Biso   1.000  C
  C129     1.0000 0.62860  0.77240  0.63900  Biso   1.000  C
  H57      1.0000 0.60250  0.76340  0.59450  Biso   1.000  H
  C130     1.0000 0.63020  0.82420  0.67410  Biso   1.000  C
  C131     1.0000 0.66560  0.83730  0.74130  Biso   1.000  C
  H58      1.0000 0.66430  0.87280  0.76780  Biso   1.000  H
  C132     1.0000 0.70350  0.79850  0.77100  Biso   1.000  C
  H59      1.0000 0.72890  0.80760  0.81660  Biso   1.000  H
  C133     1.0000 0.59260  0.86740  0.63880  Biso   1.000  C
  C134     1.0000 0.65840  0.67750  0.62440  Biso   1.000  C
  H60      1.0000 0.66490  0.69690  0.64500  Biso   1.000  H
  F88      1.0000 0.74640  0.78510  0.92050  Biso   1.000  F
  F89      1.0000 0.72750  0.87100  0.88700  Biso   1.000  F
  C135     1.0000 0.74030  0.82040  0.84490  Biso   1.000  C
  F90      1.0000 0.79660  0.82970  0.82240  Biso   1.000  F
  F91      1.0000 0.29400  0.34440  0.58030  Biso   1.000  F
  F92      1.0000 0.38100  0.32980  0.55760  Biso   1.000  F
  F93      1.0000 0.35130  0.36700  0.68480  Biso   1.000  F
  O31      1.0000 0.44465  0.14785  0.58780  Biso   1.000  O
  O32      1.0000 0.39754  0.08362  0.66460  Biso   1.000  O
  C136     1.0000 0.29630  0.25420  0.73290  Biso   1.000  C
  C137     1.0000 0.33420  0.26690  0.66910  Biso   1.000  C
  C138     1.0000 0.37140  0.22760  0.63900  Biso   1.000  C
  H61      1.0000 0.39750  0.23660  0.59450  Biso   1.000  H
  C139     1.0000 0.36980  0.17580  0.67410  Biso   1.000  C
  C140     1.0000 0.33440  0.16270  0.74130  Biso   1.000  C
  H62      1.0000 0.33570  0.12720  0.76780  Biso   1.000  H
  C141     1.0000 0.29650  0.20150  0.77100  Biso   1.000  C
  H63      1.0000 0.27110  0.19240  0.81660  Biso   1.000  H
  C142     1.0000 0.40740  0.13260  0.63880  Biso   1.000  C
  C143     1.0000 0.34160  0.32250  0.62440  Biso   1.000  C
  H64      1.0000 0.33510  0.30310  0.64500  Biso   1.000  H
  F94      1.0000 0.25360  0.21490  0.92050  Biso   1.000  F
  F95      1.0000 0.27250  0.12900  0.88700  Biso   1.000  F
  C144     1.0000 0.25970  0.17960  0.84490  Biso   1.000  C
  F96      1.0000 0.20340  0.17030  0.82240  Biso   1.000  F
  Zr1      1.0000 0.10068  0.50000  0.00000  Biso   1.000  Zr
  Zr2      1.0000 0.89932  0.50000  0.00000  Biso   1.000  Zr
  Zr3      1.0000 0.50000  0.10068  0.50000  Biso   1.000  Zr
  Zr4      1.0000 0.50000  0.89932  0.50000  Biso   1.000  Zr
  Zr5      1.0000 0.00000  0.42736  0.11738  Biso   1.000  Zr
  Zr6      1.0000 0.00000  0.57264  0.11738  Biso   1.000  Zr
  Zr7      1.0000 0.57264  0.00000  0.61738  Biso   1.000  Zr
  Zr8      1.0000 0.42736  0.00000  0.61738  Biso   1.000  Zr
  Zr9      1.0000 0.00000  0.42736  0.88262  Biso   1.000  Zr
  Zr10     1.0000 0.00000  0.57264  0.88262  Biso   1.000  Zr
  Zr11     1.0000 0.42736  0.00000  0.38262  Biso   1.000  Zr
  Zr12     1.0000 0.57264  0.00000  0.38262  Biso   1.000  Zr
  O33      1.0000 0.04950  0.50000  0.11850  Biso   1.000  O
  O34      1.0000 0.95050  0.50000  0.11850  Biso   1.000  O
  O35      1.0000 0.50000  0.04950  0.61850  Biso   1.000  O
  O36      1.0000 0.50000  0.95050  0.61850  Biso   1.000  O
  O37      1.0000 0.95050  0.50000  0.88150  Biso   1.000  O
  O38      1.0000 0.04950  0.50000  0.88150  Biso   1.000  O
  O39      1.0000 0.50000  0.04950  0.38150  Biso   1.000  O
  O40      1.0000 0.50000  0.95050  0.38150  Biso   1.000  O
  O41      1.0000 0.04970  0.42660  0.00000  Biso   1.000  O
  O42      1.0000 0.95030  0.57340  0.00000  Biso   1.000  O
  O43      1.0000 0.57340  0.04970  0.50000  Biso   1.000  O
  O44      1.0000 0.42660  0.95030  0.50000  Biso   1.000  O
  O45      1.0000 0.95030  0.42660  0.00000  Biso   1.000  O
  O46      1.0000 0.04970  0.57340  0.00000  Biso   1.000  O
  O47      1.0000 0.42660  0.04970  0.50000  Biso   1.000  O
  O48      1.0000 0.57340  0.95030  0.50000  Biso   1.000  O
