data_image0
_cell_length_a       24.42
_cell_length_b       24.42
_cell_length_c       14.7231
_cell_angle_alpha    90
_cell_angle_beta     90
_cell_angle_gamma    90

_symmetry_space_group_name_H-M    "P 1"
_symmetry_int_tables_number       1

loop_
  _symmetry_equiv_pos_as_xyz
  'x, y, z'

loop_
  _atom_site_label
  _atom_site_occupancy
  _atom_site_fract_x
  _atom_site_fract_y
  _atom_site_fract_z
  _atom_site_thermal_displace_type
  _atom_site_B_iso_or_equiv
  _atom_site_type_symbol
  F1       1.0000 0.37600  0.32580  0.05420  Biso   1.000  F
  F2       1.0000 0.34660  0.36510  0.17310  Biso   1.000  F
  F3       1.0000 0.29120  0.33790  0.07170  Biso   1.000  F
  O1       1.0000 0.44546  0.14745  0.09060  Biso   1.000  O
  O2       1.0000 0.39760  0.08340  0.16600  Biso   1.000  O
  C1       1.0000 0.40780  0.13160  0.14080  Biso   1.000  C
  C2       1.0000 0.36970  0.17500  0.17680  Biso   1.000  C
  C3       1.0000 0.37150  0.22630  0.14120  Biso   1.000  C
  H1       1.0000 0.39900  0.23560  0.09830  Biso   1.000  H
  C4       1.0000 0.33260  0.26540  0.16810  Biso   1.000  C
  C5       1.0000 0.29540  0.25350  0.23480  Biso   1.000  C
  C6       1.0000 0.29690  0.20160  0.27560  Biso   1.000  C
  H2       1.0000 0.27290  0.19330  0.32460  Biso   1.000  H
  C7       1.0000 0.33370  0.16190  0.24430  Biso   1.000  C
  H3       1.0000 0.33360  0.12610  0.26970  Biso   1.000  H
  C8       1.0000 0.33550  0.31980  0.12020  Biso   1.000  C
  O3       1.0000 0.47400  0.90730  0.30410  Biso   1.000  O
  C9       1.0000 0.44860  0.95550  0.41560  Biso   1.000  C
  C10      1.0000 0.45030  0.95350  0.31300  Biso   1.000  C
  H4       1.0000 0.41030  0.02950  0.41790  Biso   1.000  H
  F4       1.0000 0.26990  0.22440  0.43470  Biso   1.000  F
  F5       1.0000 0.28240  0.14090  0.40860  Biso   1.000  F
  H5       1.0000 0.33210  0.30040  0.13990  Biso   1.000  H
  C11      1.0000 0.26740  0.18910  0.36300  Biso   1.000  C
  F6       1.0000 0.21210  0.17950  0.35860  Biso   1.000  F
  F7       1.0000 0.62400  0.67420  0.05420  Biso   1.000  F
  F8       1.0000 0.65340  0.63490  0.17310  Biso   1.000  F
  F9       1.0000 0.70880  0.66210  0.07170  Biso   1.000  F
  O4       1.0000 0.55454  0.85255  0.09060  Biso   1.000  O
  O5       1.0000 0.60240  0.91660  0.16600  Biso   1.000  O
  C12      1.0000 0.59220  0.86840  0.14080  Biso   1.000  C
  C13      1.0000 0.63030  0.82500  0.17680  Biso   1.000  C
  C14      1.0000 0.62850  0.77370  0.14120  Biso   1.000  C
  H6       1.0000 0.60100  0.76440  0.09830  Biso   1.000  H
  C15      1.0000 0.66740  0.73460  0.16810  Biso   1.000  C
  C16      1.0000 0.70460  0.74650  0.23480  Biso   1.000  C
  C17      1.0000 0.70310  0.79840  0.27560  Biso   1.000  C
  H7       1.0000 0.72710  0.80670  0.32460  Biso   1.000  H
  C18      1.0000 0.66630  0.83810  0.24430  Biso   1.000  C
  H8       1.0000 0.66640  0.87390  0.26970  Biso   1.000  H
  C19      1.0000 0.66450  0.68020  0.12020  Biso   1.000  C
  O6       1.0000 0.52600  0.09270  0.30410  Biso   1.000  O
  C20      1.0000 0.55140  0.04450  0.41560  Biso   1.000  C
  C21      1.0000 0.54970  0.04650  0.31300  Biso   1.000  C
  H9       1.0000 0.58970  0.97050  0.41790  Biso   1.000  H
  F10      1.0000 0.73010  0.77560  0.43470  Biso   1.000  F
  F11      1.0000 0.71760  0.85910  0.40860  Biso   1.000  F
  H10      1.0000 0.66790  0.69960  0.13990  Biso   1.000  H
  C22      1.0000 0.73260  0.81090  0.36300  Biso   1.000  C
  F12      1.0000 0.78790  0.82050  0.35860  Biso   1.000  F
  F13      1.0000 0.67420  0.37600  0.55420  Biso   1.000  F
  F14      1.0000 0.63490  0.34660  0.67310  Biso   1.000  F
  F15      1.0000 0.66210  0.29120  0.57170  Biso   1.000  F
  O7       1.0000 0.85255  0.44546  0.59060  Biso   1.000  O
  O8       1.0000 0.91660  0.39760  0.66600  Biso   1.000  O
  C23      1.0000 0.86840  0.40780  0.64080  Biso   1.000  C
  C24      1.0000 0.82500  0.36970  0.67680  Biso   1.000  C
  C25      1.0000 0.77370  0.37150  0.64120  Biso   1.000  C
  H11      1.0000 0.76440  0.39900  0.59830  Biso   1.000  H
  C26      1.0000 0.73460  0.33260  0.66810  Biso   1.000  C
  C27      1.0000 0.74650  0.29540  0.73480  Biso   1.000  C
  C28      1.0000 0.79840  0.29690  0.77560  Biso   1.000  C
  H12      1.0000 0.80670  0.27290  0.82460  Biso   1.000  H
  C29      1.0000 0.83810  0.33370  0.74430  Biso   1.000  C
  H13      1.0000 0.87390  0.33360  0.76970  Biso   1.000  H
  C30      1.0000 0.68020  0.33550  0.62020  Biso   1.000  C
  O9       1.0000 0.09270  0.47400  0.80410  Biso   1.000  O
  C31      1.0000 0.04450  0.44860  0.91560  Biso   1.000  C
  C32      1.0000 0.04650  0.45030  0.81300  Biso   1.000  C
  H14      1.0000 0.97050  0.41030  0.91790  Biso   1.000  H
  F16      1.0000 0.77560  0.26990  0.93470  Biso   1.000  F
  F17      1.0000 0.85910  0.28240  0.90860  Biso   1.000  F
  H15      1.0000 0.69960  0.33210  0.63990  Biso   1.000  H
  C33      1.0000 0.81090  0.26740  0.86300  Biso   1.000  C
  F18      1.0000 0.82050  0.21210  0.85860  Biso   1.000  F
  F19      1.0000 0.32580  0.62400  0.55420  Biso   1.000  F
  F20      1.0000 0.36510  0.65340  0.67310  Biso   1.000  F
  F21      1.0000 0.33790  0.70880  0.57170  Biso   1.000  F
  O10      1.0000 0.14745  0.55454  0.59060  Biso   1.000  O
  O11      1.0000 0.08340  0.60240  0.66600  Biso   1.000  O
  C34      1.0000 0.13160  0.59220  0.64080  Biso   1.000  C
  C35      1.0000 0.17500  0.63030  0.67680  Biso   1.000  C
  C36      1.0000 0.22630  0.62850  0.64120  Biso   1.000  C
  H16      1.0000 0.23560  0.60100  0.59830  Biso   1.000  H
  C37      1.0000 0.26540  0.66740  0.66810  Biso   1.000  C
  C38      1.0000 0.25350  0.70460  0.73480  Biso   1.000  C
  C39      1.0000 0.20160  0.70310  0.77560  Biso   1.000  C
  H17      1.0000 0.19330  0.72710  0.82460  Biso   1.000  H
  C40      1.0000 0.16190  0.66630  0.74430  Biso   1.000  C
  H18      1.0000 0.12610  0.66640  0.76970  Biso   1.000  H
  C41      1.0000 0.31980  0.66450  0.62020  Biso   1.000  C
  O12      1.0000 0.90730  0.52600  0.80410  Biso   1.000  O
  C42      1.0000 0.95550  0.55140  0.91560  Biso   1.000  C
  C43      1.0000 0.95350  0.54970  0.81300  Biso   1.000  C
  H19      1.0000 0.02950  0.58970  0.91790  Biso   1.000  H
  F22      1.0000 0.22440  0.73010  0.93470  Biso   1.000  F
  F23      1.0000 0.14090  0.71760  0.90860  Biso   1.000  F
  H20      1.0000 0.30040  0.66790  0.63990  Biso   1.000  H
  C44      1.0000 0.18910  0.73260  0.86300  Biso   1.000  C
  F24      1.0000 0.17950  0.78790  0.85860  Biso   1.000  F
  F25      1.0000 0.62400  0.32580  0.94580  Biso   1.000  F
  F26      1.0000 0.65340  0.36510  0.82690  Biso   1.000  F
  F27      1.0000 0.70880  0.33790  0.92830  Biso   1.000  F
  O13      1.0000 0.55454  0.14745  0.90940  Biso   1.000  O
  O14      1.0000 0.60240  0.08340  0.83400  Biso   1.000  O
  C45      1.0000 0.59220  0.13160  0.85920  Biso   1.000  C
  C46      1.0000 0.63030  0.17500  0.82320  Biso   1.000  C
  C47      1.0000 0.62850  0.22630  0.85880  Biso   1.000  C
  H21      1.0000 0.60100  0.23560  0.90170  Biso   1.000  H
  C48      1.0000 0.66740  0.26540  0.83190  Biso   1.000  C
  C49      1.0000 0.70460  0.25350  0.76520  Biso   1.000  C
  C50      1.0000 0.70310  0.20160  0.72440  Biso   1.000  C
  H22      1.0000 0.72710  0.19330  0.67540  Biso   1.000  H
  C51      1.0000 0.66630  0.16190  0.75570  Biso   1.000  C
  H23      1.0000 0.66640  0.12610  0.73030  Biso   1.000  H
  C52      1.0000 0.66450  0.31980  0.87980  Biso   1.000  C
  O15      1.0000 0.52600  0.90730  0.69590  Biso   1.000  O
  C53      1.0000 0.55140  0.95550  0.58440  Biso   1.000  C
  C54      1.0000 0.54970  0.95350  0.68700  Biso   1.000  C
  H24      1.0000 0.58970  0.02950  0.58210  Biso   1.000  H
  F28      1.0000 0.73010  0.22440  0.56530  Biso   1.000  F
  F29      1.0000 0.71760  0.14090  0.59140  Biso   1.000  F
  H25      1.0000 0.66790  0.30040  0.86010  Biso   1.000  H
  C55      1.0000 0.73260  0.18910  0.63700  Biso   1.000  C
  F30      1.0000 0.78790  0.17950  0.64140  Biso   1.000  F
  F31      1.0000 0.37600  0.67420  0.94580  Biso   1.000  F
  F32      1.0000 0.34660  0.63490  0.82690  Biso   1.000  F
  F33      1.0000 0.29120  0.66210  0.92830  Biso   1.000  F
  O16      1.0000 0.44546  0.85255  0.90940  Biso   1.000  O
  O17      1.0000 0.39760  0.91660  0.83400  Biso   1.000  O
  C56      1.0000 0.40780  0.86840  0.85920  Biso   1.000  C
  C57      1.0000 0.36970  0.82500  0.82320  Biso   1.000  C
  C58      1.0000 0.37150  0.77370  0.85880  Biso   1.000  C
  H26      1.0000 0.39900  0.76440  0.90170  Biso   1.000  H
  C59      1.0000 0.33260  0.73460  0.83190  Biso   1.000  C
  C60      1.0000 0.29540  0.74650  0.76520  Biso   1.000  C
  C61      1.0000 0.29690  0.79840  0.72440  Biso   1.000  C
  H27      1.0000 0.27290  0.80670  0.67540  Biso   1.000  H
  C62      1.0000 0.33370  0.83810  0.75570  Biso   1.000  C
  H28      1.0000 0.33360  0.87390  0.73030  Biso   1.000  H
  C63      1.0000 0.33550  0.68020  0.87980  Biso   1.000  C
  O18      1.0000 0.47400  0.09270  0.69590  Biso   1.000  O
  C64      1.0000 0.44860  0.04450  0.58440  Biso   1.000  C
  C65      1.0000 0.45030  0.04650  0.68700  Biso   1.000  C
  H29      1.0000 0.41030  0.97050  0.58210  Biso   1.000  H
  F34      1.0000 0.26990  0.77560  0.56530  Biso   1.000  F
  F35      1.0000 0.28240  0.85910  0.59140  Biso   1.000  F
  H30      1.0000 0.33210  0.69960  0.86010  Biso   1.000  H
  C66      1.0000 0.26740  0.81090  0.63700  Biso   1.000  C
  F36      1.0000 0.21210  0.82050  0.64140  Biso   1.000  F
  F37      1.0000 0.32580  0.37600  0.44580  Biso   1.000  F
  F38      1.0000 0.36510  0.34660  0.32690  Biso   1.000  F
  F39      1.0000 0.33790  0.29120  0.42830  Biso   1.000  F
  O19      1.0000 0.14745  0.44546  0.40940  Biso   1.000  O
  O20      1.0000 0.08340  0.39760  0.33400  Biso   1.000  O
  C67      1.0000 0.13160  0.40780  0.35920  Biso   1.000  C
  C68      1.0000 0.17500  0.36970  0.32320  Biso   1.000  C
  C69      1.0000 0.22630  0.37150  0.35880  Biso   1.000  C
  H31      1.0000 0.23560  0.39900  0.40170  Biso   1.000  H
  C70      1.0000 0.26540  0.33260  0.33190  Biso   1.000  C
  C71      1.0000 0.25350  0.29540  0.26520  Biso   1.000  C
  C72      1.0000 0.20160  0.29690  0.22440  Biso   1.000  C
  H32      1.0000 0.19330  0.27290  0.17540  Biso   1.000  H
  C73      1.0000 0.16190  0.33370  0.25570  Biso   1.000  C
  H33      1.0000 0.12610  0.33360  0.23030  Biso   1.000  H
  C74      1.0000 0.31980  0.33550  0.37980  Biso   1.000  C
  O21      1.0000 0.90730  0.47400  0.19590  Biso   1.000  O
  C75      1.0000 0.95550  0.44860  0.08440  Biso   1.000  C
  C76      1.0000 0.95350  0.45030  0.18700  Biso   1.000  C
  H34      1.0000 0.02950  0.41030  0.08210  Biso   1.000  H
  F40      1.0000 0.22440  0.26990  0.06530  Biso   1.000  F
  F41      1.0000 0.14090  0.28240  0.09140  Biso   1.000  F
  H35      1.0000 0.30040  0.33210  0.36010  Biso   1.000  H
  C77      1.0000 0.18910  0.26740  0.13700  Biso   1.000  C
  F42      1.0000 0.17950  0.21210  0.14140  Biso   1.000  F
  F43      1.0000 0.67420  0.62400  0.44580  Biso   1.000  F
  F44      1.0000 0.63490  0.65340  0.32690  Biso   1.000  F
  F45      1.0000 0.66210  0.70880  0.42830  Biso   1.000  F
  O22      1.0000 0.85255  0.55454  0.40940  Biso   1.000  O
  O23      1.0000 0.91660  0.60240  0.33400  Biso   1.000  O
  C78      1.0000 0.86840  0.59220  0.35920  Biso   1.000  C
  C79      1.0000 0.82500  0.63030  0.32320  Biso   1.000  C
  C80      1.0000 0.77370  0.62850  0.35880  Biso   1.000  C
  H36      1.0000 0.76440  0.60100  0.40170  Biso   1.000  H
  C81      1.0000 0.73460  0.66740  0.33190  Biso   1.000  C
  C82      1.0000 0.74650  0.70460  0.26520  Biso   1.000  C
  C83      1.0000 0.79840  0.70310  0.22440  Biso   1.000  C
  H37      1.0000 0.80670  0.72710  0.17540  Biso   1.000  H
  C84      1.0000 0.83810  0.66630  0.25570  Biso   1.000  C
  H38      1.0000 0.87390  0.66640  0.23030  Biso   1.000  H
  C85      1.0000 0.68020  0.66450  0.37980  Biso   1.000  C
  O24      1.0000 0.09270  0.52600  0.19590  Biso   1.000  O
  C86      1.0000 0.04450  0.55140  0.08440  Biso   1.000  C
  C87      1.0000 0.04650  0.54970  0.18700  Biso   1.000  C
  H39      1.0000 0.97050  0.58970  0.08210  Biso   1.000  H
  F46      1.0000 0.77560  0.73010  0.06530  Biso   1.000  F
  F47      1.0000 0.85910  0.71760  0.09140  Biso   1.000  F
  H40      1.0000 0.69960  0.66790  0.36010  Biso   1.000  H
  C88      1.0000 0.81090  0.73260  0.13700  Biso   1.000  C
  F48      1.0000 0.82050  0.78790  0.14140  Biso   1.000  F
  F49      1.0000 0.62400  0.67420  0.94580  Biso   1.000  F
  F50      1.0000 0.65340  0.63490  0.82690  Biso   1.000  F
  F51      1.0000 0.70880  0.66210  0.92830  Biso   1.000  F
  O25      1.0000 0.55454  0.85255  0.90940  Biso   1.000  O
  O26      1.0000 0.60240  0.91660  0.83400  Biso   1.000  O
  C89      1.0000 0.59220  0.86840  0.85920  Biso   1.000  C
  C90      1.0000 0.63030  0.82500  0.82320  Biso   1.000  C
  C91      1.0000 0.62850  0.77370  0.85880  Biso   1.000  C
  H41      1.0000 0.60100  0.76440  0.90170  Biso   1.000  H
  C92      1.0000 0.66740  0.73460  0.83190  Biso   1.000  C
  C93      1.0000 0.70460  0.74650  0.76520  Biso   1.000  C
  C94      1.0000 0.70310  0.79840  0.72440  Biso   1.000  C
  H42      1.0000 0.72710  0.80670  0.67540  Biso   1.000  H
  C95      1.0000 0.66630  0.83810  0.75570  Biso   1.000  C
  H43      1.0000 0.66640  0.87390  0.73030  Biso   1.000  H
  C96      1.0000 0.66450  0.68020  0.87980  Biso   1.000  C
  O27      1.0000 0.52600  0.09270  0.69590  Biso   1.000  O
  C97      1.0000 0.55140  0.04450  0.58440  Biso   1.000  C
  C98      1.0000 0.54970  0.04650  0.68700  Biso   1.000  C
  H44      1.0000 0.58970  0.97050  0.58210  Biso   1.000  H
  F52      1.0000 0.73010  0.77560  0.56530  Biso   1.000  F
  F53      1.0000 0.71760  0.85910  0.59140  Biso   1.000  F
  H45      1.0000 0.66790  0.69960  0.86010  Biso   1.000  H
  C99      1.0000 0.73260  0.81090  0.63700  Biso   1.000  C
  F54      1.0000 0.78790  0.82050  0.64140  Biso   1.000  F
  F55      1.0000 0.37600  0.32580  0.94580  Biso   1.000  F
  F56      1.0000 0.34660  0.36510  0.82690  Biso   1.000  F
  F57      1.0000 0.29120  0.33790  0.92830  Biso   1.000  F
  O28      1.0000 0.44546  0.14745  0.90940  Biso   1.000  O
  O29      1.0000 0.39760  0.08340  0.83400  Biso   1.000  O
  C100     1.0000 0.40780  0.13160  0.85920  Biso   1.000  C
  C101     1.0000 0.36970  0.17500  0.82320  Biso   1.000  C
  C102     1.0000 0.37150  0.22630  0.85880  Biso   1.000  C
  H46      1.0000 0.39900  0.23560  0.90170  Biso   1.000  H
  C103     1.0000 0.33260  0.26540  0.83190  Biso   1.000  C
  C104     1.0000 0.29540  0.25350  0.76520  Biso   1.000  C
  C105     1.0000 0.29690  0.20160  0.72440  Biso   1.000  C
  H47      1.0000 0.27290  0.19330  0.67540  Biso   1.000  H
  C106     1.0000 0.33370  0.16190  0.75570  Biso   1.000  C
  H48      1.0000 0.33360  0.12610  0.73030  Biso   1.000  H
  C107     1.0000 0.33550  0.31980  0.87980  Biso   1.000  C
  O30      1.0000 0.47400  0.90730  0.69590  Biso   1.000  O
  C108     1.0000 0.44860  0.95550  0.58440  Biso   1.000  C
  C109     1.0000 0.45030  0.95350  0.68700  Biso   1.000  C
  H49      1.0000 0.41030  0.02950  0.58210  Biso   1.000  H
  F58      1.0000 0.26990  0.22440  0.56530  Biso   1.000  F
  F59      1.0000 0.28240  0.14090  0.59140  Biso   1.000  F
  H50      1.0000 0.33210  0.30040  0.86010  Biso   1.000  H
  C110     1.0000 0.26740  0.18910  0.63700  Biso   1.000  C
  F60      1.0000 0.21210  0.17950  0.64140  Biso   1.000  F
  F61      1.0000 0.32580  0.62400  0.44580  Biso   1.000  F
  F62      1.0000 0.36510  0.65340  0.32690  Biso   1.000  F
  F63      1.0000 0.33790  0.70880  0.42830  Biso   1.000  F
  O31      1.0000 0.14745  0.55454  0.40940  Biso   1.000  O
  O32      1.0000 0.08340  0.60240  0.33400  Biso   1.000  O
  C111     1.0000 0.13160  0.59220  0.35920  Biso   1.000  C
  C112     1.0000 0.17500  0.63030  0.32320  Biso   1.000  C
  C113     1.0000 0.22630  0.62850  0.35880  Biso   1.000  C
  H51      1.0000 0.23560  0.60100  0.40170  Biso   1.000  H
  C114     1.0000 0.26540  0.66740  0.33190  Biso   1.000  C
  C115     1.0000 0.25350  0.70460  0.26520  Biso   1.000  C
  C116     1.0000 0.20160  0.70310  0.22440  Biso   1.000  C
  H52      1.0000 0.19330  0.72710  0.17540  Biso   1.000  H
  C117     1.0000 0.16190  0.66630  0.25570  Biso   1.000  C
  H53      1.0000 0.12610  0.66640  0.23030  Biso   1.000  H
  C118     1.0000 0.31980  0.66450  0.37980  Biso   1.000  C
  O33      1.0000 0.90730  0.52600  0.19590  Biso   1.000  O
  C119     1.0000 0.95550  0.55140  0.08440  Biso   1.000  C
  C120     1.0000 0.95350  0.54970  0.18700  Biso   1.000  C
  H54      1.0000 0.02950  0.58970  0.08210  Biso   1.000  H
  F64      1.0000 0.22440  0.73010  0.06530  Biso   1.000  F
  F65      1.0000 0.14090  0.71760  0.09140  Biso   1.000  F
  H55      1.0000 0.30040  0.66790  0.36010  Biso   1.000  H
  C121     1.0000 0.18910  0.73260  0.13700  Biso   1.000  C
  F66      1.0000 0.17950  0.78790  0.14140  Biso   1.000  F
  F67      1.0000 0.67420  0.37600  0.44580  Biso   1.000  F
  F68      1.0000 0.63490  0.34660  0.32690  Biso   1.000  F
  F69      1.0000 0.66210  0.29120  0.42830  Biso   1.000  F
  O34      1.0000 0.85255  0.44546  0.40940  Biso   1.000  O
  O35      1.0000 0.91660  0.39760  0.33400  Biso   1.000  O
  C122     1.0000 0.86840  0.40780  0.35920  Biso   1.000  C
  C123     1.0000 0.82500  0.36970  0.32320  Biso   1.000  C
  C124     1.0000 0.77370  0.37150  0.35880  Biso   1.000  C
  H56      1.0000 0.76440  0.39900  0.40170  Biso   1.000  H
  C125     1.0000 0.73460  0.33260  0.33190  Biso   1.000  C
  C126     1.0000 0.74650  0.29540  0.26520  Biso   1.000  C
  C127     1.0000 0.79840  0.29690  0.22440  Biso   1.000  C
  H57      1.0000 0.80670  0.27290  0.17540  Biso   1.000  H
  C128     1.0000 0.83810  0.33370  0.25570  Biso   1.000  C
  H58      1.0000 0.87390  0.33360  0.23030  Biso   1.000  H
  C129     1.0000 0.68020  0.33550  0.37980  Biso   1.000  C
  O36      1.0000 0.09270  0.47400  0.19590  Biso   1.000  O
  C130     1.0000 0.04450  0.44860  0.08440  Biso   1.000  C
  C131     1.0000 0.04650  0.45030  0.18700  Biso   1.000  C
  H59      1.0000 0.97050  0.41030  0.08210  Biso   1.000  H
  F70      1.0000 0.77560  0.26990  0.06530  Biso   1.000  F
  F71      1.0000 0.85910  0.28240  0.09140  Biso   1.000  F
  H60      1.0000 0.69960  0.33210  0.36010  Biso   1.000  H
  C132     1.0000 0.81090  0.26740  0.13700  Biso   1.000  C
  F72      1.0000 0.82050  0.21210  0.14140  Biso   1.000  F
  F73      1.0000 0.37600  0.67420  0.05420  Biso   1.000  F
  F74      1.0000 0.34660  0.63490  0.17310  Biso   1.000  F
  F75      1.0000 0.29120  0.66210  0.07170  Biso   1.000  F
  O37      1.0000 0.44546  0.85255  0.09060  Biso   1.000  O
  O38      1.0000 0.39760  0.91660  0.16600  Biso   1.000  O
  C133     1.0000 0.40780  0.86840  0.14080  Biso   1.000  C
  C134     1.0000 0.36970  0.82500  0.17680  Biso   1.000  C
  C135     1.0000 0.37150  0.77370  0.14120  Biso   1.000  C
  H61      1.0000 0.39900  0.76440  0.09830  Biso   1.000  H
  C136     1.0000 0.33260  0.73460  0.16810  Biso   1.000  C
  C137     1.0000 0.29540  0.74650  0.23480  Biso   1.000  C
  C138     1.0000 0.29690  0.79840  0.27560  Biso   1.000  C
  H62      1.0000 0.27290  0.80670  0.32460  Biso   1.000  H
  C139     1.0000 0.33370  0.83810  0.24430  Biso   1.000  C
  H63      1.0000 0.33360  0.87390  0.26970  Biso   1.000  H
  C140     1.0000 0.33550  0.68020  0.12020  Biso   1.000  C
  O39      1.0000 0.47400  0.09270  0.30410  Biso   1.000  O
  C141     1.0000 0.44860  0.04450  0.41560  Biso   1.000  C
  C142     1.0000 0.45030  0.04650  0.31300  Biso   1.000  C
  H64      1.0000 0.41030  0.97050  0.41790  Biso   1.000  H
  F76      1.0000 0.26990  0.77560  0.43470  Biso   1.000  F
  F77      1.0000 0.28240  0.85910  0.40860  Biso   1.000  F
  H65      1.0000 0.33210  0.69960  0.13990  Biso   1.000  H
  C143     1.0000 0.26740  0.81090  0.36300  Biso   1.000  C
  F78      1.0000 0.21210  0.82050  0.35860  Biso   1.000  F
  F79      1.0000 0.62400  0.32580  0.05420  Biso   1.000  F
  F80      1.0000 0.65340  0.36510  0.17310  Biso   1.000  F
  F81      1.0000 0.70880  0.33790  0.07170  Biso   1.000  F
  O40      1.0000 0.55454  0.14745  0.09060  Biso   1.000  O
  O41      1.0000 0.60240  0.08340  0.16600  Biso   1.000  O
  C144     1.0000 0.59220  0.13160  0.14080  Biso   1.000  C
  C145     1.0000 0.63030  0.17500  0.17680  Biso   1.000  C
  C146     1.0000 0.62850  0.22630  0.14120  Biso   1.000  C
  H66      1.0000 0.60100  0.23560  0.09830  Biso   1.000  H
  C147     1.0000 0.66740  0.26540  0.16810  Biso   1.000  C
  C148     1.0000 0.70460  0.25350  0.23480  Biso   1.000  C
  C149     1.0000 0.70310  0.20160  0.27560  Biso   1.000  C
  H67      1.0000 0.72710  0.19330  0.32460  Biso   1.000  H
  C150     1.0000 0.66630  0.16190  0.24430  Biso   1.000  C
  H68      1.0000 0.66640  0.12610  0.26970  Biso   1.000  H
  C151     1.0000 0.66450  0.31980  0.12020  Biso   1.000  C
  O42      1.0000 0.52600  0.90730  0.30410  Biso   1.000  O
  C152     1.0000 0.55140  0.95550  0.41560  Biso   1.000  C
  C153     1.0000 0.54970  0.95350  0.31300  Biso   1.000  C
  H69      1.0000 0.58970  0.02950  0.41790  Biso   1.000  H
  F82      1.0000 0.73010  0.22440  0.43470  Biso   1.000  F
  F83      1.0000 0.71760  0.14090  0.40860  Biso   1.000  F
  H70      1.0000 0.66790  0.30040  0.13990  Biso   1.000  H
  C154     1.0000 0.73260  0.18910  0.36300  Biso   1.000  C
  F84      1.0000 0.78790  0.17950  0.35860  Biso   1.000  F
  F85      1.0000 0.67420  0.62400  0.55420  Biso   1.000  F
  F86      1.0000 0.63490  0.65340  0.67310  Biso   1.000  F
  F87      1.0000 0.66210  0.70880  0.57170  Biso   1.000  F
  O43      1.0000 0.85255  0.55454  0.59060  Biso   1.000  O
  O44      1.0000 0.91660  0.60240  0.66600  Biso   1.000  O
  C155     1.0000 0.86840  0.59220  0.64080  Biso   1.000  C
  C156     1.0000 0.82500  0.63030  0.67680  Biso   1.000  C
  C157     1.0000 0.77370  0.62850  0.64120  Biso   1.000  C
  H71      1.0000 0.76440  0.60100  0.59830  Biso   1.000  H
  C158     1.0000 0.73460  0.66740  0.66810  Biso   1.000  C
  C159     1.0000 0.74650  0.70460  0.73480  Biso   1.000  C
  C160     1.0000 0.79840  0.70310  0.77560  Biso   1.000  C
  H72      1.0000 0.80670  0.72710  0.82460  Biso   1.000  H
  C161     1.0000 0.83810  0.66630  0.74430  Biso   1.000  C
  H73      1.0000 0.87390  0.66640  0.76970  Biso   1.000  H
  C162     1.0000 0.68020  0.66450  0.62020  Biso   1.000  C
  O45      1.0000 0.09270  0.52600  0.80410  Biso   1.000  O
  C163     1.0000 0.04450  0.55140  0.91560  Biso   1.000  C
  C164     1.0000 0.04650  0.54970  0.81300  Biso   1.000  C
  H74      1.0000 0.97050  0.58970  0.91790  Biso   1.000  H
  F88      1.0000 0.77560  0.73010  0.93470  Biso   1.000  F
  F89      1.0000 0.85910  0.71760  0.90860  Biso   1.000  F
  H75      1.0000 0.69960  0.66790  0.63990  Biso   1.000  H
  C165     1.0000 0.81090  0.73260  0.86300  Biso   1.000  C
  F90      1.0000 0.82050  0.78790  0.85860  Biso   1.000  F
  F91      1.0000 0.32580  0.37600  0.55420  Biso   1.000  F
  F92      1.0000 0.36510  0.34660  0.67310  Biso   1.000  F
  F93      1.0000 0.33790  0.29120  0.57170  Biso   1.000  F
  O46      1.0000 0.14745  0.44546  0.59060  Biso   1.000  O
  O47      1.0000 0.08340  0.39760  0.66600  Biso   1.000  O
  C166     1.0000 0.13160  0.40780  0.64080  Biso   1.000  C
  C167     1.0000 0.17500  0.36970  0.67680  Biso   1.000  C
  C168     1.0000 0.22630  0.37150  0.64120  Biso   1.000  C
  H76      1.0000 0.23560  0.39900  0.59830  Biso   1.000  H
  C169     1.0000 0.26540  0.33260  0.66810  Biso   1.000  C
  C170     1.0000 0.25350  0.29540  0.73480  Biso   1.000  C
  C171     1.0000 0.20160  0.29690  0.77560  Biso   1.000  C
  H77      1.0000 0.19330  0.27290  0.82460  Biso   1.000  H
  C172     1.0000 0.16190  0.33370  0.74430  Biso   1.000  C
  H78      1.0000 0.12610  0.33360  0.76970  Biso   1.000  H
  C173     1.0000 0.31980  0.33550  0.62020  Biso   1.000  C
  O48      1.0000 0.90730  0.47400  0.80410  Biso   1.000  O
  C174     1.0000 0.95550  0.44860  0.91560  Biso   1.000  C
  C175     1.0000 0.95350  0.45030  0.81300  Biso   1.000  C
  H79      1.0000 0.02950  0.41030  0.91790  Biso   1.000  H
  F94      1.0000 0.22440  0.26990  0.93470  Biso   1.000  F
  F95      1.0000 0.14090  0.28240  0.90860  Biso   1.000  F
  H80      1.0000 0.30040  0.33210  0.63990  Biso   1.000  H
  C176     1.0000 0.18910  0.26740  0.86300  Biso   1.000  C
  F96      1.0000 0.17950  0.21210  0.85860  Biso   1.000  F
  Zr1      1.0000 0.50000  0.10036  0.00000  Biso   1.000  Zr
  Zr2      1.0000 0.50000  0.89964  0.00000  Biso   1.000  Zr
  Zr3      1.0000 0.89964  0.50000  0.50000  Biso   1.000  Zr
  Zr4      1.0000 0.10036  0.50000  0.50000  Biso   1.000  Zr
  Zr5      1.0000 0.42779  0.00000  0.12003  Biso   1.000  Zr
  C177     1.0000 0.42540  0.00000  0.45180  Biso   1.000  C
  O49      1.0000 0.42770  0.00000  0.26960  Biso   1.000  O
  Zr6      1.0000 0.57221  0.00000  0.12003  Biso   1.000  Zr
  C178     1.0000 0.57460  0.00000  0.45180  Biso   1.000  C
  O50      1.0000 0.57230  0.00000  0.26960  Biso   1.000  O
  Zr7      1.0000 0.00000  0.42779  0.62003  Biso   1.000  Zr
  C179     1.0000 0.00000  0.42540  0.95180  Biso   1.000  C
  O51      1.0000 0.00000  0.42770  0.76960  Biso   1.000  O
  Zr8      1.0000 0.00000  0.57221  0.62003  Biso   1.000  Zr
  C180     1.0000 0.00000  0.57460  0.95180  Biso   1.000  C
  O52      1.0000 0.00000  0.57230  0.76960  Biso   1.000  O
  Zr9      1.0000 0.57221  0.00000  0.87997  Biso   1.000  Zr
  C181     1.0000 0.57460  0.00000  0.54820  Biso   1.000  C
  O53      1.0000 0.57230  0.00000  0.73040  Biso   1.000  O
  Zr10     1.0000 0.42779  0.00000  0.87997  Biso   1.000  Zr
  C182     1.0000 0.42540  0.00000  0.54820  Biso   1.000  C
  O54      1.0000 0.42770  0.00000  0.73040  Biso   1.000  O
  Zr11     1.0000 0.00000  0.42779  0.37997  Biso   1.000  Zr
  C183     1.0000 0.00000  0.42540  0.04820  Biso   1.000  C
  O55      1.0000 0.00000  0.42770  0.23040  Biso   1.000  O
  Zr12     1.0000 0.00000  0.57221  0.37997  Biso   1.000  Zr
  C184     1.0000 0.00000  0.57460  0.04820  Biso   1.000  C
  O56      1.0000 0.00000  0.57230  0.23040  Biso   1.000  O
  O57      1.0000 0.50000  0.04920  0.12010  Biso   1.000  O
  O58      1.0000 0.50000  0.95080  0.12010  Biso   1.000  O
  O59      1.0000 0.95080  0.50000  0.62010  Biso   1.000  O
  O60      1.0000 0.04920  0.50000  0.62010  Biso   1.000  O
  O61      1.0000 0.50000  0.04920  0.87990  Biso   1.000  O
  O62      1.0000 0.50000  0.95080  0.87990  Biso   1.000  O
  O63      1.0000 0.04920  0.50000  0.37990  Biso   1.000  O
  O64      1.0000 0.95080  0.50000  0.37990  Biso   1.000  O
  O65      1.0000 0.42740  0.04890  0.00000  Biso   1.000  O
  O66      1.0000 0.57260  0.95110  0.00000  Biso   1.000  O
  O67      1.0000 0.95110  0.42740  0.50000  Biso   1.000  O
  O68      1.0000 0.04890  0.57260  0.50000  Biso   1.000  O
  O69      1.0000 0.57260  0.04890  0.00000  Biso   1.000  O
  O70      1.0000 0.42740  0.95110  0.00000  Biso   1.000  O
  O71      1.0000 0.04890  0.42740  0.50000  Biso   1.000  O
  O72      1.0000 0.95110  0.57260  0.50000  Biso   1.000  O
  S1       1.0000 0.46930  0.91440  0.50000  Biso   1.000  S
  S2       1.0000 0.53070  0.08560  0.50000  Biso   1.000  S
  S3       1.0000 0.08560  0.46930  0.00000  Biso   1.000  S
  S4       1.0000 0.91440  0.53070  0.00000  Biso   1.000  S
  S5       1.0000 0.53070  0.91440  0.50000  Biso   1.000  S
  S6       1.0000 0.46930  0.08560  0.50000  Biso   1.000  S
  S7       1.0000 0.91440  0.46930  0.00000  Biso   1.000  S
  S8       1.0000 0.08560  0.53070  0.00000  Biso   1.000  S
