data_image0
_cell_length_a       18.5944
_cell_length_b       18.5944
_cell_length_c       38.012
_cell_angle_alpha    90
_cell_angle_beta     90
_cell_angle_gamma    120

_symmetry_space_group_name_H-M    "P 1"
_symmetry_int_tables_number       1

loop_
  _symmetry_equiv_pos_as_xyz
  'x, y, z'

loop_
  _atom_site_label
  _atom_site_occupancy
  _atom_site_fract_x
  _atom_site_fract_y
  _atom_site_fract_z
  _atom_site_thermal_displace_type
  _atom_site_B_iso_or_equiv
  _atom_site_type_symbol
  C1       1.0000 0.46980  0.40140  0.58794  Biso   1.000  C
  H1       1.0000 0.42160  0.36280  0.57650  Biso   1.000  H
  C2       1.0000 0.48450  0.38630  0.62218  Biso   1.000  C
  C3       1.0000 0.42560  0.30560  0.63963  Biso   1.000  C
  C4       1.0000 0.54890  0.56720  0.52200  Biso   1.000  C
  H2       1.0000 0.57900  0.61220  0.53690  Biso   1.000  H
  N1       1.0000 0.57850  0.53870  0.51300  Biso   1.000  N
  O1       1.0000 0.44424  0.29552  0.67035  Biso   1.000  O
  O2       1.0000 0.36460  0.25570  0.62219  Biso   1.000  O
  C5       1.0000 0.13647  0.73473  0.92127  Biso   1.000  C
  H3       1.0000 0.08827  0.69613  0.90983  Biso   1.000  H
  C6       1.0000 0.15117  0.71963  0.95551  Biso   1.000  C
  C7       1.0000 0.09227  0.63893  0.97296  Biso   1.000  C
  C8       1.0000 0.21557  0.90053  0.85533  Biso   1.000  C
  H4       1.0000 0.24567  0.94553  0.87023  Biso   1.000  H
  N2       1.0000 0.24517  0.87203  0.84633  Biso   1.000  N
  O3       1.0000 0.11091  0.62885  0.00368  Biso   1.000  O
  O4       1.0000 0.03127  0.58903  0.95552  Biso   1.000  O
  C9       1.0000 0.80313  0.06807  0.25461  Biso   1.000  C
  H5       1.0000 0.75493  0.02947  0.24317  Biso   1.000  H
  C10      1.0000 0.81783  0.05297  0.28885  Biso   1.000  C
  C11      1.0000 0.75893  0.97227  0.30630  Biso   1.000  C
  C12      1.0000 0.88223  0.23387  0.18867  Biso   1.000  C
  H6       1.0000 0.91233  0.27887  0.20357  Biso   1.000  H
  N3       1.0000 0.91183  0.20537  0.17967  Biso   1.000  N
  O5       1.0000 0.77757  0.96219  0.33702  Biso   1.000  O
  O6       1.0000 0.69793  0.92237  0.28886  Biso   1.000  O
  C13      1.0000 0.59860  0.06840  0.58794  Biso   1.000  C
  H7       1.0000 0.63720  0.05880  0.57650  Biso   1.000  H
  C14      1.0000 0.61370  0.09820  0.62218  Biso   1.000  C
  C15      1.0000 0.69440  0.12000  0.63963  Biso   1.000  C
  C16      1.0000 0.43280  0.98170  0.52200  Biso   1.000  C
  H8       1.0000 0.38780  0.96680  0.53690  Biso   1.000  H
  N4       1.0000 0.46130  0.03980  0.51300  Biso   1.000  N
  O7       1.0000 0.70448  0.14872  0.67035  Biso   1.000  O
  O8       1.0000 0.74430  0.10890  0.62219  Biso   1.000  O
  C17      1.0000 0.26527  0.40173  0.92127  Biso   1.000  C
  H9       1.0000 0.30387  0.39213  0.90983  Biso   1.000  H
  C18      1.0000 0.28037  0.43153  0.95551  Biso   1.000  C
  C19      1.0000 0.36107  0.45333  0.97296  Biso   1.000  C
  C20      1.0000 0.09947  0.31503  0.85533  Biso   1.000  C
  H10      1.0000 0.05447  0.30013  0.87023  Biso   1.000  H
  N5       1.0000 0.12797  0.37313  0.84633  Biso   1.000  N
  O9       1.0000 0.37115  0.48205  0.00368  Biso   1.000  O
  O10      1.0000 0.41097  0.44223  0.95552  Biso   1.000  O
  C21      1.0000 0.93193  0.73507  0.25461  Biso   1.000  C
  H11      1.0000 0.97053  0.72547  0.24317  Biso   1.000  H
  C22      1.0000 0.94703  0.76487  0.28885  Biso   1.000  C
  C23      1.0000 0.02773  0.78667  0.30630  Biso   1.000  C
  C24      1.0000 0.76613  0.64837  0.18867  Biso   1.000  C
  H12      1.0000 0.72113  0.63347  0.20357  Biso   1.000  H
  N6       1.0000 0.79463  0.70647  0.17967  Biso   1.000  N
  O11      1.0000 0.03781  0.81539  0.33702  Biso   1.000  O
  O12      1.0000 0.07763  0.77557  0.28886  Biso   1.000  O
  C25      1.0000 0.93160  0.53020  0.58794  Biso   1.000  C
  H13      1.0000 0.94120  0.57840  0.57650  Biso   1.000  H
  C26      1.0000 0.90180  0.51550  0.62218  Biso   1.000  C
  C27      1.0000 0.88000  0.57440  0.63963  Biso   1.000  C
  C28      1.0000 0.01830  0.45110  0.52200  Biso   1.000  C
  H14      1.0000 0.03320  0.42100  0.53690  Biso   1.000  H
  N7       1.0000 0.96020  0.42150  0.51300  Biso   1.000  N
  O13      1.0000 0.85128  0.55576  0.67035  Biso   1.000  O
  O14      1.0000 0.89110  0.63540  0.62219  Biso   1.000  O
  C29      1.0000 0.59827  0.86353  0.92127  Biso   1.000  C
  H15      1.0000 0.60787  0.91173  0.90983  Biso   1.000  H
  C30      1.0000 0.56847  0.84883  0.95551  Biso   1.000  C
  C31      1.0000 0.54667  0.90773  0.97296  Biso   1.000  C
  C32      1.0000 0.68497  0.78443  0.85533  Biso   1.000  C
  H16      1.0000 0.69987  0.75433  0.87023  Biso   1.000  H
  N8       1.0000 0.62687  0.75483  0.84633  Biso   1.000  N
  O15      1.0000 0.51795  0.88909  0.00368  Biso   1.000  O
  O16      1.0000 0.55777  0.96873  0.95552  Biso   1.000  O
  C33      1.0000 0.26493  0.19687  0.25461  Biso   1.000  C
  H17      1.0000 0.27453  0.24507  0.24317  Biso   1.000  H
  C34      1.0000 0.23513  0.18217  0.28885  Biso   1.000  C
  C35      1.0000 0.21333  0.24107  0.30630  Biso   1.000  C
  C36      1.0000 0.35163  0.11777  0.18867  Biso   1.000  C
  H18      1.0000 0.36653  0.08767  0.20357  Biso   1.000  H
  N9       1.0000 0.29353  0.08817  0.17967  Biso   1.000  N
  O17      1.0000 0.18461  0.22243  0.33702  Biso   1.000  O
  O18      1.0000 0.22443  0.30207  0.28886  Biso   1.000  O
  C37      1.0000 0.40140  0.46980  0.41206  Biso   1.000  C
  H19      1.0000 0.36280  0.42160  0.42350  Biso   1.000  H
  C38      1.0000 0.38630  0.48450  0.37782  Biso   1.000  C
  C39      1.0000 0.30560  0.42560  0.36037  Biso   1.000  C
  C40      1.0000 0.56720  0.54890  0.47800  Biso   1.000  C
  H20      1.0000 0.61220  0.57900  0.46310  Biso   1.000  H
  N10      1.0000 0.53870  0.57850  0.48700  Biso   1.000  N
  O19      1.0000 0.29552  0.44424  0.32965  Biso   1.000  O
  O20      1.0000 0.25570  0.36460  0.37781  Biso   1.000  O
  C41      1.0000 0.06807  0.80313  0.74539  Biso   1.000  C
  H21      1.0000 0.02947  0.75493  0.75683  Biso   1.000  H
  C42      1.0000 0.05297  0.81783  0.71115  Biso   1.000  C
  C43      1.0000 0.97227  0.75893  0.69370  Biso   1.000  C
  C44      1.0000 0.23387  0.88223  0.81133  Biso   1.000  C
  H22      1.0000 0.27887  0.91233  0.79643  Biso   1.000  H
  N11      1.0000 0.20537  0.91183  0.82033  Biso   1.000  N
  O21      1.0000 0.96219  0.77757  0.66298  Biso   1.000  O
  O22      1.0000 0.92237  0.69793  0.71114  Biso   1.000  O
  C45      1.0000 0.73473  0.13647  0.07873  Biso   1.000  C
  H23      1.0000 0.69613  0.08827  0.09017  Biso   1.000  H
  C46      1.0000 0.71963  0.15117  0.04449  Biso   1.000  C
  C47      1.0000 0.63893  0.09227  0.02704  Biso   1.000  C
  C48      1.0000 0.90053  0.21557  0.14467  Biso   1.000  C
  H24      1.0000 0.94553  0.24567  0.12977  Biso   1.000  H
  N12      1.0000 0.87203  0.24517  0.15367  Biso   1.000  N
  O23      1.0000 0.62885  0.11091  0.99632  Biso   1.000  O
  O24      1.0000 0.58903  0.03127  0.04448  Biso   1.000  O
  C49      1.0000 0.06840  0.59860  0.41206  Biso   1.000  C
  H25      1.0000 0.05880  0.63720  0.42350  Biso   1.000  H
  C50      1.0000 0.09820  0.61370  0.37782  Biso   1.000  C
  C51      1.0000 0.12000  0.69440  0.36037  Biso   1.000  C
  C52      1.0000 0.98170  0.43280  0.47800  Biso   1.000  C
  H26      1.0000 0.96680  0.38780  0.46310  Biso   1.000  H
  N13      1.0000 0.03980  0.46130  0.48700  Biso   1.000  N
  O25      1.0000 0.14872  0.70448  0.32965  Biso   1.000  O
  O26      1.0000 0.10890  0.74430  0.37781  Biso   1.000  O
  C53      1.0000 0.73507  0.93193  0.74539  Biso   1.000  C
  H27      1.0000 0.72547  0.97053  0.75683  Biso   1.000  H
  C54      1.0000 0.76487  0.94703  0.71115  Biso   1.000  C
  C55      1.0000 0.78667  0.02773  0.69370  Biso   1.000  C
  C56      1.0000 0.64837  0.76613  0.81133  Biso   1.000  C
  H28      1.0000 0.63347  0.72113  0.79643  Biso   1.000  H
  N14      1.0000 0.70647  0.79463  0.82033  Biso   1.000  N
  O27      1.0000 0.81539  0.03781  0.66298  Biso   1.000  O
  O28      1.0000 0.77557  0.07763  0.71114  Biso   1.000  O
  C57      1.0000 0.40173  0.26527  0.07873  Biso   1.000  C
  H29      1.0000 0.39213  0.30387  0.09017  Biso   1.000  H
  C58      1.0000 0.43153  0.28037  0.04449  Biso   1.000  C
  C59      1.0000 0.45333  0.36107  0.02704  Biso   1.000  C
  C60      1.0000 0.31503  0.09947  0.14467  Biso   1.000  C
  H30      1.0000 0.30013  0.05447  0.12977  Biso   1.000  H
  N15      1.0000 0.37313  0.12797  0.15367  Biso   1.000  N
  O29      1.0000 0.48205  0.37115  0.99632  Biso   1.000  O
  O30      1.0000 0.44223  0.41097  0.04448  Biso   1.000  O
  C61      1.0000 0.53020  0.93160  0.41206  Biso   1.000  C
  H31      1.0000 0.57840  0.94120  0.42350  Biso   1.000  H
  C62      1.0000 0.51550  0.90180  0.37782  Biso   1.000  C
  C63      1.0000 0.57440  0.88000  0.36037  Biso   1.000  C
  C64      1.0000 0.45110  0.01830  0.47800  Biso   1.000  C
  H32      1.0000 0.42100  0.03320  0.46310  Biso   1.000  H
  N16      1.0000 0.42150  0.96020  0.48700  Biso   1.000  N
  O31      1.0000 0.55576  0.85128  0.32965  Biso   1.000  O
  O32      1.0000 0.63540  0.89110  0.37781  Biso   1.000  O
  C65      1.0000 0.19687  0.26493  0.74539  Biso   1.000  C
  H33      1.0000 0.24507  0.27453  0.75683  Biso   1.000  H
  C66      1.0000 0.18217  0.23513  0.71115  Biso   1.000  C
  C67      1.0000 0.24107  0.21333  0.69370  Biso   1.000  C
  C68      1.0000 0.11777  0.35163  0.81133  Biso   1.000  C
  H34      1.0000 0.08767  0.36653  0.79643  Biso   1.000  H
  N17      1.0000 0.08817  0.29353  0.82033  Biso   1.000  N
  O33      1.0000 0.22243  0.18461  0.66298  Biso   1.000  O
  O34      1.0000 0.30207  0.22443  0.71114  Biso   1.000  O
  C69      1.0000 0.86353  0.59827  0.07873  Biso   1.000  C
  H35      1.0000 0.91173  0.60787  0.09017  Biso   1.000  H
  C70      1.0000 0.84883  0.56847  0.04449  Biso   1.000  C
  C71      1.0000 0.90773  0.54667  0.02704  Biso   1.000  C
  C72      1.0000 0.78443  0.68497  0.14467  Biso   1.000  C
  H36      1.0000 0.75433  0.69987  0.12977  Biso   1.000  H
  N18      1.0000 0.75483  0.62687  0.15367  Biso   1.000  N
  O35      1.0000 0.88909  0.51795  0.99632  Biso   1.000  O
  O36      1.0000 0.96873  0.55777  0.04448  Biso   1.000  O
  C73      1.0000 0.53020  0.59860  0.41206  Biso   1.000  C
  H37      1.0000 0.57840  0.63720  0.42350  Biso   1.000  H
  C74      1.0000 0.51550  0.61370  0.37782  Biso   1.000  C
  C75      1.0000 0.57440  0.69440  0.36037  Biso   1.000  C
  C76      1.0000 0.45110  0.43280  0.47800  Biso   1.000  C
  H38      1.0000 0.42100  0.38780  0.46310  Biso   1.000  H
  N19      1.0000 0.42150  0.46130  0.48700  Biso   1.000  N
  O37      1.0000 0.55576  0.70448  0.32965  Biso   1.000  O
  O38      1.0000 0.63540  0.74430  0.37781  Biso   1.000  O
  C77      1.0000 0.19687  0.93193  0.74539  Biso   1.000  C
  H39      1.0000 0.24507  0.97053  0.75683  Biso   1.000  H
  C78      1.0000 0.18217  0.94703  0.71115  Biso   1.000  C
  C79      1.0000 0.24107  0.02773  0.69370  Biso   1.000  C
  C80      1.0000 0.11777  0.76613  0.81133  Biso   1.000  C
  H40      1.0000 0.08767  0.72113  0.79643  Biso   1.000  H
  N20      1.0000 0.08817  0.79463  0.82033  Biso   1.000  N
  O39      1.0000 0.22243  0.03781  0.66298  Biso   1.000  O
  O40      1.0000 0.30207  0.07763  0.71114  Biso   1.000  O
  C81      1.0000 0.86353  0.26527  0.07873  Biso   1.000  C
  H41      1.0000 0.91173  0.30387  0.09017  Biso   1.000  H
  C82      1.0000 0.84883  0.28037  0.04449  Biso   1.000  C
  C83      1.0000 0.90773  0.36107  0.02704  Biso   1.000  C
  C84      1.0000 0.78443  0.09947  0.14467  Biso   1.000  C
  H42      1.0000 0.75433  0.05447  0.12977  Biso   1.000  H
  N21      1.0000 0.75483  0.12797  0.15367  Biso   1.000  N
  O41      1.0000 0.88909  0.37115  0.99632  Biso   1.000  O
  O42      1.0000 0.96873  0.41097  0.04448  Biso   1.000  O
  C85      1.0000 0.40140  0.93160  0.41206  Biso   1.000  C
  H43      1.0000 0.36280  0.94120  0.42350  Biso   1.000  H
  C86      1.0000 0.38630  0.90180  0.37782  Biso   1.000  C
  C87      1.0000 0.30560  0.88000  0.36037  Biso   1.000  C
  C88      1.0000 0.56720  0.01830  0.47800  Biso   1.000  C
  H44      1.0000 0.61220  0.03320  0.46310  Biso   1.000  H
  N22      1.0000 0.53870  0.96020  0.48700  Biso   1.000  N
  O43      1.0000 0.29552  0.85128  0.32965  Biso   1.000  O
  O44      1.0000 0.25570  0.89110  0.37781  Biso   1.000  O
  C89      1.0000 0.06807  0.26493  0.74539  Biso   1.000  C
  H45      1.0000 0.02947  0.27453  0.75683  Biso   1.000  H
  C90      1.0000 0.05297  0.23513  0.71115  Biso   1.000  C
  C91      1.0000 0.97227  0.21333  0.69370  Biso   1.000  C
  C92      1.0000 0.23387  0.35163  0.81133  Biso   1.000  C
  H46      1.0000 0.27887  0.36653  0.79643  Biso   1.000  H
  N23      1.0000 0.20537  0.29353  0.82033  Biso   1.000  N
  O45      1.0000 0.96219  0.18461  0.66298  Biso   1.000  O
  O46      1.0000 0.92237  0.22443  0.71114  Biso   1.000  O
  C93      1.0000 0.73473  0.59827  0.07873  Biso   1.000  C
  H47      1.0000 0.69613  0.60787  0.09017  Biso   1.000  H
  C94      1.0000 0.71963  0.56847  0.04449  Biso   1.000  C
  C95      1.0000 0.63893  0.54667  0.02704  Biso   1.000  C
  C96      1.0000 0.90053  0.68497  0.14467  Biso   1.000  C
  H48      1.0000 0.94553  0.69987  0.12977  Biso   1.000  H
  N24      1.0000 0.87203  0.62687  0.15367  Biso   1.000  N
  O47      1.0000 0.62885  0.51795  0.99632  Biso   1.000  O
  O48      1.0000 0.58903  0.55777  0.04448  Biso   1.000  O
  C97      1.0000 0.06840  0.46980  0.41206  Biso   1.000  C
  H49      1.0000 0.05880  0.42160  0.42350  Biso   1.000  H
  C98      1.0000 0.09820  0.48450  0.37782  Biso   1.000  C
  C99      1.0000 0.12000  0.42560  0.36037  Biso   1.000  C
  C100     1.0000 0.98170  0.54890  0.47800  Biso   1.000  C
  H50      1.0000 0.96680  0.57900  0.46310  Biso   1.000  H
  N25      1.0000 0.03980  0.57850  0.48700  Biso   1.000  N
  O49      1.0000 0.14872  0.44424  0.32965  Biso   1.000  O
  O50      1.0000 0.10890  0.36460  0.37781  Biso   1.000  O
  C101     1.0000 0.73507  0.80313  0.74539  Biso   1.000  C
  H51      1.0000 0.72547  0.75493  0.75683  Biso   1.000  H
  C102     1.0000 0.76487  0.81783  0.71115  Biso   1.000  C
  C103     1.0000 0.78667  0.75893  0.69370  Biso   1.000  C
  C104     1.0000 0.64837  0.88223  0.81133  Biso   1.000  C
  H52      1.0000 0.63347  0.91233  0.79643  Biso   1.000  H
  N26      1.0000 0.70647  0.91183  0.82033  Biso   1.000  N
  O51      1.0000 0.81539  0.77757  0.66298  Biso   1.000  O
  O52      1.0000 0.77557  0.69793  0.71114  Biso   1.000  O
  C105     1.0000 0.40173  0.13647  0.07873  Biso   1.000  C
  H53      1.0000 0.39213  0.08827  0.09017  Biso   1.000  H
  C106     1.0000 0.43153  0.15117  0.04449  Biso   1.000  C
  C107     1.0000 0.45333  0.09227  0.02704  Biso   1.000  C
  C108     1.0000 0.31503  0.21557  0.14467  Biso   1.000  C
  H54      1.0000 0.30013  0.24567  0.12977  Biso   1.000  H
  N27      1.0000 0.37313  0.24517  0.15367  Biso   1.000  N
  O53      1.0000 0.48205  0.11091  0.99632  Biso   1.000  O
  O54      1.0000 0.44223  0.03127  0.04448  Biso   1.000  O
  C109     1.0000 0.59860  0.53020  0.58794  Biso   1.000  C
  H55      1.0000 0.63720  0.57840  0.57650  Biso   1.000  H
  C110     1.0000 0.61370  0.51550  0.62218  Biso   1.000  C
  C111     1.0000 0.69440  0.57440  0.63963  Biso   1.000  C
  C112     1.0000 0.43280  0.45110  0.52200  Biso   1.000  C
  H56      1.0000 0.38780  0.42100  0.53690  Biso   1.000  H
  N28      1.0000 0.46130  0.42150  0.51300  Biso   1.000  N
  O55      1.0000 0.70448  0.55576  0.67035  Biso   1.000  O
  O56      1.0000 0.74430  0.63540  0.62219  Biso   1.000  O
  C113     1.0000 0.26527  0.86353  0.92127  Biso   1.000  C
  H57      1.0000 0.30387  0.91173  0.90983  Biso   1.000  H
  C114     1.0000 0.28037  0.84883  0.95551  Biso   1.000  C
  C115     1.0000 0.36107  0.90773  0.97296  Biso   1.000  C
  C116     1.0000 0.09947  0.78443  0.85533  Biso   1.000  C
  H58      1.0000 0.05447  0.75433  0.87023  Biso   1.000  H
  N29      1.0000 0.12797  0.75483  0.84633  Biso   1.000  N
  O57      1.0000 0.37115  0.88909  0.00368  Biso   1.000  O
  O58      1.0000 0.41097  0.96873  0.95552  Biso   1.000  O
  C117     1.0000 0.93193  0.19687  0.25461  Biso   1.000  C
  H59      1.0000 0.97053  0.24507  0.24317  Biso   1.000  H
  C118     1.0000 0.94703  0.18217  0.28885  Biso   1.000  C
  C119     1.0000 0.02773  0.24107  0.30630  Biso   1.000  C
  C120     1.0000 0.76613  0.11777  0.18867  Biso   1.000  C
  H60      1.0000 0.72113  0.08767  0.20357  Biso   1.000  H
  N30      1.0000 0.79463  0.08817  0.17967  Biso   1.000  N
  O59      1.0000 0.03781  0.22243  0.33702  Biso   1.000  O
  O60      1.0000 0.07763  0.30207  0.28886  Biso   1.000  O
  C121     1.0000 0.93160  0.40140  0.58794  Biso   1.000  C
  H61      1.0000 0.94120  0.36280  0.57650  Biso   1.000  H
  C122     1.0000 0.90180  0.38630  0.62218  Biso   1.000  C
  C123     1.0000 0.88000  0.30560  0.63963  Biso   1.000  C
  C124     1.0000 0.01830  0.56720  0.52200  Biso   1.000  C
  H62      1.0000 0.03320  0.61220  0.53690  Biso   1.000  H
  N31      1.0000 0.96020  0.53870  0.51300  Biso   1.000  N
  O61      1.0000 0.85128  0.29552  0.67035  Biso   1.000  O
  O62      1.0000 0.89110  0.25570  0.62219  Biso   1.000  O
  C125     1.0000 0.59827  0.73473  0.92127  Biso   1.000  C
  H63      1.0000 0.60787  0.69613  0.90983  Biso   1.000  H
  C126     1.0000 0.56847  0.71963  0.95551  Biso   1.000  C
  C127     1.0000 0.54667  0.63893  0.97296  Biso   1.000  C
  C128     1.0000 0.68497  0.90053  0.85533  Biso   1.000  C
  H64      1.0000 0.69987  0.94553  0.87023  Biso   1.000  H
  N32      1.0000 0.62687  0.87203  0.84633  Biso   1.000  N
  O63      1.0000 0.51795  0.62885  0.00368  Biso   1.000  O
  O64      1.0000 0.55777  0.58903  0.95552  Biso   1.000  O
  C129     1.0000 0.26493  0.06807  0.25461  Biso   1.000  C
  H65      1.0000 0.27453  0.02947  0.24317  Biso   1.000  H
  C130     1.0000 0.23513  0.05297  0.28885  Biso   1.000  C
  C131     1.0000 0.21333  0.97227  0.30630  Biso   1.000  C
  C132     1.0000 0.35163  0.23387  0.18867  Biso   1.000  C
  H66      1.0000 0.36653  0.27887  0.20357  Biso   1.000  H
  N33      1.0000 0.29353  0.20537  0.17967  Biso   1.000  N
  O65      1.0000 0.18461  0.96219  0.33702  Biso   1.000  O
  O66      1.0000 0.22443  0.92237  0.28886  Biso   1.000  O
  C133     1.0000 0.46980  0.06840  0.58794  Biso   1.000  C
  H67      1.0000 0.42160  0.05880  0.57650  Biso   1.000  H
  C134     1.0000 0.48450  0.09820  0.62218  Biso   1.000  C
  C135     1.0000 0.42560  0.12000  0.63963  Biso   1.000  C
  C136     1.0000 0.54890  0.98170  0.52200  Biso   1.000  C
  H68      1.0000 0.57900  0.96680  0.53690  Biso   1.000  H
  N34      1.0000 0.57850  0.03980  0.51300  Biso   1.000  N
  O67      1.0000 0.44424  0.14872  0.67035  Biso   1.000  O
  O68      1.0000 0.36460  0.10890  0.62219  Biso   1.000  O
  C137     1.0000 0.13647  0.40173  0.92127  Biso   1.000  C
  H69      1.0000 0.08827  0.39213  0.90983  Biso   1.000  H
  C138     1.0000 0.15117  0.43153  0.95551  Biso   1.000  C
  C139     1.0000 0.09227  0.45333  0.97296  Biso   1.000  C
  C140     1.0000 0.21557  0.31503  0.85533  Biso   1.000  C
  H70      1.0000 0.24567  0.30013  0.87023  Biso   1.000  H
  N35      1.0000 0.24517  0.37313  0.84633  Biso   1.000  N
  O69      1.0000 0.11091  0.48205  0.00368  Biso   1.000  O
  O70      1.0000 0.03127  0.44223  0.95552  Biso   1.000  O
  C141     1.0000 0.80313  0.73507  0.25461  Biso   1.000  C
  H71      1.0000 0.75493  0.72547  0.24317  Biso   1.000  H
  C142     1.0000 0.81783  0.76487  0.28885  Biso   1.000  C
  C143     1.0000 0.75893  0.78667  0.30630  Biso   1.000  C
  C144     1.0000 0.88223  0.64837  0.18867  Biso   1.000  C
  H72      1.0000 0.91233  0.63347  0.20357  Biso   1.000  H
  N36      1.0000 0.91183  0.70647  0.17967  Biso   1.000  N
  O71      1.0000 0.77757  0.81539  0.33702  Biso   1.000  O
  O72      1.0000 0.69793  0.77557  0.28886  Biso   1.000  O
  C145     1.0000 0.51290  0.48710  0.53412  Biso   1.000  C
  C146     1.0000 0.52640  0.47360  0.57055  Biso   1.000  C
  C147     1.0000 0.55620  0.44380  0.63927  Biso   1.000  C
  H73      1.0000 0.56570  0.43430  0.66240  Biso   1.000  H
  C148     1.0000 0.17957  0.82043  0.86745  Biso   1.000  C
  C149     1.0000 0.19307  0.80693  0.90388  Biso   1.000  C
  C150     1.0000 0.22287  0.77713  0.97260  Biso   1.000  C
  H74      1.0000 0.23237  0.76763  0.99573  Biso   1.000  H
  C151     1.0000 0.84623  0.15377  0.20079  Biso   1.000  C
  C152     1.0000 0.85973  0.14027  0.23722  Biso   1.000  C
  C153     1.0000 0.88953  0.11047  0.30594  Biso   1.000  C
  H75      1.0000 0.89903  0.10097  0.32907  Biso   1.000  H
  C154     1.0000 0.51290  0.02580  0.53412  Biso   1.000  C
  C155     1.0000 0.52640  0.05280  0.57055  Biso   1.000  C
  C156     1.0000 0.55620  0.11240  0.63927  Biso   1.000  C
  H76      1.0000 0.56570  0.13140  0.66240  Biso   1.000  H
  C157     1.0000 0.17957  0.35913  0.86745  Biso   1.000  C
  C158     1.0000 0.19307  0.38613  0.90388  Biso   1.000  C
  C159     1.0000 0.22287  0.44573  0.97260  Biso   1.000  C
  H77      1.0000 0.23237  0.46473  0.99573  Biso   1.000  H
  C160     1.0000 0.84623  0.69247  0.20079  Biso   1.000  C
  C161     1.0000 0.85973  0.71947  0.23722  Biso   1.000  C
  C162     1.0000 0.88953  0.77907  0.30594  Biso   1.000  C
  H78      1.0000 0.89903  0.79807  0.32907  Biso   1.000  H
  C163     1.0000 0.97420  0.48710  0.53412  Biso   1.000  C
  C164     1.0000 0.94720  0.47360  0.57055  Biso   1.000  C
  C165     1.0000 0.88760  0.44380  0.63927  Biso   1.000  C
  H79      1.0000 0.86860  0.43430  0.66240  Biso   1.000  H
  C166     1.0000 0.64087  0.82043  0.86745  Biso   1.000  C
  C167     1.0000 0.61387  0.80693  0.90388  Biso   1.000  C
  C168     1.0000 0.55427  0.77713  0.97260  Biso   1.000  C
  H80      1.0000 0.53527  0.76763  0.99573  Biso   1.000  H
  C169     1.0000 0.30753  0.15377  0.20079  Biso   1.000  C
  C170     1.0000 0.28053  0.14027  0.23722  Biso   1.000  C
  C171     1.0000 0.22093  0.11047  0.30594  Biso   1.000  C
  H81      1.0000 0.20193  0.10097  0.32907  Biso   1.000  H
  C172     1.0000 0.48710  0.51290  0.46588  Biso   1.000  C
  C173     1.0000 0.47360  0.52640  0.42945  Biso   1.000  C
  C174     1.0000 0.44380  0.55620  0.36073  Biso   1.000  C
  H82      1.0000 0.43430  0.56570  0.33760  Biso   1.000  H
  C175     1.0000 0.15377  0.84623  0.79921  Biso   1.000  C
  C176     1.0000 0.14027  0.85973  0.76278  Biso   1.000  C
  C177     1.0000 0.11047  0.88953  0.69406  Biso   1.000  C
  H83      1.0000 0.10097  0.89903  0.67093  Biso   1.000  H
  C178     1.0000 0.82043  0.17957  0.13255  Biso   1.000  C
  C179     1.0000 0.80693  0.19307  0.09612  Biso   1.000  C
  C180     1.0000 0.77713  0.22287  0.02740  Biso   1.000  C
  H84      1.0000 0.76763  0.23237  0.00427  Biso   1.000  H
  C181     1.0000 0.02580  0.51290  0.46588  Biso   1.000  C
  C182     1.0000 0.05280  0.52640  0.42945  Biso   1.000  C
  C183     1.0000 0.11240  0.55620  0.36073  Biso   1.000  C
  H85      1.0000 0.13140  0.56570  0.33760  Biso   1.000  H
  C184     1.0000 0.69247  0.84623  0.79921  Biso   1.000  C
  C185     1.0000 0.71947  0.85973  0.76278  Biso   1.000  C
  C186     1.0000 0.77907  0.88953  0.69406  Biso   1.000  C
  H86      1.0000 0.79807  0.89903  0.67093  Biso   1.000  H
  C187     1.0000 0.35913  0.17957  0.13255  Biso   1.000  C
  C188     1.0000 0.38613  0.19307  0.09612  Biso   1.000  C
  C189     1.0000 0.44573  0.22287  0.02740  Biso   1.000  C
  H87      1.0000 0.46473  0.23237  0.00427  Biso   1.000  H
  C190     1.0000 0.48710  0.97420  0.46588  Biso   1.000  C
  C191     1.0000 0.47360  0.94720  0.42945  Biso   1.000  C
  C192     1.0000 0.44380  0.88760  0.36073  Biso   1.000  C
  H88      1.0000 0.43430  0.86860  0.33760  Biso   1.000  H
  C193     1.0000 0.15377  0.30753  0.79921  Biso   1.000  C
  C194     1.0000 0.14027  0.28053  0.76278  Biso   1.000  C
  C195     1.0000 0.11047  0.22093  0.69406  Biso   1.000  C
  H89      1.0000 0.10097  0.20193  0.67093  Biso   1.000  H
  C196     1.0000 0.82043  0.64087  0.13255  Biso   1.000  C
  C197     1.0000 0.80693  0.61387  0.09612  Biso   1.000  C
  C198     1.0000 0.77713  0.55427  0.02740  Biso   1.000  C
  H90      1.0000 0.76763  0.53527  0.00427  Biso   1.000  H
  Cu1      1.0000 0.38082  0.19041  0.69539  Biso   1.000  Cu
  Cu2      1.0000 0.04749  0.52374  0.02873  Biso   1.000  Cu
  Cu3      1.0000 0.71415  0.85708  0.36206  Biso   1.000  Cu
  Cu4      1.0000 0.80959  0.19041  0.69539  Biso   1.000  Cu
  Cu5      1.0000 0.47626  0.52374  0.02873  Biso   1.000  Cu
  Cu6      1.0000 0.14292  0.85708  0.36206  Biso   1.000  Cu
  Cu7      1.0000 0.80959  0.61918  0.69539  Biso   1.000  Cu
  Cu8      1.0000 0.47626  0.95251  0.02873  Biso   1.000  Cu
  Cu9      1.0000 0.14292  0.28585  0.36206  Biso   1.000  Cu
  Cu10     1.0000 0.19041  0.38082  0.30461  Biso   1.000  Cu
  Cu11     1.0000 0.85708  0.71415  0.63794  Biso   1.000  Cu
  Cu12     1.0000 0.52374  0.04749  0.97127  Biso   1.000  Cu
  Cu13     1.0000 0.19041  0.80959  0.30461  Biso   1.000  Cu
  Cu14     1.0000 0.85708  0.14292  0.63794  Biso   1.000  Cu
  Cu15     1.0000 0.52374  0.47626  0.97127  Biso   1.000  Cu
  Cu16     1.0000 0.61918  0.80959  0.30461  Biso   1.000  Cu
  Cu17     1.0000 0.28585  0.14292  0.63794  Biso   1.000  Cu
  Cu18     1.0000 0.95251  0.47626  0.97127  Biso   1.000  Cu
