data_image0
_cell_length_a       25.935
_cell_length_b       12.3434
_cell_length_c       22.869
_cell_angle_alpha    90
_cell_angle_beta     133.605
_cell_angle_gamma    90

_symmetry_space_group_name_H-M    "P 1"
_symmetry_int_tables_number       1

loop_
  _symmetry_equiv_pos_as_xyz
  'x, y, z'

loop_
  _atom_site_label
  _atom_site_occupancy
  _atom_site_fract_x
  _atom_site_fract_y
  _atom_site_fract_z
  _atom_site_thermal_displace_type
  _atom_site_B_iso_or_equiv
  _atom_site_type_symbol
  Tb1      1.0000 0.87758  0.27606  0.12472  Biso   1.000  Tb
  S1       1.0000 0.91950  0.65240  0.16860  Biso   1.000  S
  S2       1.0000 0.91960  0.90540  0.17290  Biso   1.000  S
  S3       1.0000 0.89930  0.39540  0.36290  Biso   1.000  S
  S4       1.0000 0.86513  0.49940  0.45820  Biso   1.000  S
  O1       1.0000 0.80880  0.39670  0.13700  Biso   1.000  O
  O2       1.0000 0.90100  0.31330  0.24760  Biso   1.000  O
  O3       1.0000 0.70850  0.67480  0.39760  Biso   1.000  O
  O4       1.0000 0.81170  0.61420  0.51340  Biso   1.000  O
  O5       1.0000 0.94980  0.42700  0.18520  Biso   1.000  O
  O6       1.0000 0.94040  0.12790  0.20180  Biso   1.000  O
  C1       1.0000 0.84770  0.37530  0.21070  Biso   1.000  C
  C2       1.0000 0.83080  0.42220  0.25520  Biso   1.000  C
  C3       1.0000 0.84890  0.46350  0.37320  Biso   1.000  C
  C4       1.0000 0.78770  0.50630  0.30300  Biso   1.000  C
  C5       1.0000 0.78060  0.56890  0.39350  Biso   1.000  C
  C6       1.0000 0.76520  0.62300  0.43770  Biso   1.000  C
  C7       1.0000 0.95690  0.77800  0.21010  Biso   1.000  C
  C8       1.0000 0.02800  0.77650  0.27860  Biso   1.000  C
  C9       1.0000 0.71710  0.52010  0.15110  Biso   1.000  C
  H1       1.0000 0.72650  0.50730  0.11780  Biso   1.000  H
  H2       1.0000 0.71060  0.59630  0.15240  Biso   1.000  H
  H3       1.0000 0.67480  0.48190  0.12930  Biso   1.000  H
  C10      1.0000 0.67340  0.61030  0.24740  Biso   1.000  C
  H4       1.0000 0.65020  0.62090  0.26630  Biso   1.000  H
  H5       1.0000 0.64570  0.56140  0.20240  Biso   1.000  H
  H6       1.0000 0.67760  0.67860  0.23100  Biso   1.000  H
  C11      1.0000 0.12830  0.63880  0.37910  Biso   1.000  C
  H7       1.0000 0.13190  0.62980  0.42350  Biso   1.000  H
  H8       1.0000 0.15990  0.69550  0.39140  Biso   1.000  H
  H9       1.0000 0.14120  0.57230  0.37010  Biso   1.000  H
  C12      1.0000 0.13130  0.91120  0.37810  Biso   1.000  C
  H10      1.0000 0.14270  0.98310  0.37390  Biso   1.000  H
  H11      1.0000 0.16160  0.85990  0.38250  Biso   1.000  H
  H12      1.0000 0.13830  0.90660  0.42510  Biso   1.000  H
  C13      1.0000 0.77980  0.47990  0.23640  Biso   1.000  C
  C14      1.0000 0.74820  0.56210  0.31610  Biso   1.000  C
  C15      1.0000 0.05290  0.66810  0.30390  Biso   1.000  C
  C16      1.0000 0.05390  0.88590  0.30290  Biso   1.000  C
  S5       1.0000 0.74680  0.49630  0.19060  Biso   1.000  S
  S6       1.0000 0.71240  0.59740  0.28590  Biso   1.000  S
  C17      1.0000 0.82090  0.48260  0.34260  Biso   1.000  C
  C18      1.0000 0.76020  0.52570  0.27340  Biso   1.000  C
  C19      1.0000 0.92710  0.36130  0.39360  Biso   1.000  C
  H13      1.0000 0.95380  0.35730  0.37870  Biso   1.000  H
  H14      1.0000 0.91650  0.28940  0.39880  Biso   1.000  H
  H15      1.0000 0.95460  0.39860  0.44420  Biso   1.000  H
  C20      1.0000 0.89490  0.47050  0.49720  Biso   1.000  C
  H16      1.0000 0.90210  0.51900  0.53510  Biso   1.000  H
  H17      1.0000 0.93630  0.47110  0.50490  Biso   1.000  H
  H18      1.0000 0.88710  0.39850  0.50560  Biso   1.000  H
  C21      1.0000 0.85920  0.42140  0.32990  Biso   1.000  C
  C22      1.0000 0.83150  0.50620  0.41320  Biso   1.000  C
  Tb2      1.0000 0.37758  0.77606  0.12472  Biso   1.000  Tb
  S7       1.0000 0.41950  0.15240  0.16860  Biso   1.000  S
  S8       1.0000 0.41960  0.40540  0.17290  Biso   1.000  S
  S9       1.0000 0.39930  0.89540  0.36290  Biso   1.000  S
  S10      1.0000 0.36513  0.99940  0.45820  Biso   1.000  S
  O7       1.0000 0.30880  0.89670  0.13700  Biso   1.000  O
  O8       1.0000 0.40100  0.81330  0.24760  Biso   1.000  O
  O9       1.0000 0.20850  0.17480  0.39760  Biso   1.000  O
  O10      1.0000 0.31170  0.11420  0.51340  Biso   1.000  O
  O11      1.0000 0.44980  0.92700  0.18520  Biso   1.000  O
  O12      1.0000 0.44040  0.62790  0.20180  Biso   1.000  O
  C23      1.0000 0.34770  0.87530  0.21070  Biso   1.000  C
  C24      1.0000 0.33080  0.92220  0.25520  Biso   1.000  C
  C25      1.0000 0.34890  0.96350  0.37320  Biso   1.000  C
  C26      1.0000 0.28770  0.00630  0.30300  Biso   1.000  C
  C27      1.0000 0.28060  0.06890  0.39350  Biso   1.000  C
  C28      1.0000 0.26520  0.12300  0.43770  Biso   1.000  C
  C29      1.0000 0.45690  0.27800  0.21010  Biso   1.000  C
  C30      1.0000 0.52800  0.27650  0.27860  Biso   1.000  C
  C31      1.0000 0.21710  0.02010  0.15110  Biso   1.000  C
  H19      1.0000 0.22650  0.00730  0.11780  Biso   1.000  H
  H20      1.0000 0.21060  0.09630  0.15240  Biso   1.000  H
  H21      1.0000 0.17480  0.98190  0.12930  Biso   1.000  H
  C32      1.0000 0.17340  0.11030  0.24740  Biso   1.000  C
  H22      1.0000 0.15020  0.12090  0.26630  Biso   1.000  H
  H23      1.0000 0.14570  0.06140  0.20240  Biso   1.000  H
  H24      1.0000 0.17760  0.17860  0.23100  Biso   1.000  H
  C33      1.0000 0.62830  0.13880  0.37910  Biso   1.000  C
  H25      1.0000 0.63190  0.12980  0.42350  Biso   1.000  H
  H26      1.0000 0.65990  0.19550  0.39140  Biso   1.000  H
  H27      1.0000 0.64120  0.07230  0.37010  Biso   1.000  H
  C34      1.0000 0.63130  0.41120  0.37810  Biso   1.000  C
  H28      1.0000 0.64270  0.48310  0.37390  Biso   1.000  H
  H29      1.0000 0.66160  0.35990  0.38250  Biso   1.000  H
  H30      1.0000 0.63830  0.40660  0.42510  Biso   1.000  H
  C35      1.0000 0.27980  0.97990  0.23640  Biso   1.000  C
  C36      1.0000 0.24820  0.06210  0.31610  Biso   1.000  C
  C37      1.0000 0.55290  0.16810  0.30390  Biso   1.000  C
  C38      1.0000 0.55390  0.38590  0.30290  Biso   1.000  C
  S11      1.0000 0.24680  0.99630  0.19060  Biso   1.000  S
  S12      1.0000 0.21240  0.09740  0.28590  Biso   1.000  S
  C39      1.0000 0.32090  0.98260  0.34260  Biso   1.000  C
  C40      1.0000 0.26020  0.02570  0.27340  Biso   1.000  C
  C41      1.0000 0.42710  0.86130  0.39360  Biso   1.000  C
  H31      1.0000 0.45380  0.85730  0.37870  Biso   1.000  H
  H32      1.0000 0.41650  0.78940  0.39880  Biso   1.000  H
  H33      1.0000 0.45460  0.89860  0.44420  Biso   1.000  H
  C42      1.0000 0.39490  0.97050  0.49720  Biso   1.000  C
  H34      1.0000 0.40210  0.01900  0.53510  Biso   1.000  H
  H35      1.0000 0.43630  0.97110  0.50490  Biso   1.000  H
  H36      1.0000 0.38710  0.89850  0.50560  Biso   1.000  H
  C43      1.0000 0.35920  0.92140  0.32990  Biso   1.000  C
  C44      1.0000 0.33150  0.00620  0.41320  Biso   1.000  C
  Tb3      1.0000 0.12242  0.27606  0.37528  Biso   1.000  Tb
  S13      1.0000 0.08050  0.65240  0.33140  Biso   1.000  S
  S14      1.0000 0.08040  0.90540  0.32710  Biso   1.000  S
  S15      1.0000 0.10070  0.39540  0.13710  Biso   1.000  S
  S16      1.0000 0.13487  0.49940  0.04180  Biso   1.000  S
  O13      1.0000 0.19120  0.39670  0.36300  Biso   1.000  O
  O14      1.0000 0.09900  0.31330  0.25240  Biso   1.000  O
  O15      1.0000 0.29150  0.67480  0.10240  Biso   1.000  O
  O16      1.0000 0.18830  0.61420  0.98660  Biso   1.000  O
  O17      1.0000 0.05020  0.42700  0.31480  Biso   1.000  O
  O18      1.0000 0.05960  0.12790  0.29820  Biso   1.000  O
  C45      1.0000 0.15230  0.37530  0.28930  Biso   1.000  C
  C46      1.0000 0.16920  0.42220  0.24480  Biso   1.000  C
  C47      1.0000 0.15110  0.46350  0.12680  Biso   1.000  C
  C48      1.0000 0.21230  0.50630  0.19700  Biso   1.000  C
  C49      1.0000 0.21940  0.56890  0.10650  Biso   1.000  C
  C50      1.0000 0.23480  0.62300  0.06230  Biso   1.000  C
  C51      1.0000 0.04310  0.77800  0.28990  Biso   1.000  C
  C52      1.0000 0.97200  0.77650  0.22140  Biso   1.000  C
  C53      1.0000 0.28290  0.52010  0.34890  Biso   1.000  C
  H37      1.0000 0.27350  0.50730  0.38220  Biso   1.000  H
  H38      1.0000 0.28940  0.59630  0.34760  Biso   1.000  H
  H39      1.0000 0.32520  0.48190  0.37070  Biso   1.000  H
  C54      1.0000 0.32660  0.61030  0.25260  Biso   1.000  C
  H40      1.0000 0.34980  0.62090  0.23370  Biso   1.000  H
  H41      1.0000 0.35430  0.56140  0.29760  Biso   1.000  H
  H42      1.0000 0.32240  0.67860  0.26900  Biso   1.000  H
  C55      1.0000 0.87170  0.63880  0.12090  Biso   1.000  C
  H43      1.0000 0.86810  0.62980  0.07650  Biso   1.000  H
  H44      1.0000 0.84010  0.69550  0.10860  Biso   1.000  H
  H45      1.0000 0.85880  0.57230  0.12990  Biso   1.000  H
  C56      1.0000 0.86870  0.91120  0.12190  Biso   1.000  C
  H46      1.0000 0.85730  0.98310  0.12610  Biso   1.000  H
  H47      1.0000 0.83840  0.85990  0.11750  Biso   1.000  H
  H48      1.0000 0.86170  0.90660  0.07490  Biso   1.000  H
  C57      1.0000 0.22020  0.47990  0.26360  Biso   1.000  C
  C58      1.0000 0.25180  0.56210  0.18390  Biso   1.000  C
  C59      1.0000 0.94710  0.66810  0.19610  Biso   1.000  C
  C60      1.0000 0.94610  0.88590  0.19710  Biso   1.000  C
  S17      1.0000 0.25320  0.49630  0.30940  Biso   1.000  S
  S18      1.0000 0.28760  0.59740  0.21410  Biso   1.000  S
  C61      1.0000 0.17910  0.48260  0.15740  Biso   1.000  C
  C62      1.0000 0.23980  0.52570  0.22660  Biso   1.000  C
  C63      1.0000 0.07290  0.36130  0.10640  Biso   1.000  C
  H49      1.0000 0.04620  0.35730  0.12130  Biso   1.000  H
  H50      1.0000 0.08350  0.28940  0.10120  Biso   1.000  H
  H51      1.0000 0.04540  0.39860  0.05580  Biso   1.000  H
  C64      1.0000 0.10510  0.47050  0.00280  Biso   1.000  C
  H52      1.0000 0.09790  0.51900  0.96490  Biso   1.000  H
  H53      1.0000 0.06370  0.47110  0.99510  Biso   1.000  H
  H54      1.0000 0.11290  0.39850  0.99440  Biso   1.000  H
  C65      1.0000 0.14080  0.42140  0.17010  Biso   1.000  C
  C66      1.0000 0.16850  0.50620  0.08680  Biso   1.000  C
  Tb4      1.0000 0.62242  0.77606  0.37528  Biso   1.000  Tb
  S19      1.0000 0.58050  0.15240  0.33140  Biso   1.000  S
  S20      1.0000 0.58040  0.40540  0.32710  Biso   1.000  S
  S21      1.0000 0.60070  0.89540  0.13710  Biso   1.000  S
  S22      1.0000 0.63487  0.99940  0.04180  Biso   1.000  S
  O19      1.0000 0.69120  0.89670  0.36300  Biso   1.000  O
  O20      1.0000 0.59900  0.81330  0.25240  Biso   1.000  O
  O21      1.0000 0.79150  0.17480  0.10240  Biso   1.000  O
  O22      1.0000 0.68830  0.11420  0.98660  Biso   1.000  O
  O23      1.0000 0.55020  0.92700  0.31480  Biso   1.000  O
  O24      1.0000 0.55960  0.62790  0.29820  Biso   1.000  O
  C67      1.0000 0.65230  0.87530  0.28930  Biso   1.000  C
  C68      1.0000 0.66920  0.92220  0.24480  Biso   1.000  C
  C69      1.0000 0.65110  0.96350  0.12680  Biso   1.000  C
  C70      1.0000 0.71230  0.00630  0.19700  Biso   1.000  C
  C71      1.0000 0.71940  0.06890  0.10650  Biso   1.000  C
  C72      1.0000 0.73480  0.12300  0.06230  Biso   1.000  C
  C73      1.0000 0.54310  0.27800  0.28990  Biso   1.000  C
  C74      1.0000 0.47200  0.27650  0.22140  Biso   1.000  C
  C75      1.0000 0.78290  0.02010  0.34890  Biso   1.000  C
  H55      1.0000 0.77350  0.00730  0.38220  Biso   1.000  H
  H56      1.0000 0.78940  0.09630  0.34760  Biso   1.000  H
  H57      1.0000 0.82520  0.98190  0.37070  Biso   1.000  H
  C76      1.0000 0.82660  0.11030  0.25260  Biso   1.000  C
  H58      1.0000 0.84980  0.12090  0.23370  Biso   1.000  H
  H59      1.0000 0.85430  0.06140  0.29760  Biso   1.000  H
  H60      1.0000 0.82240  0.17860  0.26900  Biso   1.000  H
  C77      1.0000 0.37170  0.13880  0.12090  Biso   1.000  C
  H61      1.0000 0.36810  0.12980  0.07650  Biso   1.000  H
  H62      1.0000 0.34010  0.19550  0.10860  Biso   1.000  H
  H63      1.0000 0.35880  0.07230  0.12990  Biso   1.000  H
  C78      1.0000 0.36870  0.41120  0.12190  Biso   1.000  C
  H64      1.0000 0.35730  0.48310  0.12610  Biso   1.000  H
  H65      1.0000 0.33840  0.35990  0.11750  Biso   1.000  H
  H66      1.0000 0.36170  0.40660  0.07490  Biso   1.000  H
  C79      1.0000 0.72020  0.97990  0.26360  Biso   1.000  C
  C80      1.0000 0.75180  0.06210  0.18390  Biso   1.000  C
  C81      1.0000 0.44710  0.16810  0.19610  Biso   1.000  C
  C82      1.0000 0.44610  0.38590  0.19710  Biso   1.000  C
  S23      1.0000 0.75320  0.99630  0.30940  Biso   1.000  S
  S24      1.0000 0.78760  0.09740  0.21410  Biso   1.000  S
  C83      1.0000 0.67910  0.98260  0.15740  Biso   1.000  C
  C84      1.0000 0.73980  0.02570  0.22660  Biso   1.000  C
  C85      1.0000 0.57290  0.86130  0.10640  Biso   1.000  C
  H67      1.0000 0.54620  0.85730  0.12130  Biso   1.000  H
  H68      1.0000 0.58350  0.78940  0.10120  Biso   1.000  H
  H69      1.0000 0.54540  0.89860  0.05580  Biso   1.000  H
  C86      1.0000 0.60510  0.97050  0.00280  Biso   1.000  C
  H70      1.0000 0.59790  0.01900  0.96490  Biso   1.000  H
  H71      1.0000 0.56370  0.97110  0.99510  Biso   1.000  H
  H72      1.0000 0.61290  0.89850  0.99440  Biso   1.000  H
  C87      1.0000 0.64080  0.92140  0.17010  Biso   1.000  C
  C88      1.0000 0.66850  0.00620  0.08680  Biso   1.000  C
  Tb5      1.0000 0.12242  0.72394  0.87528  Biso   1.000  Tb
  S25      1.0000 0.08050  0.34760  0.83140  Biso   1.000  S
  S26      1.0000 0.08040  0.09460  0.82710  Biso   1.000  S
  S27      1.0000 0.10070  0.60460  0.63710  Biso   1.000  S
  S28      1.0000 0.13487  0.50060  0.54180  Biso   1.000  S
  O25      1.0000 0.19120  0.60330  0.86300  Biso   1.000  O
  O26      1.0000 0.09900  0.68670  0.75240  Biso   1.000  O
  O27      1.0000 0.29150  0.32520  0.60240  Biso   1.000  O
  O28      1.0000 0.18830  0.38580  0.48660  Biso   1.000  O
  O29      1.0000 0.05020  0.57300  0.81480  Biso   1.000  O
  O30      1.0000 0.05960  0.87210  0.79820  Biso   1.000  O
  C89      1.0000 0.15230  0.62470  0.78930  Biso   1.000  C
  C90      1.0000 0.16920  0.57780  0.74480  Biso   1.000  C
  C91      1.0000 0.15110  0.53650  0.62680  Biso   1.000  C
  C92      1.0000 0.21230  0.49370  0.69700  Biso   1.000  C
  C93      1.0000 0.21940  0.43110  0.60650  Biso   1.000  C
  C94      1.0000 0.23480  0.37700  0.56230  Biso   1.000  C
  C95      1.0000 0.04310  0.22200  0.78990  Biso   1.000  C
  C96      1.0000 0.97200  0.22350  0.72140  Biso   1.000  C
  C97      1.0000 0.28290  0.47990  0.84890  Biso   1.000  C
  H73      1.0000 0.27350  0.49270  0.88220  Biso   1.000  H
  H74      1.0000 0.28940  0.40370  0.84760  Biso   1.000  H
  H75      1.0000 0.32520  0.51810  0.87070  Biso   1.000  H
  C98      1.0000 0.32660  0.38970  0.75260  Biso   1.000  C
  H76      1.0000 0.34980  0.37910  0.73370  Biso   1.000  H
  H77      1.0000 0.35430  0.43860  0.79760  Biso   1.000  H
  H78      1.0000 0.32240  0.32140  0.76900  Biso   1.000  H
  C99      1.0000 0.87170  0.36120  0.62090  Biso   1.000  C
  H79      1.0000 0.86810  0.37020  0.57650  Biso   1.000  H
  H80      1.0000 0.84010  0.30450  0.60860  Biso   1.000  H
  H81      1.0000 0.85880  0.42770  0.62990  Biso   1.000  H
  C100     1.0000 0.86870  0.08880  0.62190  Biso   1.000  C
  H82      1.0000 0.85730  0.01690  0.62610  Biso   1.000  H
  H83      1.0000 0.83840  0.14010  0.61750  Biso   1.000  H
  H84      1.0000 0.86170  0.09340  0.57490  Biso   1.000  H
  C101     1.0000 0.22020  0.52010  0.76360  Biso   1.000  C
  C102     1.0000 0.25180  0.43790  0.68390  Biso   1.000  C
  C103     1.0000 0.94710  0.33190  0.69610  Biso   1.000  C
  C104     1.0000 0.94610  0.11410  0.69710  Biso   1.000  C
  S29      1.0000 0.25320  0.50370  0.80940  Biso   1.000  S
  S30      1.0000 0.28760  0.40260  0.71410  Biso   1.000  S
  C105     1.0000 0.17910  0.51740  0.65740  Biso   1.000  C
  C106     1.0000 0.23980  0.47430  0.72660  Biso   1.000  C
  C107     1.0000 0.07290  0.63870  0.60640  Biso   1.000  C
  H85      1.0000 0.04620  0.64270  0.62130  Biso   1.000  H
  H86      1.0000 0.08350  0.71060  0.60120  Biso   1.000  H
  H87      1.0000 0.04540  0.60140  0.55580  Biso   1.000  H
  C108     1.0000 0.10510  0.52950  0.50280  Biso   1.000  C
  H88      1.0000 0.09790  0.48100  0.46490  Biso   1.000  H
  H89      1.0000 0.06370  0.52890  0.49510  Biso   1.000  H
  H90      1.0000 0.11290  0.60150  0.49440  Biso   1.000  H
  C109     1.0000 0.14080  0.57860  0.67010  Biso   1.000  C
  C110     1.0000 0.16850  0.49380  0.58680  Biso   1.000  C
  Tb6      1.0000 0.62242  0.22394  0.87528  Biso   1.000  Tb
  S31      1.0000 0.58050  0.84760  0.83140  Biso   1.000  S
  S32      1.0000 0.58040  0.59460  0.82710  Biso   1.000  S
  S33      1.0000 0.60070  0.10460  0.63710  Biso   1.000  S
  S34      1.0000 0.63487  0.00060  0.54180  Biso   1.000  S
  O31      1.0000 0.69120  0.10330  0.86300  Biso   1.000  O
  O32      1.0000 0.59900  0.18670  0.75240  Biso   1.000  O
  O33      1.0000 0.79150  0.82520  0.60240  Biso   1.000  O
  O34      1.0000 0.68830  0.88580  0.48660  Biso   1.000  O
  O35      1.0000 0.55020  0.07300  0.81480  Biso   1.000  O
  O36      1.0000 0.55960  0.37210  0.79820  Biso   1.000  O
  C111     1.0000 0.65230  0.12470  0.78930  Biso   1.000  C
  C112     1.0000 0.66920  0.07780  0.74480  Biso   1.000  C
  C113     1.0000 0.65110  0.03650  0.62680  Biso   1.000  C
  C114     1.0000 0.71230  0.99370  0.69700  Biso   1.000  C
  C115     1.0000 0.71940  0.93110  0.60650  Biso   1.000  C
  C116     1.0000 0.73480  0.87700  0.56230  Biso   1.000  C
  C117     1.0000 0.54310  0.72200  0.78990  Biso   1.000  C
  C118     1.0000 0.47200  0.72350  0.72140  Biso   1.000  C
  C119     1.0000 0.78290  0.97990  0.84890  Biso   1.000  C
  H91      1.0000 0.77350  0.99270  0.88220  Biso   1.000  H
  H92      1.0000 0.78940  0.90370  0.84760  Biso   1.000  H
  H93      1.0000 0.82520  0.01810  0.87070  Biso   1.000  H
  C120     1.0000 0.82660  0.88970  0.75260  Biso   1.000  C
  H94      1.0000 0.84980  0.87910  0.73370  Biso   1.000  H
  H95      1.0000 0.85430  0.93860  0.79760  Biso   1.000  H
  H96      1.0000 0.82240  0.82140  0.76900  Biso   1.000  H
  C121     1.0000 0.37170  0.86120  0.62090  Biso   1.000  C
  H97      1.0000 0.36810  0.87020  0.57650  Biso   1.000  H
  H98      1.0000 0.34010  0.80450  0.60860  Biso   1.000  H
  H99      1.0000 0.35880  0.92770  0.62990  Biso   1.000  H
  C122     1.0000 0.36870  0.58880  0.62190  Biso   1.000  C
  H100     1.0000 0.35730  0.51690  0.62610  Biso   1.000  H
  H101     1.0000 0.33840  0.64010  0.61750  Biso   1.000  H
  H102     1.0000 0.36170  0.59340  0.57490  Biso   1.000  H
  C123     1.0000 0.72020  0.02010  0.76360  Biso   1.000  C
  C124     1.0000 0.75180  0.93790  0.68390  Biso   1.000  C
  C125     1.0000 0.44710  0.83190  0.69610  Biso   1.000  C
  C126     1.0000 0.44610  0.61410  0.69710  Biso   1.000  C
  S35      1.0000 0.75320  0.00370  0.80940  Biso   1.000  S
  S36      1.0000 0.78760  0.90260  0.71410  Biso   1.000  S
  C127     1.0000 0.67910  0.01740  0.65740  Biso   1.000  C
  C128     1.0000 0.73980  0.97430  0.72660  Biso   1.000  C
  C129     1.0000 0.57290  0.13870  0.60640  Biso   1.000  C
  H103     1.0000 0.54620  0.14270  0.62130  Biso   1.000  H
  H104     1.0000 0.58350  0.21060  0.60120  Biso   1.000  H
  H105     1.0000 0.54540  0.10140  0.55580  Biso   1.000  H
  C130     1.0000 0.60510  0.02950  0.50280  Biso   1.000  C
  H106     1.0000 0.59790  0.98100  0.46490  Biso   1.000  H
  H107     1.0000 0.56370  0.02890  0.49510  Biso   1.000  H
  H108     1.0000 0.61290  0.10150  0.49440  Biso   1.000  H
  C131     1.0000 0.64080  0.07860  0.67010  Biso   1.000  C
  C132     1.0000 0.66850  0.99380  0.58680  Biso   1.000  C
  Tb7      1.0000 0.87758  0.72394  0.62472  Biso   1.000  Tb
  S37      1.0000 0.91950  0.34760  0.66860  Biso   1.000  S
  S38      1.0000 0.91960  0.09460  0.67290  Biso   1.000  S
  S39      1.0000 0.89930  0.60460  0.86290  Biso   1.000  S
  S40      1.0000 0.86513  0.50060  0.95820  Biso   1.000  S
  O37      1.0000 0.80880  0.60330  0.63700  Biso   1.000  O
  O38      1.0000 0.90100  0.68670  0.74760  Biso   1.000  O
  O39      1.0000 0.70850  0.32520  0.89760  Biso   1.000  O
  O40      1.0000 0.81170  0.38580  0.01340  Biso   1.000  O
  O41      1.0000 0.94980  0.57300  0.68520  Biso   1.000  O
  O42      1.0000 0.94040  0.87210  0.70180  Biso   1.000  O
  C133     1.0000 0.84770  0.62470  0.71070  Biso   1.000  C
  C134     1.0000 0.83080  0.57780  0.75520  Biso   1.000  C
  C135     1.0000 0.84890  0.53650  0.87320  Biso   1.000  C
  C136     1.0000 0.78770  0.49370  0.80300  Biso   1.000  C
  C137     1.0000 0.78060  0.43110  0.89350  Biso   1.000  C
  C138     1.0000 0.76520  0.37700  0.93770  Biso   1.000  C
  C139     1.0000 0.95690  0.22200  0.71010  Biso   1.000  C
  C140     1.0000 0.02800  0.22350  0.77860  Biso   1.000  C
  C141     1.0000 0.71710  0.47990  0.65110  Biso   1.000  C
  H109     1.0000 0.72650  0.49270  0.61780  Biso   1.000  H
  H110     1.0000 0.71060  0.40370  0.65240  Biso   1.000  H
  H111     1.0000 0.67480  0.51810  0.62930  Biso   1.000  H
  C142     1.0000 0.67340  0.38970  0.74740  Biso   1.000  C
  H112     1.0000 0.65020  0.37910  0.76630  Biso   1.000  H
  H113     1.0000 0.64570  0.43860  0.70240  Biso   1.000  H
  H114     1.0000 0.67760  0.32140  0.73100  Biso   1.000  H
  C143     1.0000 0.12830  0.36120  0.87910  Biso   1.000  C
  H115     1.0000 0.13190  0.37020  0.92350  Biso   1.000  H
  H116     1.0000 0.15990  0.30450  0.89140  Biso   1.000  H
  H117     1.0000 0.14120  0.42770  0.87010  Biso   1.000  H
  C144     1.0000 0.13130  0.08880  0.87810  Biso   1.000  C
  H118     1.0000 0.14270  0.01690  0.87390  Biso   1.000  H
  H119     1.0000 0.16160  0.14010  0.88250  Biso   1.000  H
  H120     1.0000 0.13830  0.09340  0.92510  Biso   1.000  H
  C145     1.0000 0.77980  0.52010  0.73640  Biso   1.000  C
  C146     1.0000 0.74820  0.43790  0.81610  Biso   1.000  C
  C147     1.0000 0.05290  0.33190  0.80390  Biso   1.000  C
  C148     1.0000 0.05390  0.11410  0.80290  Biso   1.000  C
  S41      1.0000 0.74680  0.50370  0.69060  Biso   1.000  S
  S42      1.0000 0.71240  0.40260  0.78590  Biso   1.000  S
  C149     1.0000 0.82090  0.51740  0.84260  Biso   1.000  C
  C150     1.0000 0.76020  0.47430  0.77340  Biso   1.000  C
  C151     1.0000 0.92710  0.63870  0.89360  Biso   1.000  C
  H121     1.0000 0.95380  0.64270  0.87870  Biso   1.000  H
  H122     1.0000 0.91650  0.71060  0.89880  Biso   1.000  H
  H123     1.0000 0.95460  0.60140  0.94420  Biso   1.000  H
  C152     1.0000 0.89490  0.52950  0.99720  Biso   1.000  C
  H124     1.0000 0.90210  0.48100  0.03510  Biso   1.000  H
  H125     1.0000 0.93630  0.52890  0.00490  Biso   1.000  H
  H126     1.0000 0.88710  0.60150  0.00560  Biso   1.000  H
  C153     1.0000 0.85920  0.57860  0.82990  Biso   1.000  C
  C154     1.0000 0.83150  0.49380  0.91320  Biso   1.000  C
  Tb8      1.0000 0.37758  0.22394  0.62472  Biso   1.000  Tb
  S43      1.0000 0.41950  0.84760  0.66860  Biso   1.000  S
  S44      1.0000 0.41960  0.59460  0.67290  Biso   1.000  S
  S45      1.0000 0.39930  0.10460  0.86290  Biso   1.000  S
  S46      1.0000 0.36513  0.00060  0.95820  Biso   1.000  S
  O43      1.0000 0.30880  0.10330  0.63700  Biso   1.000  O
  O44      1.0000 0.40100  0.18670  0.74760  Biso   1.000  O
  O45      1.0000 0.20850  0.82520  0.89760  Biso   1.000  O
  O46      1.0000 0.31170  0.88580  0.01340  Biso   1.000  O
  O47      1.0000 0.44980  0.07300  0.68520  Biso   1.000  O
  O48      1.0000 0.44040  0.37210  0.70180  Biso   1.000  O
  C155     1.0000 0.34770  0.12470  0.71070  Biso   1.000  C
  C156     1.0000 0.33080  0.07780  0.75520  Biso   1.000  C
  C157     1.0000 0.34890  0.03650  0.87320  Biso   1.000  C
  C158     1.0000 0.28770  0.99370  0.80300  Biso   1.000  C
  C159     1.0000 0.28060  0.93110  0.89350  Biso   1.000  C
  C160     1.0000 0.26520  0.87700  0.93770  Biso   1.000  C
  C161     1.0000 0.45690  0.72200  0.71010  Biso   1.000  C
  C162     1.0000 0.52800  0.72350  0.77860  Biso   1.000  C
  C163     1.0000 0.21710  0.97990  0.65110  Biso   1.000  C
  H127     1.0000 0.22650  0.99270  0.61780  Biso   1.000  H
  H128     1.0000 0.21060  0.90370  0.65240  Biso   1.000  H
  H129     1.0000 0.17480  0.01810  0.62930  Biso   1.000  H
  C164     1.0000 0.17340  0.88970  0.74740  Biso   1.000  C
  H130     1.0000 0.15020  0.87910  0.76630  Biso   1.000  H
  H131     1.0000 0.14570  0.93860  0.70240  Biso   1.000  H
  H132     1.0000 0.17760  0.82140  0.73100  Biso   1.000  H
  C165     1.0000 0.62830  0.86120  0.87910  Biso   1.000  C
  H133     1.0000 0.63190  0.87020  0.92350  Biso   1.000  H
  H134     1.0000 0.65990  0.80450  0.89140  Biso   1.000  H
  H135     1.0000 0.64120  0.92770  0.87010  Biso   1.000  H
  C166     1.0000 0.63130  0.58880  0.87810  Biso   1.000  C
  H136     1.0000 0.64270  0.51690  0.87390  Biso   1.000  H
  H137     1.0000 0.66160  0.64010  0.88250  Biso   1.000  H
  H138     1.0000 0.63830  0.59340  0.92510  Biso   1.000  H
  C167     1.0000 0.27980  0.02010  0.73640  Biso   1.000  C
  C168     1.0000 0.24820  0.93790  0.81610  Biso   1.000  C
  C169     1.0000 0.55290  0.83190  0.80390  Biso   1.000  C
  C170     1.0000 0.55390  0.61410  0.80290  Biso   1.000  C
  S47      1.0000 0.24680  0.00370  0.69060  Biso   1.000  S
  S48      1.0000 0.21240  0.90260  0.78590  Biso   1.000  S
  C171     1.0000 0.32090  0.01740  0.84260  Biso   1.000  C
  C172     1.0000 0.26020  0.97430  0.77340  Biso   1.000  C
  C173     1.0000 0.42710  0.13870  0.89360  Biso   1.000  C
  H139     1.0000 0.45380  0.14270  0.87870  Biso   1.000  H
  H140     1.0000 0.41650  0.21060  0.89880  Biso   1.000  H
  H141     1.0000 0.45460  0.10140  0.94420  Biso   1.000  H
  C174     1.0000 0.39490  0.02950  0.99720  Biso   1.000  C
  H142     1.0000 0.40210  0.98100  0.03510  Biso   1.000  H
  H143     1.0000 0.43630  0.02890  0.00490  Biso   1.000  H
  H144     1.0000 0.38710  0.10150  0.00560  Biso   1.000  H
  C175     1.0000 0.35920  0.07860  0.82990  Biso   1.000  C
  C176     1.0000 0.33150  0.99380  0.91320  Biso   1.000  C
  C177     1.0000 0.00000  0.47280  0.25000  Biso   1.000  C
  C178     1.0000 0.00000  0.59350  0.25000  Biso   1.000  C
  C179     1.0000 0.00000  0.08140  0.25000  Biso   1.000  C
  C180     1.0000 0.00000  0.96180  0.25000  Biso   1.000  C
  C181     1.0000 0.50000  0.97280  0.25000  Biso   1.000  C
  C182     1.0000 0.50000  0.09350  0.25000  Biso   1.000  C
  C183     1.0000 0.50000  0.58140  0.25000  Biso   1.000  C
  C184     1.0000 0.50000  0.46180  0.25000  Biso   1.000  C
  C185     1.0000 0.00000  0.52720  0.75000  Biso   1.000  C
  C186     1.0000 0.00000  0.40650  0.75000  Biso   1.000  C
  C187     1.0000 0.00000  0.91860  0.75000  Biso   1.000  C
  C188     1.0000 0.00000  0.03820  0.75000  Biso   1.000  C
  C189     1.0000 0.50000  0.02720  0.75000  Biso   1.000  C
  C190     1.0000 0.50000  0.90650  0.75000  Biso   1.000  C
  C191     1.0000 0.50000  0.41860  0.75000  Biso   1.000  C
  C192     1.0000 0.50000  0.53820  0.75000  Biso   1.000  C
