data_image0
_cell_length_a       26.019
_cell_length_b       12.3698
_cell_length_c       19.5603
_cell_angle_alpha    90
_cell_angle_beta     121.672
_cell_angle_gamma    90

_symmetry_space_group_name_H-M    "P 1"
_symmetry_int_tables_number       1

loop_
  _symmetry_equiv_pos_as_xyz
  'x, y, z'

loop_
  _atom_site_label
  _atom_site_occupancy
  _atom_site_fract_x
  _atom_site_fract_y
  _atom_site_fract_z
  _atom_site_thermal_displace_type
  _atom_site_B_iso_or_equiv
  _atom_site_type_symbol
  Eu1      1.0000 0.50318  0.97455  0.37554  Biso   1.000  Eu
  S1       1.0000 0.50132  0.59790  0.33050  Biso   1.000  S
  S2       1.0000 0.49660  0.34560  0.32510  Biso   1.000  S
  S3       1.0000 0.34259  0.25050  0.45750  Biso   1.000  S
  S4       1.0000 0.21398  0.35520  0.36260  Biso   1.000  S
  O1       1.0000 0.43920  0.07710  0.39850  Biso   1.000  O
  O2       1.0000 0.45060  0.13640  0.51210  Biso   1.000  O
  O3       1.0000 0.07910  0.35450  0.13720  Biso   1.000  O
  O4       1.0000 0.09700  0.43740  0.24790  Biso   1.000  O
  O5       1.0000 0.51540  0.82200  0.31490  Biso   1.000  O
  O6       1.0000 0.48840  0.12440  0.29760  Biso   1.000  O
  C1       1.0000 0.42220  0.12850  0.43820  Biso   1.000  C
  C2       1.0000 0.36220  0.18250  0.39310  Biso   1.000  C
  C3       1.0000 0.27470  0.28290  0.37250  Biso   1.000  C
  C4       1.0000 0.26640  0.24440  0.30360  Biso   1.000  C
  C5       1.0000 0.17510  0.32880  0.25590  Biso   1.000  C
  C6       1.0000 0.11350  0.37540  0.21130  Biso   1.000  C
  C7       1.0000 0.50020  0.47380  0.22140  Biso   1.000  C
  C8       1.0000 0.49900  0.47270  0.29060  Biso   1.000  C
  C9       1.0000 0.32360  0.14120  0.24990  Biso   1.000  C
  H1       1.0000 0.36550  0.14130  0.26680  Biso   1.000  H
  H2       1.0000 0.30120  0.18380  0.20200  Biso   1.000  H
  H3       1.0000 0.30860  0.06830  0.23920  Biso   1.000  H
  C10      1.0000 0.18290  0.22930  0.15140  Biso   1.000  C
  H4       1.0000 0.13960  0.23480  0.12060  Biso   1.000  H
  H5       1.0000 0.19450  0.15510  0.15380  Biso   1.000  H
  H6       1.0000 0.19940  0.27180  0.12640  Biso   1.000  H
  C11      1.0000 0.49990  0.61050  0.12170  Biso   1.000  C
  H7       1.0000 0.50390  0.68740  0.11980  Biso   1.000  H
  H8       1.0000 0.46280  0.58750  0.07490  Biso   1.000  H
  H9       1.0000 0.53330  0.57540  0.12310  Biso   1.000  H
  C12      1.0000 0.50120  0.34080  0.12050  Biso   1.000  C
  H10      1.0000 0.54020  0.35840  0.12940  Biso   1.000  H
  H11      1.0000 0.47080  0.38230  0.07620  Biso   1.000  H
  H12      1.0000 0.49350  0.26510  0.10850  Biso   1.000  H
  C13      1.0000 0.31630  0.18900  0.31600  Biso   1.000  C
  C14      1.0000 0.20670  0.27080  0.23590  Biso   1.000  C
  C15      1.0000 0.49900  0.58080  0.19700  Biso   1.000  C
  C16      1.0000 0.49990  0.36690  0.19640  Biso   1.000  C
  S5       1.0000 0.32404  0.15460  0.28730  Biso   1.000  S
  S6       1.0000 0.19398  0.25590  0.19090  Biso   1.000  S
  C17      1.0000 0.27110  0.26910  0.34130  Biso   1.000  C
  C18      1.0000 0.26280  0.22720  0.27460  Biso   1.000  C
  C19      1.0000 0.35270  0.27980  0.49680  Biso   1.000  C
  H13      1.0000 0.39020  0.24430  0.53320  Biso   1.000  H
  H14      1.0000 0.32330  0.26130  0.51040  Biso   1.000  H
  H15      1.0000 0.35870  0.35670  0.50090  Biso   1.000  H
  C20      1.0000 0.21450  0.39180  0.39040  Biso   1.000  C
  H16      1.0000 0.18170  0.44220  0.36360  Biso   1.000  H
  H17      1.0000 0.25130  0.43030  0.42490  Biso   1.000  H
  H18      1.0000 0.20660  0.34270  0.42190  Biso   1.000  H
  C21      1.0000 0.33060  0.24440  0.41280  Biso   1.000  C
  C22      1.0000 0.22050  0.32900  0.32880  Biso   1.000  C
  Eu2      1.0000 0.00318  0.47455  0.37554  Biso   1.000  Eu
  S7       1.0000 0.00132  0.09790  0.33050  Biso   1.000  S
  S8       1.0000 0.99660  0.84560  0.32510  Biso   1.000  S
  S9       1.0000 0.84259  0.75050  0.45750  Biso   1.000  S
  S10      1.0000 0.71398  0.85520  0.36260  Biso   1.000  S
  O7       1.0000 0.93920  0.57710  0.39850  Biso   1.000  O
  O8       1.0000 0.95060  0.63640  0.51210  Biso   1.000  O
  O9       1.0000 0.57910  0.85450  0.13720  Biso   1.000  O
  O10      1.0000 0.59700  0.93740  0.24790  Biso   1.000  O
  O11      1.0000 0.01540  0.32200  0.31490  Biso   1.000  O
  O12      1.0000 0.98840  0.62440  0.29760  Biso   1.000  O
  C23      1.0000 0.92220  0.62850  0.43820  Biso   1.000  C
  C24      1.0000 0.86220  0.68250  0.39310  Biso   1.000  C
  C25      1.0000 0.77470  0.78290  0.37250  Biso   1.000  C
  C26      1.0000 0.76640  0.74440  0.30360  Biso   1.000  C
  C27      1.0000 0.67510  0.82880  0.25590  Biso   1.000  C
  C28      1.0000 0.61350  0.87540  0.21130  Biso   1.000  C
  C29      1.0000 0.00020  0.97380  0.22140  Biso   1.000  C
  C30      1.0000 0.99900  0.97270  0.29060  Biso   1.000  C
  C31      1.0000 0.82360  0.64120  0.24990  Biso   1.000  C
  H19      1.0000 0.86550  0.64130  0.26680  Biso   1.000  H
  H20      1.0000 0.80120  0.68380  0.20200  Biso   1.000  H
  H21      1.0000 0.80860  0.56830  0.23920  Biso   1.000  H
  C32      1.0000 0.68290  0.72930  0.15140  Biso   1.000  C
  H22      1.0000 0.63960  0.73480  0.12060  Biso   1.000  H
  H23      1.0000 0.69450  0.65510  0.15380  Biso   1.000  H
  H24      1.0000 0.69940  0.77180  0.12640  Biso   1.000  H
  C33      1.0000 0.99990  0.11050  0.12170  Biso   1.000  C
  H25      1.0000 0.00390  0.18740  0.11980  Biso   1.000  H
  H26      1.0000 0.96280  0.08750  0.07490  Biso   1.000  H
  H27      1.0000 0.03330  0.07540  0.12310  Biso   1.000  H
  C34      1.0000 0.00120  0.84080  0.12050  Biso   1.000  C
  H28      1.0000 0.04020  0.85840  0.12940  Biso   1.000  H
  H29      1.0000 0.97080  0.88230  0.07620  Biso   1.000  H
  H30      1.0000 0.99350  0.76510  0.10850  Biso   1.000  H
  C35      1.0000 0.81630  0.68900  0.31600  Biso   1.000  C
  C36      1.0000 0.70670  0.77080  0.23590  Biso   1.000  C
  C37      1.0000 0.99900  0.08080  0.19700  Biso   1.000  C
  C38      1.0000 0.99990  0.86690  0.19640  Biso   1.000  C
  S11      1.0000 0.82404  0.65460  0.28730  Biso   1.000  S
  S12      1.0000 0.69398  0.75590  0.19090  Biso   1.000  S
  C39      1.0000 0.77110  0.76910  0.34130  Biso   1.000  C
  C40      1.0000 0.76280  0.72720  0.27460  Biso   1.000  C
  C41      1.0000 0.85270  0.77980  0.49680  Biso   1.000  C
  H31      1.0000 0.89020  0.74430  0.53320  Biso   1.000  H
  H32      1.0000 0.82330  0.76130  0.51040  Biso   1.000  H
  H33      1.0000 0.85870  0.85670  0.50090  Biso   1.000  H
  C42      1.0000 0.71450  0.89180  0.39040  Biso   1.000  C
  H34      1.0000 0.68170  0.94220  0.36360  Biso   1.000  H
  H35      1.0000 0.75130  0.93030  0.42490  Biso   1.000  H
  H36      1.0000 0.70660  0.84270  0.42190  Biso   1.000  H
  C43      1.0000 0.83060  0.74440  0.41280  Biso   1.000  C
  C44      1.0000 0.72050  0.82900  0.32880  Biso   1.000  C
  Eu3      1.0000 0.49682  0.97455  0.12446  Biso   1.000  Eu
  S13      1.0000 0.49868  0.59790  0.16950  Biso   1.000  S
  S14      1.0000 0.50340  0.34560  0.17490  Biso   1.000  S
  S15      1.0000 0.65741  0.25050  0.04250  Biso   1.000  S
  S16      1.0000 0.78602  0.35520  0.13740  Biso   1.000  S
  O13      1.0000 0.56080  0.07710  0.10150  Biso   1.000  O
  O14      1.0000 0.54940  0.13640  0.98790  Biso   1.000  O
  O15      1.0000 0.92090  0.35450  0.36280  Biso   1.000  O
  O16      1.0000 0.90300  0.43740  0.25210  Biso   1.000  O
  O17      1.0000 0.48460  0.82200  0.18510  Biso   1.000  O
  O18      1.0000 0.51160  0.12440  0.20240  Biso   1.000  O
  C45      1.0000 0.57780  0.12850  0.06180  Biso   1.000  C
  C46      1.0000 0.63780  0.18250  0.10690  Biso   1.000  C
  C47      1.0000 0.72530  0.28290  0.12750  Biso   1.000  C
  C48      1.0000 0.73360  0.24440  0.19640  Biso   1.000  C
  C49      1.0000 0.82490  0.32880  0.24410  Biso   1.000  C
  C50      1.0000 0.88650  0.37540  0.28870  Biso   1.000  C
  C51      1.0000 0.49980  0.47380  0.27860  Biso   1.000  C
  C52      1.0000 0.50100  0.47270  0.20940  Biso   1.000  C
  C53      1.0000 0.67640  0.14120  0.25010  Biso   1.000  C
  H37      1.0000 0.63450  0.14130  0.23320  Biso   1.000  H
  H38      1.0000 0.69880  0.18380  0.29800  Biso   1.000  H
  H39      1.0000 0.69140  0.06830  0.26080  Biso   1.000  H
  C54      1.0000 0.81710  0.22930  0.34860  Biso   1.000  C
  H40      1.0000 0.86040  0.23480  0.37940  Biso   1.000  H
  H41      1.0000 0.80550  0.15510  0.34620  Biso   1.000  H
  H42      1.0000 0.80060  0.27180  0.37360  Biso   1.000  H
  C55      1.0000 0.50010  0.61050  0.37830  Biso   1.000  C
  H43      1.0000 0.49610  0.68740  0.38020  Biso   1.000  H
  H44      1.0000 0.53720  0.58750  0.42510  Biso   1.000  H
  H45      1.0000 0.46670  0.57540  0.37690  Biso   1.000  H
  C56      1.0000 0.49880  0.34080  0.37950  Biso   1.000  C
  H46      1.0000 0.45980  0.35840  0.37060  Biso   1.000  H
  H47      1.0000 0.52920  0.38230  0.42380  Biso   1.000  H
  H48      1.0000 0.50650  0.26510  0.39150  Biso   1.000  H
  C57      1.0000 0.68370  0.18900  0.18400  Biso   1.000  C
  C58      1.0000 0.79330  0.27080  0.26410  Biso   1.000  C
  C59      1.0000 0.50100  0.58080  0.30300  Biso   1.000  C
  C60      1.0000 0.50010  0.36690  0.30360  Biso   1.000  C
  S17      1.0000 0.67596  0.15460  0.21270  Biso   1.000  S
  S18      1.0000 0.80602  0.25590  0.30910  Biso   1.000  S
  C61      1.0000 0.72890  0.26910  0.15870  Biso   1.000  C
  C62      1.0000 0.73720  0.22720  0.22540  Biso   1.000  C
  C63      1.0000 0.64730  0.27980  0.00320  Biso   1.000  C
  H49      1.0000 0.60980  0.24430  0.96680  Biso   1.000  H
  H50      1.0000 0.67670  0.26130  0.98960  Biso   1.000  H
  H51      1.0000 0.64130  0.35670  0.99910  Biso   1.000  H
  C64      1.0000 0.78550  0.39180  0.10960  Biso   1.000  C
  H52      1.0000 0.81830  0.44220  0.13640  Biso   1.000  H
  H53      1.0000 0.74870  0.43030  0.07510  Biso   1.000  H
  H54      1.0000 0.79340  0.34270  0.07810  Biso   1.000  H
  C65      1.0000 0.66940  0.24440  0.08720  Biso   1.000  C
  C66      1.0000 0.77950  0.32900  0.17120  Biso   1.000  C
  Eu4      1.0000 0.99682  0.47455  0.12446  Biso   1.000  Eu
  S19      1.0000 0.99868  0.09790  0.16950  Biso   1.000  S
  S20      1.0000 0.00340  0.84560  0.17490  Biso   1.000  S
  S21      1.0000 0.15741  0.75050  0.04250  Biso   1.000  S
  S22      1.0000 0.28602  0.85520  0.13740  Biso   1.000  S
  O19      1.0000 0.06080  0.57710  0.10150  Biso   1.000  O
  O20      1.0000 0.04940  0.63640  0.98790  Biso   1.000  O
  O21      1.0000 0.42090  0.85450  0.36280  Biso   1.000  O
  O22      1.0000 0.40300  0.93740  0.25210  Biso   1.000  O
  O23      1.0000 0.98460  0.32200  0.18510  Biso   1.000  O
  O24      1.0000 0.01160  0.62440  0.20240  Biso   1.000  O
  C67      1.0000 0.07780  0.62850  0.06180  Biso   1.000  C
  C68      1.0000 0.13780  0.68250  0.10690  Biso   1.000  C
  C69      1.0000 0.22530  0.78290  0.12750  Biso   1.000  C
  C70      1.0000 0.23360  0.74440  0.19640  Biso   1.000  C
  C71      1.0000 0.32490  0.82880  0.24410  Biso   1.000  C
  C72      1.0000 0.38650  0.87540  0.28870  Biso   1.000  C
  C73      1.0000 0.99980  0.97380  0.27860  Biso   1.000  C
  C74      1.0000 0.00100  0.97270  0.20940  Biso   1.000  C
  C75      1.0000 0.17640  0.64120  0.25010  Biso   1.000  C
  H55      1.0000 0.13450  0.64130  0.23320  Biso   1.000  H
  H56      1.0000 0.19880  0.68380  0.29800  Biso   1.000  H
  H57      1.0000 0.19140  0.56830  0.26080  Biso   1.000  H
  C76      1.0000 0.31710  0.72930  0.34860  Biso   1.000  C
  H58      1.0000 0.36040  0.73480  0.37940  Biso   1.000  H
  H59      1.0000 0.30550  0.65510  0.34620  Biso   1.000  H
  H60      1.0000 0.30060  0.77180  0.37360  Biso   1.000  H
  C77      1.0000 0.00010  0.11050  0.37830  Biso   1.000  C
  H61      1.0000 0.99610  0.18740  0.38020  Biso   1.000  H
  H62      1.0000 0.03720  0.08750  0.42510  Biso   1.000  H
  H63      1.0000 0.96670  0.07540  0.37690  Biso   1.000  H
  C78      1.0000 0.99880  0.84080  0.37950  Biso   1.000  C
  H64      1.0000 0.95980  0.85840  0.37060  Biso   1.000  H
  H65      1.0000 0.02920  0.88230  0.42380  Biso   1.000  H
  H66      1.0000 0.00650  0.76510  0.39150  Biso   1.000  H
  C79      1.0000 0.18370  0.68900  0.18400  Biso   1.000  C
  C80      1.0000 0.29330  0.77080  0.26410  Biso   1.000  C
  C81      1.0000 0.00100  0.08080  0.30300  Biso   1.000  C
  C82      1.0000 0.00010  0.86690  0.30360  Biso   1.000  C
  S23      1.0000 0.17596  0.65460  0.21270  Biso   1.000  S
  S24      1.0000 0.30602  0.75590  0.30910  Biso   1.000  S
  C83      1.0000 0.22890  0.76910  0.15870  Biso   1.000  C
  C84      1.0000 0.23720  0.72720  0.22540  Biso   1.000  C
  C85      1.0000 0.14730  0.77980  0.00320  Biso   1.000  C
  H67      1.0000 0.10980  0.74430  0.96680  Biso   1.000  H
  H68      1.0000 0.17670  0.76130  0.98960  Biso   1.000  H
  H69      1.0000 0.14130  0.85670  0.99910  Biso   1.000  H
  C86      1.0000 0.28550  0.89180  0.10960  Biso   1.000  C
  H70      1.0000 0.31830  0.94220  0.13640  Biso   1.000  H
  H71      1.0000 0.24870  0.93030  0.07510  Biso   1.000  H
  H72      1.0000 0.29340  0.84270  0.07810  Biso   1.000  H
  C87      1.0000 0.16940  0.74440  0.08720  Biso   1.000  C
  C88      1.0000 0.27950  0.82900  0.17120  Biso   1.000  C
  Eu5      1.0000 0.49682  0.02545  0.62446  Biso   1.000  Eu
  S25      1.0000 0.49868  0.40210  0.66950  Biso   1.000  S
  S26      1.0000 0.50340  0.65440  0.67490  Biso   1.000  S
  S27      1.0000 0.65741  0.74950  0.54250  Biso   1.000  S
  S28      1.0000 0.78602  0.64480  0.63740  Biso   1.000  S
  O25      1.0000 0.56080  0.92290  0.60150  Biso   1.000  O
  O26      1.0000 0.54940  0.86360  0.48790  Biso   1.000  O
  O27      1.0000 0.92090  0.64550  0.86280  Biso   1.000  O
  O28      1.0000 0.90300  0.56260  0.75210  Biso   1.000  O
  O29      1.0000 0.48460  0.17800  0.68510  Biso   1.000  O
  O30      1.0000 0.51160  0.87560  0.70240  Biso   1.000  O
  C89      1.0000 0.57780  0.87150  0.56180  Biso   1.000  C
  C90      1.0000 0.63780  0.81750  0.60690  Biso   1.000  C
  C91      1.0000 0.72530  0.71710  0.62750  Biso   1.000  C
  C92      1.0000 0.73360  0.75560  0.69640  Biso   1.000  C
  C93      1.0000 0.82490  0.67120  0.74410  Biso   1.000  C
  C94      1.0000 0.88650  0.62460  0.78870  Biso   1.000  C
  C95      1.0000 0.49980  0.52620  0.77860  Biso   1.000  C
  C96      1.0000 0.50100  0.52730  0.70940  Biso   1.000  C
  C97      1.0000 0.67640  0.85880  0.75010  Biso   1.000  C
  H73      1.0000 0.63450  0.85870  0.73320  Biso   1.000  H
  H74      1.0000 0.69880  0.81620  0.79800  Biso   1.000  H
  H75      1.0000 0.69140  0.93170  0.76080  Biso   1.000  H
  C98      1.0000 0.81710  0.77070  0.84860  Biso   1.000  C
  H76      1.0000 0.86040  0.76520  0.87940  Biso   1.000  H
  H77      1.0000 0.80550  0.84490  0.84620  Biso   1.000  H
  H78      1.0000 0.80060  0.72820  0.87360  Biso   1.000  H
  C99      1.0000 0.50010  0.38950  0.87830  Biso   1.000  C
  H79      1.0000 0.49610  0.31260  0.88020  Biso   1.000  H
  H80      1.0000 0.53720  0.41250  0.92510  Biso   1.000  H
  H81      1.0000 0.46670  0.42460  0.87690  Biso   1.000  H
  C100     1.0000 0.49880  0.65920  0.87950  Biso   1.000  C
  H82      1.0000 0.45980  0.64160  0.87060  Biso   1.000  H
  H83      1.0000 0.52920  0.61770  0.92380  Biso   1.000  H
  H84      1.0000 0.50650  0.73490  0.89150  Biso   1.000  H
  C101     1.0000 0.68370  0.81100  0.68400  Biso   1.000  C
  C102     1.0000 0.79330  0.72920  0.76410  Biso   1.000  C
  C103     1.0000 0.50100  0.41920  0.80300  Biso   1.000  C
  C104     1.0000 0.50010  0.63310  0.80360  Biso   1.000  C
  S29      1.0000 0.67596  0.84540  0.71270  Biso   1.000  S
  S30      1.0000 0.80602  0.74410  0.80910  Biso   1.000  S
  C105     1.0000 0.72890  0.73090  0.65870  Biso   1.000  C
  C106     1.0000 0.73720  0.77280  0.72540  Biso   1.000  C
  C107     1.0000 0.64730  0.72020  0.50320  Biso   1.000  C
  H85      1.0000 0.60980  0.75570  0.46680  Biso   1.000  H
  H86      1.0000 0.67670  0.73870  0.48960  Biso   1.000  H
  H87      1.0000 0.64130  0.64330  0.49910  Biso   1.000  H
  C108     1.0000 0.78550  0.60820  0.60960  Biso   1.000  C
  H88      1.0000 0.81830  0.55780  0.63640  Biso   1.000  H
  H89      1.0000 0.74870  0.56970  0.57510  Biso   1.000  H
  H90      1.0000 0.79340  0.65730  0.57810  Biso   1.000  H
  C109     1.0000 0.66940  0.75560  0.58720  Biso   1.000  C
  C110     1.0000 0.77950  0.67100  0.67120  Biso   1.000  C
  Eu6      1.0000 0.99682  0.52545  0.62446  Biso   1.000  Eu
  S31      1.0000 0.99868  0.90210  0.66950  Biso   1.000  S
  S32      1.0000 0.00340  0.15440  0.67490  Biso   1.000  S
  S33      1.0000 0.15741  0.24950  0.54250  Biso   1.000  S
  S34      1.0000 0.28602  0.14480  0.63740  Biso   1.000  S
  O31      1.0000 0.06080  0.42290  0.60150  Biso   1.000  O
  O32      1.0000 0.04940  0.36360  0.48790  Biso   1.000  O
  O33      1.0000 0.42090  0.14550  0.86280  Biso   1.000  O
  O34      1.0000 0.40300  0.06260  0.75210  Biso   1.000  O
  O35      1.0000 0.98460  0.67800  0.68510  Biso   1.000  O
  O36      1.0000 0.01160  0.37560  0.70240  Biso   1.000  O
  C111     1.0000 0.07780  0.37150  0.56180  Biso   1.000  C
  C112     1.0000 0.13780  0.31750  0.60690  Biso   1.000  C
  C113     1.0000 0.22530  0.21710  0.62750  Biso   1.000  C
  C114     1.0000 0.23360  0.25560  0.69640  Biso   1.000  C
  C115     1.0000 0.32490  0.17120  0.74410  Biso   1.000  C
  C116     1.0000 0.38650  0.12460  0.78870  Biso   1.000  C
  C117     1.0000 0.99980  0.02620  0.77860  Biso   1.000  C
  C118     1.0000 0.00100  0.02730  0.70940  Biso   1.000  C
  C119     1.0000 0.17640  0.35880  0.75010  Biso   1.000  C
  H91      1.0000 0.13450  0.35870  0.73320  Biso   1.000  H
  H92      1.0000 0.19880  0.31620  0.79800  Biso   1.000  H
  H93      1.0000 0.19140  0.43170  0.76080  Biso   1.000  H
  C120     1.0000 0.31710  0.27070  0.84860  Biso   1.000  C
  H94      1.0000 0.36040  0.26520  0.87940  Biso   1.000  H
  H95      1.0000 0.30550  0.34490  0.84620  Biso   1.000  H
  H96      1.0000 0.30060  0.22820  0.87360  Biso   1.000  H
  C121     1.0000 0.00010  0.88950  0.87830  Biso   1.000  C
  H97      1.0000 0.99610  0.81260  0.88020  Biso   1.000  H
  H98      1.0000 0.03720  0.91250  0.92510  Biso   1.000  H
  H99      1.0000 0.96670  0.92460  0.87690  Biso   1.000  H
  C122     1.0000 0.99880  0.15920  0.87950  Biso   1.000  C
  H100     1.0000 0.95980  0.14160  0.87060  Biso   1.000  H
  H101     1.0000 0.02920  0.11770  0.92380  Biso   1.000  H
  H102     1.0000 0.00650  0.23490  0.89150  Biso   1.000  H
  C123     1.0000 0.18370  0.31100  0.68400  Biso   1.000  C
  C124     1.0000 0.29330  0.22920  0.76410  Biso   1.000  C
  C125     1.0000 0.00100  0.91920  0.80300  Biso   1.000  C
  C126     1.0000 0.00010  0.13310  0.80360  Biso   1.000  C
  S35      1.0000 0.17596  0.34540  0.71270  Biso   1.000  S
  S36      1.0000 0.30602  0.24410  0.80910  Biso   1.000  S
  C127     1.0000 0.22890  0.23090  0.65870  Biso   1.000  C
  C128     1.0000 0.23720  0.27280  0.72540  Biso   1.000  C
  C129     1.0000 0.14730  0.22020  0.50320  Biso   1.000  C
  H103     1.0000 0.10980  0.25570  0.46680  Biso   1.000  H
  H104     1.0000 0.17670  0.23870  0.48960  Biso   1.000  H
  H105     1.0000 0.14130  0.14330  0.49910  Biso   1.000  H
  C130     1.0000 0.28550  0.10820  0.60960  Biso   1.000  C
  H106     1.0000 0.31830  0.05780  0.63640  Biso   1.000  H
  H107     1.0000 0.24870  0.06970  0.57510  Biso   1.000  H
  H108     1.0000 0.29340  0.15730  0.57810  Biso   1.000  H
  C131     1.0000 0.16940  0.25560  0.58720  Biso   1.000  C
  C132     1.0000 0.27950  0.17100  0.67120  Biso   1.000  C
  Eu7      1.0000 0.50318  0.02545  0.87554  Biso   1.000  Eu
  S37      1.0000 0.50132  0.40210  0.83050  Biso   1.000  S
  S38      1.0000 0.49660  0.65440  0.82510  Biso   1.000  S
  S39      1.0000 0.34259  0.74950  0.95750  Biso   1.000  S
  S40      1.0000 0.21398  0.64480  0.86260  Biso   1.000  S
  O37      1.0000 0.43920  0.92290  0.89850  Biso   1.000  O
  O38      1.0000 0.45060  0.86360  0.01210  Biso   1.000  O
  O39      1.0000 0.07910  0.64550  0.63720  Biso   1.000  O
  O40      1.0000 0.09700  0.56260  0.74790  Biso   1.000  O
  O41      1.0000 0.51540  0.17800  0.81490  Biso   1.000  O
  O42      1.0000 0.48840  0.87560  0.79760  Biso   1.000  O
  C133     1.0000 0.42220  0.87150  0.93820  Biso   1.000  C
  C134     1.0000 0.36220  0.81750  0.89310  Biso   1.000  C
  C135     1.0000 0.27470  0.71710  0.87250  Biso   1.000  C
  C136     1.0000 0.26640  0.75560  0.80360  Biso   1.000  C
  C137     1.0000 0.17510  0.67120  0.75590  Biso   1.000  C
  C138     1.0000 0.11350  0.62460  0.71130  Biso   1.000  C
  C139     1.0000 0.50020  0.52620  0.72140  Biso   1.000  C
  C140     1.0000 0.49900  0.52730  0.79060  Biso   1.000  C
  C141     1.0000 0.32360  0.85880  0.74990  Biso   1.000  C
  H109     1.0000 0.36550  0.85870  0.76680  Biso   1.000  H
  H110     1.0000 0.30120  0.81620  0.70200  Biso   1.000  H
  H111     1.0000 0.30860  0.93170  0.73920  Biso   1.000  H
  C142     1.0000 0.18290  0.77070  0.65140  Biso   1.000  C
  H112     1.0000 0.13960  0.76520  0.62060  Biso   1.000  H
  H113     1.0000 0.19450  0.84490  0.65380  Biso   1.000  H
  H114     1.0000 0.19940  0.72820  0.62640  Biso   1.000  H
  C143     1.0000 0.49990  0.38950  0.62170  Biso   1.000  C
  H115     1.0000 0.50390  0.31260  0.61980  Biso   1.000  H
  H116     1.0000 0.46280  0.41250  0.57490  Biso   1.000  H
  H117     1.0000 0.53330  0.42460  0.62310  Biso   1.000  H
  C144     1.0000 0.50120  0.65920  0.62050  Biso   1.000  C
  H118     1.0000 0.54020  0.64160  0.62940  Biso   1.000  H
  H119     1.0000 0.47080  0.61770  0.57620  Biso   1.000  H
  H120     1.0000 0.49350  0.73490  0.60850  Biso   1.000  H
  C145     1.0000 0.31630  0.81100  0.81600  Biso   1.000  C
  C146     1.0000 0.20670  0.72920  0.73590  Biso   1.000  C
  C147     1.0000 0.49900  0.41920  0.69700  Biso   1.000  C
  C148     1.0000 0.49990  0.63310  0.69640  Biso   1.000  C
  S41      1.0000 0.32404  0.84540  0.78730  Biso   1.000  S
  S42      1.0000 0.19398  0.74410  0.69090  Biso   1.000  S
  C149     1.0000 0.27110  0.73090  0.84130  Biso   1.000  C
  C150     1.0000 0.26280  0.77280  0.77460  Biso   1.000  C
  C151     1.0000 0.35270  0.72020  0.99680  Biso   1.000  C
  H121     1.0000 0.39020  0.75570  0.03320  Biso   1.000  H
  H122     1.0000 0.32330  0.73870  0.01040  Biso   1.000  H
  H123     1.0000 0.35870  0.64330  0.00090  Biso   1.000  H
  C152     1.0000 0.21450  0.60820  0.89040  Biso   1.000  C
  H124     1.0000 0.18170  0.55780  0.86360  Biso   1.000  H
  H125     1.0000 0.25130  0.56970  0.92490  Biso   1.000  H
  H126     1.0000 0.20660  0.65730  0.92190  Biso   1.000  H
  C153     1.0000 0.33060  0.75560  0.91280  Biso   1.000  C
  C154     1.0000 0.22050  0.67100  0.82880  Biso   1.000  C
  Eu8      1.0000 0.00318  0.52545  0.87554  Biso   1.000  Eu
  S43      1.0000 0.00132  0.90210  0.83050  Biso   1.000  S
  S44      1.0000 0.99660  0.15440  0.82510  Biso   1.000  S
  S45      1.0000 0.84259  0.24950  0.95750  Biso   1.000  S
  S46      1.0000 0.71398  0.14480  0.86260  Biso   1.000  S
  O43      1.0000 0.93920  0.42290  0.89850  Biso   1.000  O
  O44      1.0000 0.95060  0.36360  0.01210  Biso   1.000  O
  O45      1.0000 0.57910  0.14550  0.63720  Biso   1.000  O
  O46      1.0000 0.59700  0.06260  0.74790  Biso   1.000  O
  O47      1.0000 0.01540  0.67800  0.81490  Biso   1.000  O
  O48      1.0000 0.98840  0.37560  0.79760  Biso   1.000  O
  C155     1.0000 0.92220  0.37150  0.93820  Biso   1.000  C
  C156     1.0000 0.86220  0.31750  0.89310  Biso   1.000  C
  C157     1.0000 0.77470  0.21710  0.87250  Biso   1.000  C
  C158     1.0000 0.76640  0.25560  0.80360  Biso   1.000  C
  C159     1.0000 0.67510  0.17120  0.75590  Biso   1.000  C
  C160     1.0000 0.61350  0.12460  0.71130  Biso   1.000  C
  C161     1.0000 0.00020  0.02620  0.72140  Biso   1.000  C
  C162     1.0000 0.99900  0.02730  0.79060  Biso   1.000  C
  C163     1.0000 0.82360  0.35880  0.74990  Biso   1.000  C
  H127     1.0000 0.86550  0.35870  0.76680  Biso   1.000  H
  H128     1.0000 0.80120  0.31620  0.70200  Biso   1.000  H
  H129     1.0000 0.80860  0.43170  0.73920  Biso   1.000  H
  C164     1.0000 0.68290  0.27070  0.65140  Biso   1.000  C
  H130     1.0000 0.63960  0.26520  0.62060  Biso   1.000  H
  H131     1.0000 0.69450  0.34490  0.65380  Biso   1.000  H
  H132     1.0000 0.69940  0.22820  0.62640  Biso   1.000  H
  C165     1.0000 0.99990  0.88950  0.62170  Biso   1.000  C
  H133     1.0000 0.00390  0.81260  0.61980  Biso   1.000  H
  H134     1.0000 0.96280  0.91250  0.57490  Biso   1.000  H
  H135     1.0000 0.03330  0.92460  0.62310  Biso   1.000  H
  C166     1.0000 0.00120  0.15920  0.62050  Biso   1.000  C
  H136     1.0000 0.04020  0.14160  0.62940  Biso   1.000  H
  H137     1.0000 0.97080  0.11770  0.57620  Biso   1.000  H
  H138     1.0000 0.99350  0.23490  0.60850  Biso   1.000  H
  C167     1.0000 0.81630  0.31100  0.81600  Biso   1.000  C
  C168     1.0000 0.70670  0.22920  0.73590  Biso   1.000  C
  C169     1.0000 0.99900  0.91920  0.69700  Biso   1.000  C
  C170     1.0000 0.99990  0.13310  0.69640  Biso   1.000  C
  S47      1.0000 0.82404  0.34540  0.78730  Biso   1.000  S
  S48      1.0000 0.69398  0.24410  0.69090  Biso   1.000  S
  C171     1.0000 0.77110  0.23090  0.84130  Biso   1.000  C
  C172     1.0000 0.76280  0.27280  0.77460  Biso   1.000  C
  C173     1.0000 0.85270  0.22020  0.99680  Biso   1.000  C
  H139     1.0000 0.89020  0.25570  0.03320  Biso   1.000  H
  H140     1.0000 0.82330  0.23870  0.01040  Biso   1.000  H
  H141     1.0000 0.85870  0.14330  0.00090  Biso   1.000  H
  C174     1.0000 0.71450  0.10820  0.89040  Biso   1.000  C
  H142     1.0000 0.68170  0.05780  0.86360  Biso   1.000  H
  H143     1.0000 0.75130  0.06970  0.92490  Biso   1.000  H
  H144     1.0000 0.70660  0.15730  0.92190  Biso   1.000  H
  C175     1.0000 0.83060  0.25560  0.91280  Biso   1.000  C
  C176     1.0000 0.72050  0.17100  0.82880  Biso   1.000  C
  C177     1.0000 0.50000  0.77610  0.25000  Biso   1.000  C
  C178     1.0000 0.50000  0.65750  0.25000  Biso   1.000  C
  C179     1.0000 0.50000  0.16920  0.25000  Biso   1.000  C
  C180     1.0000 0.50000  0.28970  0.25000  Biso   1.000  C
  C181     1.0000 0.00000  0.27610  0.25000  Biso   1.000  C
  C182     1.0000 0.00000  0.15750  0.25000  Biso   1.000  C
  C183     1.0000 0.00000  0.66920  0.25000  Biso   1.000  C
  C184     1.0000 0.00000  0.78970  0.25000  Biso   1.000  C
  C185     1.0000 0.50000  0.22390  0.75000  Biso   1.000  C
  C186     1.0000 0.50000  0.34250  0.75000  Biso   1.000  C
  C187     1.0000 0.50000  0.83080  0.75000  Biso   1.000  C
  C188     1.0000 0.50000  0.71030  0.75000  Biso   1.000  C
  C189     1.0000 0.00000  0.72390  0.75000  Biso   1.000  C
  C190     1.0000 0.00000  0.84250  0.75000  Biso   1.000  C
  C191     1.0000 0.00000  0.33080  0.75000  Biso   1.000  C
  C192     1.0000 0.00000  0.21030  0.75000  Biso   1.000  C
