data_image0
_cell_length_a       26.3205
_cell_length_b       12.2748
_cell_length_c       19.6085
_cell_angle_alpha    90
_cell_angle_beta     122.972
_cell_angle_gamma    90

_symmetry_space_group_name_H-M    "P 1"
_symmetry_int_tables_number       1

loop_
  _symmetry_equiv_pos_as_xyz
  'x, y, z'

loop_
  _atom_site_label
  _atom_site_occupancy
  _atom_site_fract_x
  _atom_site_fract_y
  _atom_site_fract_z
  _atom_site_thermal_displace_type
  _atom_site_B_iso_or_equiv
  _atom_site_type_symbol
  Er1      1.0000 0.99936  0.52458  0.12599  Biso   1.000  Er
  O1       1.0000 0.06098  0.42300  0.10300  Biso   1.000  O
  O2       1.0000 0.04844  0.37250  0.98790  Biso   1.000  O
  O3       1.0000 0.40078  0.05970  0.25120  Biso   1.000  O
  O4       1.0000 0.42225  0.14380  0.36210  Biso   1.000  O
  O5       1.0000 0.99010  0.67480  0.18730  Biso   1.000  O
  O6       1.0000 0.01210  0.37960  0.20490  Biso   1.000  O
  S1       1.0000 0.18090  0.35310  0.21680  Biso   1.000  S
  S2       1.0000 0.31200  0.25340  0.30990  Biso   1.000  S
  S3       1.0000 0.00560  0.90430  0.17590  Biso   1.000  S
  S4       1.0000 0.01010  0.15740  0.18430  Biso   1.000  S
  C1       1.0000 0.07740  0.37670  0.06210  Biso   1.000  C
  C2       1.0000 0.38580  0.12370  0.28730  Biso   1.000  C
  C3       1.0000 0.13690  0.32400  0.10930  Biso   1.000  C
  C4       1.0000 0.16790  0.25960  0.08740  Biso   1.000  C
  C5       1.0000 0.22720  0.22810  0.14750  Biso   1.000  C
  C6       1.0000 0.23860  0.27420  0.22180  Biso   1.000  C
  C7       1.0000 0.32640  0.17180  0.24710  Biso   1.000  C
  C8       1.0000 0.27900  0.16840  0.16800  Biso   1.000  C
  C9       1.0000 0.14410  0.22250  0.00590  Biso   1.000  C
  H1       1.0000 0.12230  0.15570  0.99680  Biso   1.000  H
  H2       1.0000 0.17680  0.21020  0.99860  Biso   1.000  H
  H3       1.0000 0.11730  0.27660  0.96800  Biso   1.000  H
  C10      1.0000 0.27820  0.10830  0.10590  Biso   1.000  C
  H4       1.0000 0.29530  0.15160  0.08240  Biso   1.000  H
  H5       1.0000 0.23720  0.08960  0.06460  Biso   1.000  H
  H6       1.0000 0.30160  0.04300  0.12850  Biso   1.000  H
  C11      1.0000 0.99390  0.91700  0.29840  Biso   1.000  C
  C12      1.0000 0.99600  0.02900  0.28600  Biso   1.000  C
  C13      1.0000 0.00300  0.02800  0.21900  Biso   1.000  C
  C14      1.0000 0.99600  0.14000  0.30200  Biso   1.000  C
  C15      1.0000 0.98740  0.88550  0.36770  Biso   1.000  C
  H7       1.0000 0.98810  0.80740  0.37150  Biso   1.000  H
  H8       1.0000 0.94950  0.91240  0.35700  Biso   1.000  H
  H9       1.0000 0.01990  0.91540  0.41800  Biso   1.000  H
  C16      1.0000 0.98750  0.15850  0.37200  Biso   1.000  C
  H10      1.0000 0.02100  0.12710  0.42070  Biso   1.000  H
  H11      1.0000 0.95040  0.12630  0.36080  Biso   1.000  H
  H12      1.0000 0.98640  0.23560  0.37930  Biso   1.000  H
  S5       1.0000 0.15370  0.24960  0.04250  Biso   1.000  S
  S6       1.0000 0.28190  0.14380  0.13640  Biso   1.000  S
  C17      1.0000 0.18200  0.32900  0.19300  Biso   1.000  C
  C18      1.0000 0.29900  0.23400  0.27900  Biso   1.000  C
  C19      1.0000 0.17550  0.38800  0.25500  Biso   1.000  C
  H13      1.0000 0.18750  0.46250  0.25820  Biso   1.000  H
  H14      1.0000 0.20090  0.35390  0.30720  Biso   1.000  H
  H15      1.0000 0.13410  0.38510  0.23980  Biso   1.000  H
  C20      1.0000 0.31620  0.27600  0.36000  Biso   1.000  C
  H16      1.0000 0.33850  0.22090  0.40100  Biso   1.000  H
  H17      1.0000 0.28020  0.29370  0.35920  Biso   1.000  H
  H18      1.0000 0.34080  0.33970  0.37340  Biso   1.000  H
  Er2      1.0000 0.49936  0.02458  0.12599  Biso   1.000  Er
  O7       1.0000 0.56098  0.92300  0.10300  Biso   1.000  O
  O8       1.0000 0.54844  0.87250  0.98790  Biso   1.000  O
  O9       1.0000 0.90078  0.55970  0.25120  Biso   1.000  O
  O10      1.0000 0.92225  0.64380  0.36210  Biso   1.000  O
  O11      1.0000 0.49010  0.17480  0.18730  Biso   1.000  O
  O12      1.0000 0.51210  0.87960  0.20490  Biso   1.000  O
  S7       1.0000 0.68090  0.85310  0.21680  Biso   1.000  S
  S8       1.0000 0.81200  0.75340  0.30990  Biso   1.000  S
  S9       1.0000 0.50560  0.40430  0.17590  Biso   1.000  S
  S10      1.0000 0.51010  0.65740  0.18430  Biso   1.000  S
  C21      1.0000 0.57740  0.87670  0.06210  Biso   1.000  C
  C22      1.0000 0.88580  0.62370  0.28730  Biso   1.000  C
  C23      1.0000 0.63690  0.82400  0.10930  Biso   1.000  C
  C24      1.0000 0.66790  0.75960  0.08740  Biso   1.000  C
  C25      1.0000 0.72720  0.72810  0.14750  Biso   1.000  C
  C26      1.0000 0.73860  0.77420  0.22180  Biso   1.000  C
  C27      1.0000 0.82640  0.67180  0.24710  Biso   1.000  C
  C28      1.0000 0.77900  0.66840  0.16800  Biso   1.000  C
  C29      1.0000 0.64410  0.72250  0.00590  Biso   1.000  C
  H19      1.0000 0.62230  0.65570  0.99680  Biso   1.000  H
  H20      1.0000 0.67680  0.71020  0.99860  Biso   1.000  H
  H21      1.0000 0.61730  0.77660  0.96800  Biso   1.000  H
  C30      1.0000 0.77820  0.60830  0.10590  Biso   1.000  C
  H22      1.0000 0.79530  0.65160  0.08240  Biso   1.000  H
  H23      1.0000 0.73720  0.58960  0.06460  Biso   1.000  H
  H24      1.0000 0.80160  0.54300  0.12850  Biso   1.000  H
  C31      1.0000 0.49390  0.41700  0.29840  Biso   1.000  C
  C32      1.0000 0.49600  0.52900  0.28600  Biso   1.000  C
  C33      1.0000 0.50300  0.52800  0.21900  Biso   1.000  C
  C34      1.0000 0.49600  0.64000  0.30200  Biso   1.000  C
  C35      1.0000 0.48740  0.38550  0.36770  Biso   1.000  C
  H25      1.0000 0.48810  0.30740  0.37150  Biso   1.000  H
  H26      1.0000 0.44950  0.41240  0.35700  Biso   1.000  H
  H27      1.0000 0.51990  0.41540  0.41800  Biso   1.000  H
  C36      1.0000 0.48750  0.65850  0.37200  Biso   1.000  C
  H28      1.0000 0.52100  0.62710  0.42070  Biso   1.000  H
  H29      1.0000 0.45040  0.62630  0.36080  Biso   1.000  H
  H30      1.0000 0.48640  0.73560  0.37930  Biso   1.000  H
  S11      1.0000 0.65370  0.74960  0.04250  Biso   1.000  S
  S12      1.0000 0.78190  0.64380  0.13640  Biso   1.000  S
  C37      1.0000 0.68200  0.82900  0.19300  Biso   1.000  C
  C38      1.0000 0.79900  0.73400  0.27900  Biso   1.000  C
  C39      1.0000 0.67550  0.88800  0.25500  Biso   1.000  C
  H31      1.0000 0.68750  0.96250  0.25820  Biso   1.000  H
  H32      1.0000 0.70090  0.85390  0.30720  Biso   1.000  H
  H33      1.0000 0.63410  0.88510  0.23980  Biso   1.000  H
  C40      1.0000 0.81620  0.77600  0.36000  Biso   1.000  C
  H34      1.0000 0.83850  0.72090  0.40100  Biso   1.000  H
  H35      1.0000 0.78020  0.79370  0.35920  Biso   1.000  H
  H36      1.0000 0.84080  0.83970  0.37340  Biso   1.000  H
  Er3      1.0000 0.00064  0.52458  0.37401  Biso   1.000  Er
  O13      1.0000 0.93902  0.42300  0.39700  Biso   1.000  O
  O14      1.0000 0.95156  0.37250  0.51210  Biso   1.000  O
  O15      1.0000 0.59922  0.05970  0.24880  Biso   1.000  O
  O16      1.0000 0.57775  0.14380  0.13790  Biso   1.000  O
  O17      1.0000 0.00990  0.67480  0.31270  Biso   1.000  O
  O18      1.0000 0.98790  0.37960  0.29510  Biso   1.000  O
  S13      1.0000 0.81910  0.35310  0.28320  Biso   1.000  S
  S14      1.0000 0.68800  0.25340  0.19010  Biso   1.000  S
  S15      1.0000 0.99440  0.90430  0.32410  Biso   1.000  S
  S16      1.0000 0.98990  0.15740  0.31570  Biso   1.000  S
  C41      1.0000 0.92260  0.37670  0.43790  Biso   1.000  C
  C42      1.0000 0.61420  0.12370  0.21270  Biso   1.000  C
  C43      1.0000 0.86310  0.32400  0.39070  Biso   1.000  C
  C44      1.0000 0.83210  0.25960  0.41260  Biso   1.000  C
  C45      1.0000 0.77280  0.22810  0.35250  Biso   1.000  C
  C46      1.0000 0.76140  0.27420  0.27820  Biso   1.000  C
  C47      1.0000 0.67360  0.17180  0.25290  Biso   1.000  C
  C48      1.0000 0.72100  0.16840  0.33200  Biso   1.000  C
  C49      1.0000 0.85590  0.22250  0.49410  Biso   1.000  C
  H37      1.0000 0.87770  0.15570  0.50320  Biso   1.000  H
  H38      1.0000 0.82320  0.21020  0.50140  Biso   1.000  H
  H39      1.0000 0.88270  0.27660  0.53200  Biso   1.000  H
  C50      1.0000 0.72180  0.10830  0.39410  Biso   1.000  C
  H40      1.0000 0.70470  0.15160  0.41760  Biso   1.000  H
  H41      1.0000 0.76280  0.08960  0.43540  Biso   1.000  H
  H42      1.0000 0.69840  0.04300  0.37150  Biso   1.000  H
  C51      1.0000 0.00610  0.91700  0.20160  Biso   1.000  C
  C52      1.0000 0.00400  0.02900  0.21400  Biso   1.000  C
  C53      1.0000 0.99700  0.02800  0.28100  Biso   1.000  C
  C54      1.0000 0.00400  0.14000  0.19800  Biso   1.000  C
  C55      1.0000 0.01260  0.88550  0.13230  Biso   1.000  C
  H43      1.0000 0.01190  0.80740  0.12850  Biso   1.000  H
  H44      1.0000 0.05050  0.91240  0.14300  Biso   1.000  H
  H45      1.0000 0.98010  0.91540  0.08200  Biso   1.000  H
  C56      1.0000 0.01250  0.15850  0.12800  Biso   1.000  C
  H46      1.0000 0.97900  0.12710  0.07930  Biso   1.000  H
  H47      1.0000 0.04960  0.12630  0.13920  Biso   1.000  H
  H48      1.0000 0.01360  0.23560  0.12070  Biso   1.000  H
  S17      1.0000 0.84630  0.24960  0.45750  Biso   1.000  S
  S18      1.0000 0.71810  0.14380  0.36360  Biso   1.000  S
  C57      1.0000 0.81800  0.32900  0.30700  Biso   1.000  C
  C58      1.0000 0.70100  0.23400  0.22100  Biso   1.000  C
  C59      1.0000 0.82450  0.38800  0.24500  Biso   1.000  C
  H49      1.0000 0.81250  0.46250  0.24180  Biso   1.000  H
  H50      1.0000 0.79910  0.35390  0.19280  Biso   1.000  H
  H51      1.0000 0.86590  0.38510  0.26020  Biso   1.000  H
  C60      1.0000 0.68380  0.27600  0.14000  Biso   1.000  C
  H52      1.0000 0.66150  0.22090  0.09900  Biso   1.000  H
  H53      1.0000 0.71980  0.29370  0.14080  Biso   1.000  H
  H54      1.0000 0.65920  0.33970  0.12660  Biso   1.000  H
  Er4      1.0000 0.50064  0.02458  0.37401  Biso   1.000  Er
  O19      1.0000 0.43902  0.92300  0.39700  Biso   1.000  O
  O20      1.0000 0.45156  0.87250  0.51210  Biso   1.000  O
  O21      1.0000 0.09922  0.55970  0.24880  Biso   1.000  O
  O22      1.0000 0.07775  0.64380  0.13790  Biso   1.000  O
  O23      1.0000 0.50990  0.17480  0.31270  Biso   1.000  O
  O24      1.0000 0.48790  0.87960  0.29510  Biso   1.000  O
  S19      1.0000 0.31910  0.85310  0.28320  Biso   1.000  S
  S20      1.0000 0.18800  0.75340  0.19010  Biso   1.000  S
  S21      1.0000 0.49440  0.40430  0.32410  Biso   1.000  S
  S22      1.0000 0.48990  0.65740  0.31570  Biso   1.000  S
  C61      1.0000 0.42260  0.87670  0.43790  Biso   1.000  C
  C62      1.0000 0.11420  0.62370  0.21270  Biso   1.000  C
  C63      1.0000 0.36310  0.82400  0.39070  Biso   1.000  C
  C64      1.0000 0.33210  0.75960  0.41260  Biso   1.000  C
  C65      1.0000 0.27280  0.72810  0.35250  Biso   1.000  C
  C66      1.0000 0.26140  0.77420  0.27820  Biso   1.000  C
  C67      1.0000 0.17360  0.67180  0.25290  Biso   1.000  C
  C68      1.0000 0.22100  0.66840  0.33200  Biso   1.000  C
  C69      1.0000 0.35590  0.72250  0.49410  Biso   1.000  C
  H55      1.0000 0.37770  0.65570  0.50320  Biso   1.000  H
  H56      1.0000 0.32320  0.71020  0.50140  Biso   1.000  H
  H57      1.0000 0.38270  0.77660  0.53200  Biso   1.000  H
  C70      1.0000 0.22180  0.60830  0.39410  Biso   1.000  C
  H58      1.0000 0.20470  0.65160  0.41760  Biso   1.000  H
  H59      1.0000 0.26280  0.58960  0.43540  Biso   1.000  H
  H60      1.0000 0.19840  0.54300  0.37150  Biso   1.000  H
  C71      1.0000 0.50610  0.41700  0.20160  Biso   1.000  C
  C72      1.0000 0.50400  0.52900  0.21400  Biso   1.000  C
  C73      1.0000 0.49700  0.52800  0.28100  Biso   1.000  C
  C74      1.0000 0.50400  0.64000  0.19800  Biso   1.000  C
  C75      1.0000 0.51260  0.38550  0.13230  Biso   1.000  C
  H61      1.0000 0.51190  0.30740  0.12850  Biso   1.000  H
  H62      1.0000 0.55050  0.41240  0.14300  Biso   1.000  H
  H63      1.0000 0.48010  0.41540  0.08200  Biso   1.000  H
  C76      1.0000 0.51250  0.65850  0.12800  Biso   1.000  C
  H64      1.0000 0.47900  0.62710  0.07930  Biso   1.000  H
  H65      1.0000 0.54960  0.62630  0.13920  Biso   1.000  H
  H66      1.0000 0.51360  0.73560  0.12070  Biso   1.000  H
  S23      1.0000 0.34630  0.74960  0.45750  Biso   1.000  S
  S24      1.0000 0.21810  0.64380  0.36360  Biso   1.000  S
  C77      1.0000 0.31800  0.82900  0.30700  Biso   1.000  C
  C78      1.0000 0.20100  0.73400  0.22100  Biso   1.000  C
  C79      1.0000 0.32450  0.88800  0.24500  Biso   1.000  C
  H67      1.0000 0.31250  0.96250  0.24180  Biso   1.000  H
  H68      1.0000 0.29910  0.85390  0.19280  Biso   1.000  H
  H69      1.0000 0.36590  0.88510  0.26020  Biso   1.000  H
  C80      1.0000 0.18380  0.77600  0.14000  Biso   1.000  C
  H70      1.0000 0.16150  0.72090  0.09900  Biso   1.000  H
  H71      1.0000 0.21980  0.79370  0.14080  Biso   1.000  H
  H72      1.0000 0.15920  0.83970  0.12660  Biso   1.000  H
  Er5      1.0000 0.00064  0.47542  0.87401  Biso   1.000  Er
  O25      1.0000 0.93902  0.57700  0.89700  Biso   1.000  O
  O26      1.0000 0.95156  0.62750  0.01210  Biso   1.000  O
  O27      1.0000 0.59922  0.94030  0.74880  Biso   1.000  O
  O28      1.0000 0.57775  0.85620  0.63790  Biso   1.000  O
  O29      1.0000 0.00990  0.32520  0.81270  Biso   1.000  O
  O30      1.0000 0.98790  0.62040  0.79510  Biso   1.000  O
  S25      1.0000 0.81910  0.64690  0.78320  Biso   1.000  S
  S26      1.0000 0.68800  0.74660  0.69010  Biso   1.000  S
  S27      1.0000 0.99440  0.09570  0.82410  Biso   1.000  S
  S28      1.0000 0.98990  0.84260  0.81570  Biso   1.000  S
  C81      1.0000 0.92260  0.62330  0.93790  Biso   1.000  C
  C82      1.0000 0.61420  0.87630  0.71270  Biso   1.000  C
  C83      1.0000 0.86310  0.67600  0.89070  Biso   1.000  C
  C84      1.0000 0.83210  0.74040  0.91260  Biso   1.000  C
  C85      1.0000 0.77280  0.77190  0.85250  Biso   1.000  C
  C86      1.0000 0.76140  0.72580  0.77820  Biso   1.000  C
  C87      1.0000 0.67360  0.82820  0.75290  Biso   1.000  C
  C88      1.0000 0.72100  0.83160  0.83200  Biso   1.000  C
  C89      1.0000 0.85590  0.77750  0.99410  Biso   1.000  C
  H73      1.0000 0.87770  0.84430  0.00320  Biso   1.000  H
  H74      1.0000 0.82320  0.78980  0.00140  Biso   1.000  H
  H75      1.0000 0.88270  0.72340  0.03200  Biso   1.000  H
  C90      1.0000 0.72180  0.89170  0.89410  Biso   1.000  C
  H76      1.0000 0.70470  0.84840  0.91760  Biso   1.000  H
  H77      1.0000 0.76280  0.91040  0.93540  Biso   1.000  H
  H78      1.0000 0.69840  0.95700  0.87150  Biso   1.000  H
  C91      1.0000 0.00610  0.08300  0.70160  Biso   1.000  C
  C92      1.0000 0.00400  0.97100  0.71400  Biso   1.000  C
  C93      1.0000 0.99700  0.97200  0.78100  Biso   1.000  C
  C94      1.0000 0.00400  0.86000  0.69800  Biso   1.000  C
  C95      1.0000 0.01260  0.11450  0.63230  Biso   1.000  C
  H79      1.0000 0.01190  0.19260  0.62850  Biso   1.000  H
  H80      1.0000 0.05050  0.08760  0.64300  Biso   1.000  H
  H81      1.0000 0.98010  0.08460  0.58200  Biso   1.000  H
  C96      1.0000 0.01250  0.84150  0.62800  Biso   1.000  C
  H82      1.0000 0.97900  0.87290  0.57930  Biso   1.000  H
  H83      1.0000 0.04960  0.87370  0.63920  Biso   1.000  H
  H84      1.0000 0.01360  0.76440  0.62070  Biso   1.000  H
  S29      1.0000 0.84630  0.75040  0.95750  Biso   1.000  S
  S30      1.0000 0.71810  0.85620  0.86360  Biso   1.000  S
  C97      1.0000 0.81800  0.67100  0.80700  Biso   1.000  C
  C98      1.0000 0.70100  0.76600  0.72100  Biso   1.000  C
  C99      1.0000 0.82450  0.61200  0.74500  Biso   1.000  C
  H85      1.0000 0.81250  0.53750  0.74180  Biso   1.000  H
  H86      1.0000 0.79910  0.64610  0.69280  Biso   1.000  H
  H87      1.0000 0.86590  0.61490  0.76020  Biso   1.000  H
  C100     1.0000 0.68380  0.72400  0.64000  Biso   1.000  C
  H88      1.0000 0.66150  0.77910  0.59900  Biso   1.000  H
  H89      1.0000 0.71980  0.70630  0.64080  Biso   1.000  H
  H90      1.0000 0.65920  0.66030  0.62660  Biso   1.000  H
  Er6      1.0000 0.50064  0.97542  0.87401  Biso   1.000  Er
  O31      1.0000 0.43902  0.07700  0.89700  Biso   1.000  O
  O32      1.0000 0.45156  0.12750  0.01210  Biso   1.000  O
  O33      1.0000 0.09922  0.44030  0.74880  Biso   1.000  O
  O34      1.0000 0.07775  0.35620  0.63790  Biso   1.000  O
  O35      1.0000 0.50990  0.82520  0.81270  Biso   1.000  O
  O36      1.0000 0.48790  0.12040  0.79510  Biso   1.000  O
  S31      1.0000 0.31910  0.14690  0.78320  Biso   1.000  S
  S32      1.0000 0.18800  0.24660  0.69010  Biso   1.000  S
  S33      1.0000 0.49440  0.59570  0.82410  Biso   1.000  S
  S34      1.0000 0.48990  0.34260  0.81570  Biso   1.000  S
  C101     1.0000 0.42260  0.12330  0.93790  Biso   1.000  C
  C102     1.0000 0.11420  0.37630  0.71270  Biso   1.000  C
  C103     1.0000 0.36310  0.17600  0.89070  Biso   1.000  C
  C104     1.0000 0.33210  0.24040  0.91260  Biso   1.000  C
  C105     1.0000 0.27280  0.27190  0.85250  Biso   1.000  C
  C106     1.0000 0.26140  0.22580  0.77820  Biso   1.000  C
  C107     1.0000 0.17360  0.32820  0.75290  Biso   1.000  C
  C108     1.0000 0.22100  0.33160  0.83200  Biso   1.000  C
  C109     1.0000 0.35590  0.27750  0.99410  Biso   1.000  C
  H91      1.0000 0.37770  0.34430  0.00320  Biso   1.000  H
  H92      1.0000 0.32320  0.28980  0.00140  Biso   1.000  H
  H93      1.0000 0.38270  0.22340  0.03200  Biso   1.000  H
  C110     1.0000 0.22180  0.39170  0.89410  Biso   1.000  C
  H94      1.0000 0.20470  0.34840  0.91760  Biso   1.000  H
  H95      1.0000 0.26280  0.41040  0.93540  Biso   1.000  H
  H96      1.0000 0.19840  0.45700  0.87150  Biso   1.000  H
  C111     1.0000 0.50610  0.58300  0.70160  Biso   1.000  C
  C112     1.0000 0.50400  0.47100  0.71400  Biso   1.000  C
  C113     1.0000 0.49700  0.47200  0.78100  Biso   1.000  C
  C114     1.0000 0.50400  0.36000  0.69800  Biso   1.000  C
  C115     1.0000 0.51260  0.61450  0.63230  Biso   1.000  C
  H97      1.0000 0.51190  0.69260  0.62850  Biso   1.000  H
  H98      1.0000 0.55050  0.58760  0.64300  Biso   1.000  H
  H99      1.0000 0.48010  0.58460  0.58200  Biso   1.000  H
  C116     1.0000 0.51250  0.34150  0.62800  Biso   1.000  C
  H100     1.0000 0.47900  0.37290  0.57930  Biso   1.000  H
  H101     1.0000 0.54960  0.37370  0.63920  Biso   1.000  H
  H102     1.0000 0.51360  0.26440  0.62070  Biso   1.000  H
  S35      1.0000 0.34630  0.25040  0.95750  Biso   1.000  S
  S36      1.0000 0.21810  0.35620  0.86360  Biso   1.000  S
  C117     1.0000 0.31800  0.17100  0.80700  Biso   1.000  C
  C118     1.0000 0.20100  0.26600  0.72100  Biso   1.000  C
  C119     1.0000 0.32450  0.11200  0.74500  Biso   1.000  C
  H103     1.0000 0.31250  0.03750  0.74180  Biso   1.000  H
  H104     1.0000 0.29910  0.14610  0.69280  Biso   1.000  H
  H105     1.0000 0.36590  0.11490  0.76020  Biso   1.000  H
  C120     1.0000 0.18380  0.22400  0.64000  Biso   1.000  C
  H106     1.0000 0.16150  0.27910  0.59900  Biso   1.000  H
  H107     1.0000 0.21980  0.20630  0.64080  Biso   1.000  H
  H108     1.0000 0.15920  0.16030  0.62660  Biso   1.000  H
  Er7      1.0000 0.99936  0.47542  0.62599  Biso   1.000  Er
  O37      1.0000 0.06098  0.57700  0.60300  Biso   1.000  O
  O38      1.0000 0.04844  0.62750  0.48790  Biso   1.000  O
  O39      1.0000 0.40078  0.94030  0.75120  Biso   1.000  O
  O40      1.0000 0.42225  0.85620  0.86210  Biso   1.000  O
  O41      1.0000 0.99010  0.32520  0.68730  Biso   1.000  O
  O42      1.0000 0.01210  0.62040  0.70490  Biso   1.000  O
  S37      1.0000 0.18090  0.64690  0.71680  Biso   1.000  S
  S38      1.0000 0.31200  0.74660  0.80990  Biso   1.000  S
  S39      1.0000 0.00560  0.09570  0.67590  Biso   1.000  S
  S40      1.0000 0.01010  0.84260  0.68430  Biso   1.000  S
  C121     1.0000 0.07740  0.62330  0.56210  Biso   1.000  C
  C122     1.0000 0.38580  0.87630  0.78730  Biso   1.000  C
  C123     1.0000 0.13690  0.67600  0.60930  Biso   1.000  C
  C124     1.0000 0.16790  0.74040  0.58740  Biso   1.000  C
  C125     1.0000 0.22720  0.77190  0.64750  Biso   1.000  C
  C126     1.0000 0.23860  0.72580  0.72180  Biso   1.000  C
  C127     1.0000 0.32640  0.82820  0.74710  Biso   1.000  C
  C128     1.0000 0.27900  0.83160  0.66800  Biso   1.000  C
  C129     1.0000 0.14410  0.77750  0.50590  Biso   1.000  C
  H109     1.0000 0.12230  0.84430  0.49680  Biso   1.000  H
  H110     1.0000 0.17680  0.78980  0.49860  Biso   1.000  H
  H111     1.0000 0.11730  0.72340  0.46800  Biso   1.000  H
  C130     1.0000 0.27820  0.89170  0.60590  Biso   1.000  C
  H112     1.0000 0.29530  0.84840  0.58240  Biso   1.000  H
  H113     1.0000 0.23720  0.91040  0.56460  Biso   1.000  H
  H114     1.0000 0.30160  0.95700  0.62850  Biso   1.000  H
  C131     1.0000 0.99390  0.08300  0.79840  Biso   1.000  C
  C132     1.0000 0.99600  0.97100  0.78600  Biso   1.000  C
  C133     1.0000 0.00300  0.97200  0.71900  Biso   1.000  C
  C134     1.0000 0.99600  0.86000  0.80200  Biso   1.000  C
  C135     1.0000 0.98740  0.11450  0.86770  Biso   1.000  C
  H115     1.0000 0.98810  0.19260  0.87150  Biso   1.000  H
  H116     1.0000 0.94950  0.08760  0.85700  Biso   1.000  H
  H117     1.0000 0.01990  0.08460  0.91800  Biso   1.000  H
  C136     1.0000 0.98750  0.84150  0.87200  Biso   1.000  C
  H118     1.0000 0.02100  0.87290  0.92070  Biso   1.000  H
  H119     1.0000 0.95040  0.87370  0.86080  Biso   1.000  H
  H120     1.0000 0.98640  0.76440  0.87930  Biso   1.000  H
  S41      1.0000 0.15370  0.75040  0.54250  Biso   1.000  S
  S42      1.0000 0.28190  0.85620  0.63640  Biso   1.000  S
  C137     1.0000 0.18200  0.67100  0.69300  Biso   1.000  C
  C138     1.0000 0.29900  0.76600  0.77900  Biso   1.000  C
  C139     1.0000 0.17550  0.61200  0.75500  Biso   1.000  C
  H121     1.0000 0.18750  0.53750  0.75820  Biso   1.000  H
  H122     1.0000 0.20090  0.64610  0.80720  Biso   1.000  H
  H123     1.0000 0.13410  0.61490  0.73980  Biso   1.000  H
  C140     1.0000 0.31620  0.72400  0.86000  Biso   1.000  C
  H124     1.0000 0.33850  0.77910  0.90100  Biso   1.000  H
  H125     1.0000 0.28020  0.70630  0.85920  Biso   1.000  H
  H126     1.0000 0.34080  0.66030  0.87340  Biso   1.000  H
  Er8      1.0000 0.49936  0.97542  0.62599  Biso   1.000  Er
  O43      1.0000 0.56098  0.07700  0.60300  Biso   1.000  O
  O44      1.0000 0.54844  0.12750  0.48790  Biso   1.000  O
  O45      1.0000 0.90078  0.44030  0.75120  Biso   1.000  O
  O46      1.0000 0.92225  0.35620  0.86210  Biso   1.000  O
  O47      1.0000 0.49010  0.82520  0.68730  Biso   1.000  O
  O48      1.0000 0.51210  0.12040  0.70490  Biso   1.000  O
  S43      1.0000 0.68090  0.14690  0.71680  Biso   1.000  S
  S44      1.0000 0.81200  0.24660  0.80990  Biso   1.000  S
  S45      1.0000 0.50560  0.59570  0.67590  Biso   1.000  S
  S46      1.0000 0.51010  0.34260  0.68430  Biso   1.000  S
  C141     1.0000 0.57740  0.12330  0.56210  Biso   1.000  C
  C142     1.0000 0.88580  0.37630  0.78730  Biso   1.000  C
  C143     1.0000 0.63690  0.17600  0.60930  Biso   1.000  C
  C144     1.0000 0.66790  0.24040  0.58740  Biso   1.000  C
  C145     1.0000 0.72720  0.27190  0.64750  Biso   1.000  C
  C146     1.0000 0.73860  0.22580  0.72180  Biso   1.000  C
  C147     1.0000 0.82640  0.32820  0.74710  Biso   1.000  C
  C148     1.0000 0.77900  0.33160  0.66800  Biso   1.000  C
  C149     1.0000 0.64410  0.27750  0.50590  Biso   1.000  C
  H127     1.0000 0.62230  0.34430  0.49680  Biso   1.000  H
  H128     1.0000 0.67680  0.28980  0.49860  Biso   1.000  H
  H129     1.0000 0.61730  0.22340  0.46800  Biso   1.000  H
  C150     1.0000 0.77820  0.39170  0.60590  Biso   1.000  C
  H130     1.0000 0.79530  0.34840  0.58240  Biso   1.000  H
  H131     1.0000 0.73720  0.41040  0.56460  Biso   1.000  H
  H132     1.0000 0.80160  0.45700  0.62850  Biso   1.000  H
  C151     1.0000 0.49390  0.58300  0.79840  Biso   1.000  C
  C152     1.0000 0.49600  0.47100  0.78600  Biso   1.000  C
  C153     1.0000 0.50300  0.47200  0.71900  Biso   1.000  C
  C154     1.0000 0.49600  0.36000  0.80200  Biso   1.000  C
  C155     1.0000 0.48740  0.61450  0.86770  Biso   1.000  C
  H133     1.0000 0.48810  0.69260  0.87150  Biso   1.000  H
  H134     1.0000 0.44950  0.58760  0.85700  Biso   1.000  H
  H135     1.0000 0.51990  0.58460  0.91800  Biso   1.000  H
  C156     1.0000 0.48750  0.34150  0.87200  Biso   1.000  C
  H136     1.0000 0.52100  0.37290  0.92070  Biso   1.000  H
  H137     1.0000 0.45040  0.37370  0.86080  Biso   1.000  H
  H138     1.0000 0.48640  0.26440  0.87930  Biso   1.000  H
  S47      1.0000 0.65370  0.25040  0.54250  Biso   1.000  S
  S48      1.0000 0.78190  0.35620  0.63640  Biso   1.000  S
  C157     1.0000 0.68200  0.17100  0.69300  Biso   1.000  C
  C158     1.0000 0.79900  0.26600  0.77900  Biso   1.000  C
  C159     1.0000 0.67550  0.11200  0.75500  Biso   1.000  C
  H139     1.0000 0.68750  0.03750  0.75820  Biso   1.000  H
  H140     1.0000 0.70090  0.14610  0.80720  Biso   1.000  H
  H141     1.0000 0.63410  0.11490  0.73980  Biso   1.000  H
  C160     1.0000 0.81620  0.22400  0.86000  Biso   1.000  C
  H142     1.0000 0.83850  0.27910  0.90100  Biso   1.000  H
  H143     1.0000 0.78020  0.20630  0.85920  Biso   1.000  H
  H144     1.0000 0.84080  0.16030  0.87340  Biso   1.000  H
  C161     1.0000 0.00000  0.72170  0.25000  Biso   1.000  C
  C162     1.0000 0.00000  0.33320  0.25000  Biso   1.000  C
  C163     1.0000 0.00000  0.84160  0.25000  Biso   1.000  C
  C164     1.0000 0.00000  0.21320  0.25000  Biso   1.000  C
  C165     1.0000 0.50000  0.22170  0.25000  Biso   1.000  C
  C166     1.0000 0.50000  0.83320  0.25000  Biso   1.000  C
  C167     1.0000 0.50000  0.34160  0.25000  Biso   1.000  C
  C168     1.0000 0.50000  0.71320  0.25000  Biso   1.000  C
  C169     1.0000 0.00000  0.27830  0.75000  Biso   1.000  C
  C170     1.0000 0.00000  0.66680  0.75000  Biso   1.000  C
  C171     1.0000 0.00000  0.15840  0.75000  Biso   1.000  C
  C172     1.0000 0.00000  0.78680  0.75000  Biso   1.000  C
  C173     1.0000 0.50000  0.77830  0.75000  Biso   1.000  C
  C174     1.0000 0.50000  0.16680  0.75000  Biso   1.000  C
  C175     1.0000 0.50000  0.65840  0.75000  Biso   1.000  C
  C176     1.0000 0.50000  0.28680  0.75000  Biso   1.000  C
