data_image0
_cell_length_a       16.5956
_cell_length_b       16.5956
_cell_length_c       12.2868
_cell_angle_alpha    90
_cell_angle_beta     90
_cell_angle_gamma    90

_symmetry_space_group_name_H-M    "P 1"
_symmetry_int_tables_number       1

loop_
  _symmetry_equiv_pos_as_xyz
  'x, y, z'

loop_
  _atom_site_label
  _atom_site_occupancy
  _atom_site_fract_x
  _atom_site_fract_y
  _atom_site_fract_z
  _atom_site_thermal_displace_type
  _atom_site_B_iso_or_equiv
  _atom_site_type_symbol
  H1       1.0000 0.14460  0.78770  0.75480  Biso   1.000  H
  O1       1.0000 0.39224  0.51347  0.61531  Biso   1.000  O
  C1       1.0000 0.29340  0.60500  0.74950  Biso   1.000  C
  H2       1.0000 0.27080  0.55950  0.71560  Biso   1.000  H
  C2       1.0000 0.24710  0.65150  0.81860  Biso   1.000  C
  H3       1.0000 0.19210  0.63990  0.82880  Biso   1.000  H
  C3       1.0000 0.31470  0.59100  0.78870  Biso   1.000  C
  H4       1.0000 0.30470  0.53550  0.78140  Biso   1.000  H
  C4       1.0000 0.26790  0.63620  0.85940  Biso   1.000  C
  H5       1.0000 0.22550  0.61160  0.89780  Biso   1.000  H
  H6       1.0000 0.85540  0.21230  0.75480  Biso   1.000  H
  O2       1.0000 0.60776  0.48653  0.61531  Biso   1.000  O
  C5       1.0000 0.70660  0.39500  0.74950  Biso   1.000  C
  H7       1.0000 0.72920  0.44050  0.71560  Biso   1.000  H
  C6       1.0000 0.75290  0.34850  0.81860  Biso   1.000  C
  H8       1.0000 0.80790  0.36010  0.82880  Biso   1.000  H
  C7       1.0000 0.68530  0.40900  0.78870  Biso   1.000  C
  H9       1.0000 0.69530  0.46450  0.78140  Biso   1.000  H
  C8       1.0000 0.73210  0.36380  0.85940  Biso   1.000  C
  H10      1.0000 0.77450  0.38840  0.89780  Biso   1.000  H
  H11      1.0000 0.71230  0.64460  0.25480  Biso   1.000  H
  O3       1.0000 0.98653  0.89224  0.11531  Biso   1.000  O
  C9       1.0000 0.89500  0.79340  0.24950  Biso   1.000  C
  H12      1.0000 0.94050  0.77080  0.21560  Biso   1.000  H
  C10      1.0000 0.84850  0.74710  0.31860  Biso   1.000  C
  H13      1.0000 0.86010  0.69210  0.32880  Biso   1.000  H
  C11      1.0000 0.90900  0.81470  0.28870  Biso   1.000  C
  H14      1.0000 0.96450  0.80470  0.28140  Biso   1.000  H
  C12      1.0000 0.86380  0.76790  0.35940  Biso   1.000  C
  H15      1.0000 0.88840  0.72550  0.39780  Biso   1.000  H
  H16      1.0000 0.28770  0.35540  0.25480  Biso   1.000  H
  O4       1.0000 0.01347  0.10776  0.11531  Biso   1.000  O
  C13      1.0000 0.10500  0.20660  0.24950  Biso   1.000  C
  H17      1.0000 0.05950  0.22920  0.21560  Biso   1.000  H
  C14      1.0000 0.15150  0.25290  0.31860  Biso   1.000  C
  H18      1.0000 0.13990  0.30790  0.32880  Biso   1.000  H
  C15      1.0000 0.09100  0.18530  0.28870  Biso   1.000  C
  H19      1.0000 0.03550  0.19530  0.28140  Biso   1.000  H
  C16      1.0000 0.13620  0.23210  0.35940  Biso   1.000  C
  H20      1.0000 0.11160  0.27450  0.39780  Biso   1.000  H
  H21      1.0000 0.35540  0.28770  0.74520  Biso   1.000  H
  O5       1.0000 0.10776  0.01347  0.88469  Biso   1.000  O
  C17      1.0000 0.20660  0.10500  0.75050  Biso   1.000  C
  H22      1.0000 0.22920  0.05950  0.78440  Biso   1.000  H
  C18      1.0000 0.25290  0.15150  0.68140  Biso   1.000  C
  H23      1.0000 0.30790  0.13990  0.67120  Biso   1.000  H
  C19      1.0000 0.18530  0.09100  0.71130  Biso   1.000  C
  H24      1.0000 0.19530  0.03550  0.71860  Biso   1.000  H
  C20      1.0000 0.23210  0.13620  0.64060  Biso   1.000  C
  H25      1.0000 0.27450  0.11160  0.60220  Biso   1.000  H
  H26      1.0000 0.64460  0.71230  0.74520  Biso   1.000  H
  O6       1.0000 0.89224  0.98653  0.88469  Biso   1.000  O
  C21      1.0000 0.79340  0.89500  0.75050  Biso   1.000  C
  H27      1.0000 0.77080  0.94050  0.78440  Biso   1.000  H
  C22      1.0000 0.74710  0.84850  0.68140  Biso   1.000  C
  H28      1.0000 0.69210  0.86010  0.67120  Biso   1.000  H
  C23      1.0000 0.81470  0.90900  0.71130  Biso   1.000  C
  H29      1.0000 0.80470  0.96450  0.71860  Biso   1.000  H
  C24      1.0000 0.76790  0.86380  0.64060  Biso   1.000  C
  H30      1.0000 0.72550  0.88840  0.60220  Biso   1.000  H
  H31      1.0000 0.78770  0.14460  0.24520  Biso   1.000  H
  O7       1.0000 0.51347  0.39224  0.38469  Biso   1.000  O
  C25      1.0000 0.60500  0.29340  0.25050  Biso   1.000  C
  H32      1.0000 0.55950  0.27080  0.28440  Biso   1.000  H
  C26      1.0000 0.65150  0.24710  0.18140  Biso   1.000  C
  H33      1.0000 0.63990  0.19210  0.17120  Biso   1.000  H
  C27      1.0000 0.59100  0.31470  0.21130  Biso   1.000  C
  H34      1.0000 0.53550  0.30470  0.21860  Biso   1.000  H
  C28      1.0000 0.63620  0.26790  0.14060  Biso   1.000  C
  H35      1.0000 0.61160  0.22550  0.10220  Biso   1.000  H
  H36      1.0000 0.21230  0.85540  0.24520  Biso   1.000  H
  O8       1.0000 0.48653  0.60776  0.38469  Biso   1.000  O
  C29      1.0000 0.39500  0.70660  0.25050  Biso   1.000  C
  H37      1.0000 0.44050  0.72920  0.28440  Biso   1.000  H
  C30      1.0000 0.34850  0.75290  0.18140  Biso   1.000  C
  H38      1.0000 0.36010  0.80790  0.17120  Biso   1.000  H
  C31      1.0000 0.40900  0.68530  0.21130  Biso   1.000  C
  H39      1.0000 0.46450  0.69530  0.21860  Biso   1.000  H
  C32      1.0000 0.36380  0.73210  0.14060  Biso   1.000  C
  H40      1.0000 0.38840  0.77450  0.10220  Biso   1.000  H
  H41      1.0000 0.85540  0.21230  0.24520  Biso   1.000  H
  O9       1.0000 0.60776  0.48653  0.38469  Biso   1.000  O
  C33      1.0000 0.70660  0.39500  0.25050  Biso   1.000  C
  H42      1.0000 0.72920  0.44050  0.28440  Biso   1.000  H
  C34      1.0000 0.75290  0.34850  0.18140  Biso   1.000  C
  H43      1.0000 0.80790  0.36010  0.17120  Biso   1.000  H
  C35      1.0000 0.68530  0.40900  0.21130  Biso   1.000  C
  H44      1.0000 0.69530  0.46450  0.21860  Biso   1.000  H
  C36      1.0000 0.73210  0.36380  0.14060  Biso   1.000  C
  H45      1.0000 0.77450  0.38840  0.10220  Biso   1.000  H
  H46      1.0000 0.14460  0.78770  0.24520  Biso   1.000  H
  O10      1.0000 0.39224  0.51347  0.38469  Biso   1.000  O
  C37      1.0000 0.29340  0.60500  0.25050  Biso   1.000  C
  H47      1.0000 0.27080  0.55950  0.28440  Biso   1.000  H
  C38      1.0000 0.24710  0.65150  0.18140  Biso   1.000  C
  H48      1.0000 0.19210  0.63990  0.17120  Biso   1.000  H
  C39      1.0000 0.31470  0.59100  0.21130  Biso   1.000  C
  H49      1.0000 0.30470  0.53550  0.21860  Biso   1.000  H
  C40      1.0000 0.26790  0.63620  0.14060  Biso   1.000  C
  H50      1.0000 0.22550  0.61160  0.10220  Biso   1.000  H
  H51      1.0000 0.28770  0.35540  0.74520  Biso   1.000  H
  O11      1.0000 0.01347  0.10776  0.88469  Biso   1.000  O
  C41      1.0000 0.10500  0.20660  0.75050  Biso   1.000  C
  H52      1.0000 0.05950  0.22920  0.78440  Biso   1.000  H
  C42      1.0000 0.15150  0.25290  0.68140  Biso   1.000  C
  H53      1.0000 0.13990  0.30790  0.67120  Biso   1.000  H
  C43      1.0000 0.09100  0.18530  0.71130  Biso   1.000  C
  H54      1.0000 0.03550  0.19530  0.71860  Biso   1.000  H
  C44      1.0000 0.13620  0.23210  0.64060  Biso   1.000  C
  H55      1.0000 0.11160  0.27450  0.60220  Biso   1.000  H
  H56      1.0000 0.71230  0.64460  0.74520  Biso   1.000  H
  O12      1.0000 0.98653  0.89224  0.88469  Biso   1.000  O
  C45      1.0000 0.89500  0.79340  0.75050  Biso   1.000  C
  H57      1.0000 0.94050  0.77080  0.78440  Biso   1.000  H
  C46      1.0000 0.84850  0.74710  0.68140  Biso   1.000  C
  H58      1.0000 0.86010  0.69210  0.67120  Biso   1.000  H
  C47      1.0000 0.90900  0.81470  0.71130  Biso   1.000  C
  H59      1.0000 0.96450  0.80470  0.71860  Biso   1.000  H
  C48      1.0000 0.86380  0.76790  0.64060  Biso   1.000  C
  H60      1.0000 0.88840  0.72550  0.60220  Biso   1.000  H
  H61      1.0000 0.64460  0.71230  0.25480  Biso   1.000  H
  O13      1.0000 0.89224  0.98653  0.11531  Biso   1.000  O
  C49      1.0000 0.79340  0.89500  0.24950  Biso   1.000  C
  H62      1.0000 0.77080  0.94050  0.21560  Biso   1.000  H
  C50      1.0000 0.74710  0.84850  0.31860  Biso   1.000  C
  H63      1.0000 0.69210  0.86010  0.32880  Biso   1.000  H
  C51      1.0000 0.81470  0.90900  0.28870  Biso   1.000  C
  H64      1.0000 0.80470  0.96450  0.28140  Biso   1.000  H
  C52      1.0000 0.76790  0.86380  0.35940  Biso   1.000  C
  H65      1.0000 0.72550  0.88840  0.39780  Biso   1.000  H
  H66      1.0000 0.35540  0.28770  0.25480  Biso   1.000  H
  O14      1.0000 0.10776  0.01347  0.11531  Biso   1.000  O
  C53      1.0000 0.20660  0.10500  0.24950  Biso   1.000  C
  H67      1.0000 0.22920  0.05950  0.21560  Biso   1.000  H
  C54      1.0000 0.25290  0.15150  0.31860  Biso   1.000  C
  H68      1.0000 0.30790  0.13990  0.32880  Biso   1.000  H
  C55      1.0000 0.18530  0.09100  0.28870  Biso   1.000  C
  H69      1.0000 0.19530  0.03550  0.28140  Biso   1.000  H
  C56      1.0000 0.23210  0.13620  0.35940  Biso   1.000  C
  H70      1.0000 0.27450  0.11160  0.39780  Biso   1.000  H
  H71      1.0000 0.21230  0.85540  0.75480  Biso   1.000  H
  O15      1.0000 0.48653  0.60776  0.61531  Biso   1.000  O
  C57      1.0000 0.39500  0.70660  0.74950  Biso   1.000  C
  H72      1.0000 0.44050  0.72920  0.71560  Biso   1.000  H
  C58      1.0000 0.34850  0.75290  0.81860  Biso   1.000  C
  H73      1.0000 0.36010  0.80790  0.82880  Biso   1.000  H
  C59      1.0000 0.40900  0.68530  0.78870  Biso   1.000  C
  H74      1.0000 0.46450  0.69530  0.78140  Biso   1.000  H
  C60      1.0000 0.36380  0.73210  0.85940  Biso   1.000  C
  H75      1.0000 0.38840  0.77450  0.89780  Biso   1.000  H
  H76      1.0000 0.78770  0.14460  0.75480  Biso   1.000  H
  O16      1.0000 0.51347  0.39224  0.61531  Biso   1.000  O
  C61      1.0000 0.60500  0.29340  0.74950  Biso   1.000  C
  H77      1.0000 0.55950  0.27080  0.71560  Biso   1.000  H
  C62      1.0000 0.65150  0.24710  0.81860  Biso   1.000  C
  H78      1.0000 0.63990  0.19210  0.82880  Biso   1.000  H
  C63      1.0000 0.59100  0.31470  0.78870  Biso   1.000  C
  H79      1.0000 0.53550  0.30470  0.78140  Biso   1.000  H
  C64      1.0000 0.63620  0.26790  0.85940  Biso   1.000  C
  H80      1.0000 0.61160  0.22550  0.89780  Biso   1.000  H
  C65      1.0000 0.42183  0.57817  0.64710  Biso   1.000  C
  C66      1.0000 0.37451  0.62549  0.72980  Biso   1.000  C
  C67      1.0000 0.28348  0.71652  0.87350  Biso   1.000  C
  C68      1.0000 0.16330  0.83670  0.78960  Biso   1.000  C
  H81      1.0000 0.12210  0.87790  0.78290  Biso   1.000  H
  C69      1.0000 0.17998  0.82002  0.91160  Biso   1.000  C
  C70      1.0000 0.23392  0.76608  0.94450  Biso   1.000  C
  N1       1.0000 0.23392  0.76608  0.05550  Biso   1.000  N
  C71      1.0000 0.57817  0.42183  0.64710  Biso   1.000  C
  C72      1.0000 0.62549  0.37451  0.72980  Biso   1.000  C
  C73      1.0000 0.71652  0.28348  0.87350  Biso   1.000  C
  C74      1.0000 0.83670  0.16330  0.78960  Biso   1.000  C
  H82      1.0000 0.87790  0.12210  0.78290  Biso   1.000  H
  C75      1.0000 0.82002  0.17998  0.91160  Biso   1.000  C
  C76      1.0000 0.76608  0.23392  0.94450  Biso   1.000  C
  N2       1.0000 0.76608  0.23392  0.05550  Biso   1.000  N
  C77      1.0000 0.92183  0.92183  0.14710  Biso   1.000  C
  C78      1.0000 0.87451  0.87451  0.22980  Biso   1.000  C
  C79      1.0000 0.78348  0.78348  0.37350  Biso   1.000  C
  C80      1.0000 0.66330  0.66330  0.28960  Biso   1.000  C
  H83      1.0000 0.62210  0.62210  0.28290  Biso   1.000  H
  C81      1.0000 0.67998  0.67998  0.41160  Biso   1.000  C
  C82      1.0000 0.73392  0.73392  0.44450  Biso   1.000  C
  N3       1.0000 0.73392  0.73392  0.55550  Biso   1.000  N
  C83      1.0000 0.07817  0.07817  0.14710  Biso   1.000  C
  C84      1.0000 0.12549  0.12549  0.22980  Biso   1.000  C
  C85      1.0000 0.21652  0.21652  0.37350  Biso   1.000  C
  C86      1.0000 0.33670  0.33670  0.28960  Biso   1.000  C
  H84      1.0000 0.37790  0.37790  0.28290  Biso   1.000  H
  C87      1.0000 0.32002  0.32002  0.41160  Biso   1.000  C
  C88      1.0000 0.26608  0.26608  0.44450  Biso   1.000  C
  N4       1.0000 0.26608  0.26608  0.55550  Biso   1.000  N
  C89      1.0000 0.07817  0.07817  0.85290  Biso   1.000  C
  C90      1.0000 0.12549  0.12549  0.77020  Biso   1.000  C
  C91      1.0000 0.21652  0.21652  0.62650  Biso   1.000  C
  C92      1.0000 0.33670  0.33670  0.71040  Biso   1.000  C
  H85      1.0000 0.37790  0.37790  0.71710  Biso   1.000  H
  C93      1.0000 0.32002  0.32002  0.58840  Biso   1.000  C
  C94      1.0000 0.92183  0.92183  0.85290  Biso   1.000  C
  C95      1.0000 0.87451  0.87451  0.77020  Biso   1.000  C
  C96      1.0000 0.78348  0.78348  0.62650  Biso   1.000  C
  C97      1.0000 0.66330  0.66330  0.71040  Biso   1.000  C
  H86      1.0000 0.62210  0.62210  0.71710  Biso   1.000  H
  C98      1.0000 0.67998  0.67998  0.58840  Biso   1.000  C
  C99      1.0000 0.57817  0.42183  0.35290  Biso   1.000  C
  C100     1.0000 0.62549  0.37451  0.27020  Biso   1.000  C
  C101     1.0000 0.71652  0.28348  0.12650  Biso   1.000  C
  C102     1.0000 0.83670  0.16330  0.21040  Biso   1.000  C
  H87      1.0000 0.87790  0.12210  0.21710  Biso   1.000  H
  C103     1.0000 0.82002  0.17998  0.08840  Biso   1.000  C
  C104     1.0000 0.42183  0.57817  0.35290  Biso   1.000  C
  C105     1.0000 0.37451  0.62549  0.27020  Biso   1.000  C
  C106     1.0000 0.28348  0.71652  0.12650  Biso   1.000  C
  C107     1.0000 0.16330  0.83670  0.21040  Biso   1.000  C
  H88      1.0000 0.12210  0.87790  0.21710  Biso   1.000  H
  C108     1.0000 0.17998  0.82002  0.08840  Biso   1.000  C
  Co1      1.0000 0.44009  0.44009  0.50000  Biso   1.000  Co
  Co2      1.0000 0.55991  0.55991  0.50000  Biso   1.000  Co
  Co3      1.0000 0.05991  0.94009  0.00000  Biso   1.000  Co
  Co4      1.0000 0.94009  0.05991  0.00000  Biso   1.000  Co
  N5       1.0000 0.14666  0.85334  0.00000  Biso   1.000  N
  N6       1.0000 0.85334  0.14666  0.00000  Biso   1.000  N
  N7       1.0000 0.64666  0.64666  0.50000  Biso   1.000  N
  N8       1.0000 0.35334  0.35334  0.50000  Biso   1.000  N
