data_image0
_cell_length_a       16.8572
_cell_length_b       16.8572
_cell_length_c       11.9275
_cell_angle_alpha    90
_cell_angle_beta     90
_cell_angle_gamma    90

_symmetry_space_group_name_H-M    "P 1"
_symmetry_int_tables_number       1

loop_
  _symmetry_equiv_pos_as_xyz
  'x, y, z'

loop_
  _atom_site_label
  _atom_site_occupancy
  _atom_site_fract_x
  _atom_site_fract_y
  _atom_site_fract_z
  _atom_site_thermal_displace_type
  _atom_site_B_iso_or_equiv
  _atom_site_type_symbol
  O1       1.0000 0.39380  0.51340  0.61800  Biso   1.000  O
  C1       1.0000 0.29210  0.61360  0.73210  Biso   1.000  C
  H1       1.0000 0.26810  0.57430  0.68610  Biso   1.000  H
  C2       1.0000 0.24620  0.65920  0.80380  Biso   1.000  C
  H2       1.0000 0.19060  0.65090  0.80780  Biso   1.000  H
  C3       1.0000 0.31870  0.59170  0.79780  Biso   1.000  C
  H3       1.0000 0.31160  0.53580  0.79700  Biso   1.000  H
  C4       1.0000 0.27270  0.63880  0.86990  Biso   1.000  C
  H4       1.0000 0.23490  0.61470  0.91810  Biso   1.000  H
  H5       1.0000 0.20700  0.86490  0.74640  Biso   1.000  H
  H6       1.0000 0.11490  0.87430  0.77650  Biso   1.000  H
  H7       1.0000 0.14940  0.78950  0.74100  Biso   1.000  H
  O2       1.0000 0.60620  0.48660  0.61800  Biso   1.000  O
  C5       1.0000 0.70790  0.38640  0.73210  Biso   1.000  C
  H8       1.0000 0.73190  0.42570  0.68610  Biso   1.000  H
  C6       1.0000 0.75380  0.34080  0.80380  Biso   1.000  C
  H9       1.0000 0.80940  0.34910  0.80780  Biso   1.000  H
  C7       1.0000 0.68130  0.40830  0.79780  Biso   1.000  C
  H10      1.0000 0.68840  0.46420  0.79700  Biso   1.000  H
  C8       1.0000 0.72730  0.36120  0.86990  Biso   1.000  C
  H11      1.0000 0.76510  0.38530  0.91810  Biso   1.000  H
  H12      1.0000 0.79300  0.13510  0.74640  Biso   1.000  H
  H13      1.0000 0.88510  0.12570  0.77650  Biso   1.000  H
  H14      1.0000 0.85060  0.21050  0.74100  Biso   1.000  H
  O3       1.0000 0.98660  0.89380  0.11800  Biso   1.000  O
  C9       1.0000 0.88640  0.79210  0.23210  Biso   1.000  C
  H15      1.0000 0.92570  0.76810  0.18610  Biso   1.000  H
  C10      1.0000 0.84080  0.74620  0.30380  Biso   1.000  C
  H16      1.0000 0.84910  0.69060  0.30780  Biso   1.000  H
  C11      1.0000 0.90830  0.81870  0.29780  Biso   1.000  C
  H17      1.0000 0.96420  0.81160  0.29700  Biso   1.000  H
  C12      1.0000 0.86120  0.77270  0.36990  Biso   1.000  C
  H18      1.0000 0.88530  0.73490  0.41810  Biso   1.000  H
  H19      1.0000 0.63510  0.70700  0.24640  Biso   1.000  H
  H20      1.0000 0.62570  0.61490  0.27650  Biso   1.000  H
  H21      1.0000 0.71050  0.64940  0.24100  Biso   1.000  H
  O4       1.0000 0.01340  0.10620  0.11800  Biso   1.000  O
  C13      1.0000 0.11360  0.20790  0.23210  Biso   1.000  C
  H22      1.0000 0.07430  0.23190  0.18610  Biso   1.000  H
  C14      1.0000 0.15920  0.25380  0.30380  Biso   1.000  C
  H23      1.0000 0.15090  0.30940  0.30780  Biso   1.000  H
  C15      1.0000 0.09170  0.18130  0.29780  Biso   1.000  C
  H24      1.0000 0.03580  0.18840  0.29700  Biso   1.000  H
  C16      1.0000 0.13880  0.22730  0.36990  Biso   1.000  C
  H25      1.0000 0.11470  0.26510  0.41810  Biso   1.000  H
  H26      1.0000 0.36490  0.29300  0.24640  Biso   1.000  H
  H27      1.0000 0.37430  0.38510  0.27650  Biso   1.000  H
  H28      1.0000 0.28950  0.35060  0.24100  Biso   1.000  H
  O5       1.0000 0.10620  0.01340  0.88200  Biso   1.000  O
  C17      1.0000 0.20790  0.11360  0.76790  Biso   1.000  C
  H29      1.0000 0.23190  0.07430  0.81390  Biso   1.000  H
  C18      1.0000 0.25380  0.15920  0.69620  Biso   1.000  C
  H30      1.0000 0.30940  0.15090  0.69220  Biso   1.000  H
  C19      1.0000 0.18130  0.09170  0.70220  Biso   1.000  C
  H31      1.0000 0.18840  0.03580  0.70300  Biso   1.000  H
  C20      1.0000 0.22730  0.13880  0.63010  Biso   1.000  C
  H32      1.0000 0.26510  0.11470  0.58190  Biso   1.000  H
  H33      1.0000 0.29300  0.36490  0.75360  Biso   1.000  H
  H34      1.0000 0.38510  0.37430  0.72350  Biso   1.000  H
  H35      1.0000 0.35060  0.28950  0.75900  Biso   1.000  H
  O6       1.0000 0.89380  0.98660  0.88200  Biso   1.000  O
  C21      1.0000 0.79210  0.88640  0.76790  Biso   1.000  C
  H36      1.0000 0.76810  0.92570  0.81390  Biso   1.000  H
  C22      1.0000 0.74620  0.84080  0.69620  Biso   1.000  C
  H37      1.0000 0.69060  0.84910  0.69220  Biso   1.000  H
  C23      1.0000 0.81870  0.90830  0.70220  Biso   1.000  C
  H38      1.0000 0.81160  0.96420  0.70300  Biso   1.000  H
  C24      1.0000 0.77270  0.86120  0.63010  Biso   1.000  C
  H39      1.0000 0.73490  0.88530  0.58190  Biso   1.000  H
  H40      1.0000 0.70700  0.63510  0.75360  Biso   1.000  H
  H41      1.0000 0.61490  0.62570  0.72350  Biso   1.000  H
  H42      1.0000 0.64940  0.71050  0.75900  Biso   1.000  H
  O7       1.0000 0.51340  0.39380  0.38200  Biso   1.000  O
  C25      1.0000 0.61360  0.29210  0.26790  Biso   1.000  C
  H43      1.0000 0.57430  0.26810  0.31390  Biso   1.000  H
  C26      1.0000 0.65920  0.24620  0.19620  Biso   1.000  C
  H44      1.0000 0.65090  0.19060  0.19220  Biso   1.000  H
  C27      1.0000 0.59170  0.31870  0.20220  Biso   1.000  C
  H45      1.0000 0.53580  0.31160  0.20300  Biso   1.000  H
  C28      1.0000 0.63880  0.27270  0.13010  Biso   1.000  C
  H46      1.0000 0.61470  0.23490  0.08190  Biso   1.000  H
  H47      1.0000 0.86490  0.20700  0.25360  Biso   1.000  H
  H48      1.0000 0.87430  0.11490  0.22350  Biso   1.000  H
  H49      1.0000 0.78950  0.14940  0.25900  Biso   1.000  H
  O8       1.0000 0.48660  0.60620  0.38200  Biso   1.000  O
  C29      1.0000 0.38640  0.70790  0.26790  Biso   1.000  C
  H50      1.0000 0.42570  0.73190  0.31390  Biso   1.000  H
  C30      1.0000 0.34080  0.75380  0.19620  Biso   1.000  C
  H51      1.0000 0.34910  0.80940  0.19220  Biso   1.000  H
  C31      1.0000 0.40830  0.68130  0.20220  Biso   1.000  C
  H52      1.0000 0.46420  0.68840  0.20300  Biso   1.000  H
  C32      1.0000 0.36120  0.72730  0.13010  Biso   1.000  C
  H53      1.0000 0.38530  0.76510  0.08190  Biso   1.000  H
  H54      1.0000 0.13510  0.79300  0.25360  Biso   1.000  H
  H55      1.0000 0.12570  0.88510  0.22350  Biso   1.000  H
  H56      1.0000 0.21050  0.85060  0.25900  Biso   1.000  H
  O9       1.0000 0.60620  0.48660  0.38200  Biso   1.000  O
  C33      1.0000 0.70790  0.38640  0.26790  Biso   1.000  C
  H57      1.0000 0.73190  0.42570  0.31390  Biso   1.000  H
  C34      1.0000 0.75380  0.34080  0.19620  Biso   1.000  C
  H58      1.0000 0.80940  0.34910  0.19220  Biso   1.000  H
  C35      1.0000 0.68130  0.40830  0.20220  Biso   1.000  C
  H59      1.0000 0.68840  0.46420  0.20300  Biso   1.000  H
  C36      1.0000 0.72730  0.36120  0.13010  Biso   1.000  C
  H60      1.0000 0.76510  0.38530  0.08190  Biso   1.000  H
  H61      1.0000 0.79300  0.13510  0.25360  Biso   1.000  H
  H62      1.0000 0.88510  0.12570  0.22350  Biso   1.000  H
  H63      1.0000 0.85060  0.21050  0.25900  Biso   1.000  H
  O10      1.0000 0.39380  0.51340  0.38200  Biso   1.000  O
  C37      1.0000 0.29210  0.61360  0.26790  Biso   1.000  C
  H64      1.0000 0.26810  0.57430  0.31390  Biso   1.000  H
  C38      1.0000 0.24620  0.65920  0.19620  Biso   1.000  C
  H65      1.0000 0.19060  0.65090  0.19220  Biso   1.000  H
  C39      1.0000 0.31870  0.59170  0.20220  Biso   1.000  C
  H66      1.0000 0.31160  0.53580  0.20300  Biso   1.000  H
  C40      1.0000 0.27270  0.63880  0.13010  Biso   1.000  C
  H67      1.0000 0.23490  0.61470  0.08190  Biso   1.000  H
  H68      1.0000 0.20700  0.86490  0.25360  Biso   1.000  H
  H69      1.0000 0.11490  0.87430  0.22350  Biso   1.000  H
  H70      1.0000 0.14940  0.78950  0.25900  Biso   1.000  H
  O11      1.0000 0.01340  0.10620  0.88200  Biso   1.000  O
  C41      1.0000 0.11360  0.20790  0.76790  Biso   1.000  C
  H71      1.0000 0.07430  0.23190  0.81390  Biso   1.000  H
  C42      1.0000 0.15920  0.25380  0.69620  Biso   1.000  C
  H72      1.0000 0.15090  0.30940  0.69220  Biso   1.000  H
  C43      1.0000 0.09170  0.18130  0.70220  Biso   1.000  C
  H73      1.0000 0.03580  0.18840  0.70300  Biso   1.000  H
  C44      1.0000 0.13880  0.22730  0.63010  Biso   1.000  C
  H74      1.0000 0.11470  0.26510  0.58190  Biso   1.000  H
  H75      1.0000 0.36490  0.29300  0.75360  Biso   1.000  H
  H76      1.0000 0.37430  0.38510  0.72350  Biso   1.000  H
  H77      1.0000 0.28950  0.35060  0.75900  Biso   1.000  H
  O12      1.0000 0.98660  0.89380  0.88200  Biso   1.000  O
  C45      1.0000 0.88640  0.79210  0.76790  Biso   1.000  C
  H78      1.0000 0.92570  0.76810  0.81390  Biso   1.000  H
  C46      1.0000 0.84080  0.74620  0.69620  Biso   1.000  C
  H79      1.0000 0.84910  0.69060  0.69220  Biso   1.000  H
  C47      1.0000 0.90830  0.81870  0.70220  Biso   1.000  C
  H80      1.0000 0.96420  0.81160  0.70300  Biso   1.000  H
  C48      1.0000 0.86120  0.77270  0.63010  Biso   1.000  C
  H81      1.0000 0.88530  0.73490  0.58190  Biso   1.000  H
  H82      1.0000 0.63510  0.70700  0.75360  Biso   1.000  H
  H83      1.0000 0.62570  0.61490  0.72350  Biso   1.000  H
  H84      1.0000 0.71050  0.64940  0.75900  Biso   1.000  H
  O13      1.0000 0.89380  0.98660  0.11800  Biso   1.000  O
  C49      1.0000 0.79210  0.88640  0.23210  Biso   1.000  C
  H85      1.0000 0.76810  0.92570  0.18610  Biso   1.000  H
  C50      1.0000 0.74620  0.84080  0.30380  Biso   1.000  C
  H86      1.0000 0.69060  0.84910  0.30780  Biso   1.000  H
  C51      1.0000 0.81870  0.90830  0.29780  Biso   1.000  C
  H87      1.0000 0.81160  0.96420  0.29700  Biso   1.000  H
  C52      1.0000 0.77270  0.86120  0.36990  Biso   1.000  C
  H88      1.0000 0.73490  0.88530  0.41810  Biso   1.000  H
  H89      1.0000 0.70700  0.63510  0.24640  Biso   1.000  H
  H90      1.0000 0.61490  0.62570  0.27650  Biso   1.000  H
  H91      1.0000 0.64940  0.71050  0.24100  Biso   1.000  H
  O14      1.0000 0.10620  0.01340  0.11800  Biso   1.000  O
  C53      1.0000 0.20790  0.11360  0.23210  Biso   1.000  C
  H92      1.0000 0.23190  0.07430  0.18610  Biso   1.000  H
  C54      1.0000 0.25380  0.15920  0.30380  Biso   1.000  C
  H93      1.0000 0.30940  0.15090  0.30780  Biso   1.000  H
  C55      1.0000 0.18130  0.09170  0.29780  Biso   1.000  C
  H94      1.0000 0.18840  0.03580  0.29700  Biso   1.000  H
  C56      1.0000 0.22730  0.13880  0.36990  Biso   1.000  C
  H95      1.0000 0.26510  0.11470  0.41810  Biso   1.000  H
  H96      1.0000 0.29300  0.36490  0.24640  Biso   1.000  H
  H97      1.0000 0.38510  0.37430  0.27650  Biso   1.000  H
  H98      1.0000 0.35060  0.28950  0.24100  Biso   1.000  H
  O15      1.0000 0.48660  0.60620  0.61800  Biso   1.000  O
  C57      1.0000 0.38640  0.70790  0.73210  Biso   1.000  C
  H99      1.0000 0.42570  0.73190  0.68610  Biso   1.000  H
  C58      1.0000 0.34080  0.75380  0.80380  Biso   1.000  C
  H100     1.0000 0.34910  0.80940  0.80780  Biso   1.000  H
  C59      1.0000 0.40830  0.68130  0.79780  Biso   1.000  C
  H101     1.0000 0.46420  0.68840  0.79700  Biso   1.000  H
  C60      1.0000 0.36120  0.72730  0.86990  Biso   1.000  C
  H102     1.0000 0.38530  0.76510  0.91810  Biso   1.000  H
  H103     1.0000 0.13510  0.79300  0.74640  Biso   1.000  H
  H104     1.0000 0.12570  0.88510  0.77650  Biso   1.000  H
  H105     1.0000 0.21050  0.85060  0.74100  Biso   1.000  H
  O16      1.0000 0.51340  0.39380  0.61800  Biso   1.000  O
  C61      1.0000 0.61360  0.29210  0.73210  Biso   1.000  C
  H106     1.0000 0.57430  0.26810  0.68610  Biso   1.000  H
  C62      1.0000 0.65920  0.24620  0.80380  Biso   1.000  C
  H107     1.0000 0.65090  0.19060  0.80780  Biso   1.000  H
  C63      1.0000 0.59170  0.31870  0.79780  Biso   1.000  C
  H108     1.0000 0.53580  0.31160  0.79700  Biso   1.000  H
  C64      1.0000 0.63880  0.27270  0.86990  Biso   1.000  C
  H109     1.0000 0.61470  0.23490  0.91810  Biso   1.000  H
  H110     1.0000 0.86490  0.20700  0.74640  Biso   1.000  H
  H111     1.0000 0.87430  0.11490  0.77650  Biso   1.000  H
  H112     1.0000 0.78950  0.14940  0.74100  Biso   1.000  H
  C65      1.0000 0.42165  0.57835  0.64990  Biso   1.000  C
  C66      1.0000 0.37392  0.62608  0.72830  Biso   1.000  C
  C67      1.0000 0.28218  0.71782  0.87060  Biso   1.000  C
  C68      1.0000 0.16100  0.83900  0.78090  Biso   1.000  C
  C69      1.0000 0.17999  0.82001  0.90850  Biso   1.000  C
  C70      1.0000 0.23313  0.76687  0.94220  Biso   1.000  C
  N1       1.0000 0.23313  0.76687  0.05780  Biso   1.000  N
  C71      1.0000 0.57835  0.42165  0.64990  Biso   1.000  C
  C72      1.0000 0.62608  0.37392  0.72830  Biso   1.000  C
  C73      1.0000 0.71782  0.28218  0.87060  Biso   1.000  C
  C74      1.0000 0.83900  0.16100  0.78090  Biso   1.000  C
  C75      1.0000 0.82001  0.17999  0.90850  Biso   1.000  C
  C76      1.0000 0.76687  0.23313  0.94220  Biso   1.000  C
  N2       1.0000 0.76687  0.23313  0.05780  Biso   1.000  N
  C77      1.0000 0.92165  0.92165  0.14990  Biso   1.000  C
  C78      1.0000 0.87392  0.87392  0.22830  Biso   1.000  C
  C79      1.0000 0.78218  0.78218  0.37060  Biso   1.000  C
  C80      1.0000 0.66100  0.66100  0.28090  Biso   1.000  C
  C81      1.0000 0.67999  0.67999  0.40850  Biso   1.000  C
  C82      1.0000 0.73313  0.73313  0.44220  Biso   1.000  C
  N3       1.0000 0.73313  0.73313  0.55780  Biso   1.000  N
  C83      1.0000 0.07835  0.07835  0.14990  Biso   1.000  C
  C84      1.0000 0.12608  0.12608  0.22830  Biso   1.000  C
  C85      1.0000 0.21782  0.21782  0.37060  Biso   1.000  C
  C86      1.0000 0.33900  0.33900  0.28090  Biso   1.000  C
  C87      1.0000 0.32001  0.32001  0.40850  Biso   1.000  C
  C88      1.0000 0.26687  0.26687  0.44220  Biso   1.000  C
  N4       1.0000 0.26687  0.26687  0.55780  Biso   1.000  N
  C89      1.0000 0.07835  0.07835  0.85010  Biso   1.000  C
  C90      1.0000 0.12608  0.12608  0.77170  Biso   1.000  C
  C91      1.0000 0.21782  0.21782  0.62940  Biso   1.000  C
  C92      1.0000 0.33900  0.33900  0.71910  Biso   1.000  C
  C93      1.0000 0.32001  0.32001  0.59150  Biso   1.000  C
  C94      1.0000 0.92165  0.92165  0.85010  Biso   1.000  C
  C95      1.0000 0.87392  0.87392  0.77170  Biso   1.000  C
  C96      1.0000 0.78218  0.78218  0.62940  Biso   1.000  C
  C97      1.0000 0.66100  0.66100  0.71910  Biso   1.000  C
  C98      1.0000 0.67999  0.67999  0.59150  Biso   1.000  C
  C99      1.0000 0.57835  0.42165  0.35010  Biso   1.000  C
  C100     1.0000 0.62608  0.37392  0.27170  Biso   1.000  C
  C101     1.0000 0.71782  0.28218  0.12940  Biso   1.000  C
  C102     1.0000 0.83900  0.16100  0.21910  Biso   1.000  C
  C103     1.0000 0.82001  0.17999  0.09150  Biso   1.000  C
  C104     1.0000 0.42165  0.57835  0.35010  Biso   1.000  C
  C105     1.0000 0.37392  0.62608  0.27170  Biso   1.000  C
  C106     1.0000 0.28218  0.71782  0.12940  Biso   1.000  C
  C107     1.0000 0.16100  0.83900  0.21910  Biso   1.000  C
  C108     1.0000 0.17999  0.82001  0.09150  Biso   1.000  C
  Zn1      1.0000 0.43701  0.43701  0.50000  Biso   1.000  Zn
  Zn2      1.0000 0.56299  0.56299  0.50000  Biso   1.000  Zn
  Zn3      1.0000 0.06299  0.93701  0.00000  Biso   1.000  Zn
  Zn4      1.0000 0.93701  0.06299  0.00000  Biso   1.000  Zn
  N5       1.0000 0.14700  0.85300  0.00000  Biso   1.000  N
  N6       1.0000 0.85300  0.14700  0.00000  Biso   1.000  N
  N7       1.0000 0.64700  0.64700  0.50000  Biso   1.000  N
  N8       1.0000 0.35300  0.35300  0.50000  Biso   1.000  N
