data_image0
_cell_length_a       16.6446
_cell_length_b       16.6446
_cell_length_c       11.9628
_cell_angle_alpha    90
_cell_angle_beta     90
_cell_angle_gamma    90

_symmetry_space_group_name_H-M    "P 1"
_symmetry_int_tables_number       1

loop_
  _symmetry_equiv_pos_as_xyz
  'x, y, z'

loop_
  _atom_site_label
  _atom_site_occupancy
  _atom_site_fract_x
  _atom_site_fract_y
  _atom_site_fract_z
  _atom_site_thermal_displace_type
  _atom_site_B_iso_or_equiv
  _atom_site_type_symbol
  O1       1.0000 0.39389  0.51183  0.61470  Biso   1.000  O
  C1       1.0000 0.31870  0.59120  0.79220  Biso   1.000  C
  H1       1.0000 0.30990  0.53540  0.78830  Biso   1.000  H
  C2       1.0000 0.27370  0.63800  0.86510  Biso   1.000  C
  H2       1.0000 0.23570  0.61300  0.91170  Biso   1.000  H
  C3       1.0000 0.29180  0.61000  0.73670  Biso   1.000  C
  H3       1.0000 0.26830  0.56850  0.69460  Biso   1.000  H
  C4       1.0000 0.24510  0.65580  0.80750  Biso   1.000  C
  H4       1.0000 0.18950  0.64670  0.81360  Biso   1.000  H
  O2       1.0000 0.60611  0.48817  0.61470  Biso   1.000  O
  C5       1.0000 0.68130  0.40880  0.79220  Biso   1.000  C
  H5       1.0000 0.69010  0.46460  0.78830  Biso   1.000  H
  C6       1.0000 0.72630  0.36200  0.86510  Biso   1.000  C
  H6       1.0000 0.76430  0.38700  0.91170  Biso   1.000  H
  C7       1.0000 0.70820  0.39000  0.73670  Biso   1.000  C
  H7       1.0000 0.73170  0.43150  0.69460  Biso   1.000  H
  C8       1.0000 0.75490  0.34420  0.80750  Biso   1.000  C
  H8       1.0000 0.81050  0.35330  0.81360  Biso   1.000  H
  O3       1.0000 0.98817  0.89389  0.11470  Biso   1.000  O
  C9       1.0000 0.90880  0.81870  0.29220  Biso   1.000  C
  H9       1.0000 0.96460  0.80990  0.28830  Biso   1.000  H
  C10      1.0000 0.86200  0.77370  0.36510  Biso   1.000  C
  H10      1.0000 0.88700  0.73570  0.41170  Biso   1.000  H
  C11      1.0000 0.89000  0.79180  0.23670  Biso   1.000  C
  H11      1.0000 0.93150  0.76830  0.19460  Biso   1.000  H
  C12      1.0000 0.84420  0.74510  0.30750  Biso   1.000  C
  H12      1.0000 0.85330  0.68950  0.31360  Biso   1.000  H
  O4       1.0000 0.01183  0.10611  0.11470  Biso   1.000  O
  C13      1.0000 0.09120  0.18130  0.29220  Biso   1.000  C
  H13      1.0000 0.03540  0.19010  0.28830  Biso   1.000  H
  C14      1.0000 0.13800  0.22630  0.36510  Biso   1.000  C
  H14      1.0000 0.11300  0.26430  0.41170  Biso   1.000  H
  C15      1.0000 0.11000  0.20820  0.23670  Biso   1.000  C
  H15      1.0000 0.06850  0.23170  0.19460  Biso   1.000  H
  C16      1.0000 0.15580  0.25490  0.30750  Biso   1.000  C
  H16      1.0000 0.14670  0.31050  0.31360  Biso   1.000  H
  O5       1.0000 0.10611  0.01183  0.88530  Biso   1.000  O
  C17      1.0000 0.18130  0.09120  0.70780  Biso   1.000  C
  H17      1.0000 0.19010  0.03540  0.71170  Biso   1.000  H
  C18      1.0000 0.22630  0.13800  0.63490  Biso   1.000  C
  H18      1.0000 0.26430  0.11300  0.58830  Biso   1.000  H
  C19      1.0000 0.20820  0.11000  0.76330  Biso   1.000  C
  H19      1.0000 0.23170  0.06850  0.80540  Biso   1.000  H
  C20      1.0000 0.25490  0.15580  0.69250  Biso   1.000  C
  H20      1.0000 0.31050  0.14670  0.68640  Biso   1.000  H
  O6       1.0000 0.89389  0.98817  0.88530  Biso   1.000  O
  C21      1.0000 0.81870  0.90880  0.70780  Biso   1.000  C
  H21      1.0000 0.80990  0.96460  0.71170  Biso   1.000  H
  C22      1.0000 0.77370  0.86200  0.63490  Biso   1.000  C
  H22      1.0000 0.73570  0.88700  0.58830  Biso   1.000  H
  C23      1.0000 0.79180  0.89000  0.76330  Biso   1.000  C
  H23      1.0000 0.76830  0.93150  0.80540  Biso   1.000  H
  C24      1.0000 0.74510  0.84420  0.69250  Biso   1.000  C
  H24      1.0000 0.68950  0.85330  0.68640  Biso   1.000  H
  O7       1.0000 0.51183  0.39389  0.38530  Biso   1.000  O
  C25      1.0000 0.59120  0.31870  0.20780  Biso   1.000  C
  H25      1.0000 0.53540  0.30990  0.21170  Biso   1.000  H
  C26      1.0000 0.63800  0.27370  0.13490  Biso   1.000  C
  H26      1.0000 0.61300  0.23570  0.08830  Biso   1.000  H
  C27      1.0000 0.61000  0.29180  0.26330  Biso   1.000  C
  H27      1.0000 0.56850  0.26830  0.30540  Biso   1.000  H
  C28      1.0000 0.65580  0.24510  0.19250  Biso   1.000  C
  H28      1.0000 0.64670  0.18950  0.18640  Biso   1.000  H
  O8       1.0000 0.48817  0.60611  0.38530  Biso   1.000  O
  C29      1.0000 0.40880  0.68130  0.20780  Biso   1.000  C
  H29      1.0000 0.46460  0.69010  0.21170  Biso   1.000  H
  C30      1.0000 0.36200  0.72630  0.13490  Biso   1.000  C
  H30      1.0000 0.38700  0.76430  0.08830  Biso   1.000  H
  C31      1.0000 0.39000  0.70820  0.26330  Biso   1.000  C
  H31      1.0000 0.43150  0.73170  0.30540  Biso   1.000  H
  C32      1.0000 0.34420  0.75490  0.19250  Biso   1.000  C
  H32      1.0000 0.35330  0.81050  0.18640  Biso   1.000  H
  O9       1.0000 0.60611  0.48817  0.38530  Biso   1.000  O
  C33      1.0000 0.68130  0.40880  0.20780  Biso   1.000  C
  H33      1.0000 0.69010  0.46460  0.21170  Biso   1.000  H
  C34      1.0000 0.72630  0.36200  0.13490  Biso   1.000  C
  H34      1.0000 0.76430  0.38700  0.08830  Biso   1.000  H
  C35      1.0000 0.70820  0.39000  0.26330  Biso   1.000  C
  H35      1.0000 0.73170  0.43150  0.30540  Biso   1.000  H
  C36      1.0000 0.75490  0.34420  0.19250  Biso   1.000  C
  H36      1.0000 0.81050  0.35330  0.18640  Biso   1.000  H
  O10      1.0000 0.39389  0.51183  0.38530  Biso   1.000  O
  C37      1.0000 0.31870  0.59120  0.20780  Biso   1.000  C
  H37      1.0000 0.30990  0.53540  0.21170  Biso   1.000  H
  C38      1.0000 0.27370  0.63800  0.13490  Biso   1.000  C
  H38      1.0000 0.23570  0.61300  0.08830  Biso   1.000  H
  C39      1.0000 0.29180  0.61000  0.26330  Biso   1.000  C
  H39      1.0000 0.26830  0.56850  0.30540  Biso   1.000  H
  C40      1.0000 0.24510  0.65580  0.19250  Biso   1.000  C
  H40      1.0000 0.18950  0.64670  0.18640  Biso   1.000  H
  O11      1.0000 0.01183  0.10611  0.88530  Biso   1.000  O
  C41      1.0000 0.09120  0.18130  0.70780  Biso   1.000  C
  H41      1.0000 0.03540  0.19010  0.71170  Biso   1.000  H
  C42      1.0000 0.13800  0.22630  0.63490  Biso   1.000  C
  H42      1.0000 0.11300  0.26430  0.58830  Biso   1.000  H
  C43      1.0000 0.11000  0.20820  0.76330  Biso   1.000  C
  H43      1.0000 0.06850  0.23170  0.80540  Biso   1.000  H
  C44      1.0000 0.15580  0.25490  0.69250  Biso   1.000  C
  H44      1.0000 0.14670  0.31050  0.68640  Biso   1.000  H
  O12      1.0000 0.98817  0.89389  0.88530  Biso   1.000  O
  C45      1.0000 0.90880  0.81870  0.70780  Biso   1.000  C
  H45      1.0000 0.96460  0.80990  0.71170  Biso   1.000  H
  C46      1.0000 0.86200  0.77370  0.63490  Biso   1.000  C
  H46      1.0000 0.88700  0.73570  0.58830  Biso   1.000  H
  C47      1.0000 0.89000  0.79180  0.76330  Biso   1.000  C
  H47      1.0000 0.93150  0.76830  0.80540  Biso   1.000  H
  C48      1.0000 0.84420  0.74510  0.69250  Biso   1.000  C
  H48      1.0000 0.85330  0.68950  0.68640  Biso   1.000  H
  O13      1.0000 0.89389  0.98817  0.11470  Biso   1.000  O
  C49      1.0000 0.81870  0.90880  0.29220  Biso   1.000  C
  H49      1.0000 0.80990  0.96460  0.28830  Biso   1.000  H
  C50      1.0000 0.77370  0.86200  0.36510  Biso   1.000  C
  H50      1.0000 0.73570  0.88700  0.41170  Biso   1.000  H
  C51      1.0000 0.79180  0.89000  0.23670  Biso   1.000  C
  H51      1.0000 0.76830  0.93150  0.19460  Biso   1.000  H
  C52      1.0000 0.74510  0.84420  0.30750  Biso   1.000  C
  H52      1.0000 0.68950  0.85330  0.31360  Biso   1.000  H
  O14      1.0000 0.10611  0.01183  0.11470  Biso   1.000  O
  C53      1.0000 0.18130  0.09120  0.29220  Biso   1.000  C
  H53      1.0000 0.19010  0.03540  0.28830  Biso   1.000  H
  C54      1.0000 0.22630  0.13800  0.36510  Biso   1.000  C
  H54      1.0000 0.26430  0.11300  0.41170  Biso   1.000  H
  C55      1.0000 0.20820  0.11000  0.23670  Biso   1.000  C
  H55      1.0000 0.23170  0.06850  0.19460  Biso   1.000  H
  C56      1.0000 0.25490  0.15580  0.30750  Biso   1.000  C
  H56      1.0000 0.31050  0.14670  0.31360  Biso   1.000  H
  O15      1.0000 0.48817  0.60611  0.61470  Biso   1.000  O
  C57      1.0000 0.40880  0.68130  0.79220  Biso   1.000  C
  H57      1.0000 0.46460  0.69010  0.78830  Biso   1.000  H
  C58      1.0000 0.36200  0.72630  0.86510  Biso   1.000  C
  H58      1.0000 0.38700  0.76430  0.91170  Biso   1.000  H
  C59      1.0000 0.39000  0.70820  0.73670  Biso   1.000  C
  H59      1.0000 0.43150  0.73170  0.69460  Biso   1.000  H
  C60      1.0000 0.34420  0.75490  0.80750  Biso   1.000  C
  H60      1.0000 0.35330  0.81050  0.81360  Biso   1.000  H
  O16      1.0000 0.51183  0.39389  0.61470  Biso   1.000  O
  C61      1.0000 0.59120  0.31870  0.79220  Biso   1.000  C
  H61      1.0000 0.53540  0.30990  0.78830  Biso   1.000  H
  C62      1.0000 0.63800  0.27370  0.86510  Biso   1.000  C
  H62      1.0000 0.61300  0.23570  0.91170  Biso   1.000  H
  C63      1.0000 0.61000  0.29180  0.73670  Biso   1.000  C
  H63      1.0000 0.56850  0.26830  0.69460  Biso   1.000  H
  C64      1.0000 0.65580  0.24510  0.80750  Biso   1.000  C
  H64      1.0000 0.64670  0.18950  0.81360  Biso   1.000  H
  C65      1.0000 0.42280  0.57720  0.64640  Biso   1.000  C
  C66      1.0000 0.37441  0.62559  0.72780  Biso   1.000  C
  C67      1.0000 0.28298  0.71702  0.87080  Biso   1.000  C
  C68      1.0000 0.17941  0.82059  0.91040  Biso   1.000  C
  C69      1.0000 0.23314  0.76686  0.94310  Biso   1.000  C
  N1       1.0000 0.23314  0.76686  0.05690  Biso   1.000  N
  C70      1.0000 0.57720  0.42280  0.64640  Biso   1.000  C
  C71      1.0000 0.62559  0.37441  0.72780  Biso   1.000  C
  C72      1.0000 0.71702  0.28298  0.87080  Biso   1.000  C
  C73      1.0000 0.82059  0.17941  0.91040  Biso   1.000  C
  C74      1.0000 0.76686  0.23314  0.94310  Biso   1.000  C
  N2       1.0000 0.76686  0.23314  0.05690  Biso   1.000  N
  C75      1.0000 0.92280  0.92280  0.14640  Biso   1.000  C
  C76      1.0000 0.87441  0.87441  0.22780  Biso   1.000  C
  C77      1.0000 0.78298  0.78298  0.37080  Biso   1.000  C
  C78      1.0000 0.67941  0.67941  0.41040  Biso   1.000  C
  C79      1.0000 0.73314  0.73314  0.44310  Biso   1.000  C
  N3       1.0000 0.73314  0.73314  0.55690  Biso   1.000  N
  C80      1.0000 0.07720  0.07720  0.14640  Biso   1.000  C
  C81      1.0000 0.12559  0.12559  0.22780  Biso   1.000  C
  C82      1.0000 0.21702  0.21702  0.37080  Biso   1.000  C
  C83      1.0000 0.32059  0.32059  0.41040  Biso   1.000  C
  C84      1.0000 0.26686  0.26686  0.44310  Biso   1.000  C
  N4       1.0000 0.26686  0.26686  0.55690  Biso   1.000  N
  C85      1.0000 0.07720  0.07720  0.85360  Biso   1.000  C
  C86      1.0000 0.12559  0.12559  0.77220  Biso   1.000  C
  C87      1.0000 0.21702  0.21702  0.62920  Biso   1.000  C
  C88      1.0000 0.32059  0.32059  0.58960  Biso   1.000  C
  C89      1.0000 0.92280  0.92280  0.85360  Biso   1.000  C
  C90      1.0000 0.87441  0.87441  0.77220  Biso   1.000  C
  C91      1.0000 0.78298  0.78298  0.62920  Biso   1.000  C
  C92      1.0000 0.67941  0.67941  0.58960  Biso   1.000  C
  C93      1.0000 0.57720  0.42280  0.35360  Biso   1.000  C
  C94      1.0000 0.62559  0.37441  0.27220  Biso   1.000  C
  C95      1.0000 0.71702  0.28298  0.12920  Biso   1.000  C
  C96      1.0000 0.82059  0.17941  0.08960  Biso   1.000  C
  C97      1.0000 0.42280  0.57720  0.35360  Biso   1.000  C
  C98      1.0000 0.37441  0.62559  0.27220  Biso   1.000  C
  C99      1.0000 0.28298  0.71702  0.12920  Biso   1.000  C
  C100     1.0000 0.17941  0.82059  0.08960  Biso   1.000  C
  Cu1      1.0000 0.44377  0.44377  0.50000  Biso   1.000  Cu
  Cu2      1.0000 0.55623  0.55623  0.50000  Biso   1.000  Cu
  Cu3      1.0000 0.05623  0.94377  0.00000  Biso   1.000  Cu
  Cu4      1.0000 0.94377  0.05623  0.00000  Biso   1.000  Cu
  N5       1.0000 0.14670  0.85330  0.00000  Biso   1.000  N
  N6       1.0000 0.85330  0.14670  0.00000  Biso   1.000  N
  N7       1.0000 0.64670  0.64670  0.50000  Biso   1.000  N
  N8       1.0000 0.35330  0.35330  0.50000  Biso   1.000  N
