data_image0
_cell_length_a       15.439
_cell_length_b       10.758
_cell_length_c       28.81
_cell_angle_alpha    90
_cell_angle_beta     90.73
_cell_angle_gamma    90

_symmetry_space_group_name_H-M    "P 1"
_symmetry_int_tables_number       1

loop_
  _symmetry_equiv_pos_as_xyz
  'x, y, z'

loop_
  _atom_site_label
  _atom_site_occupancy
  _atom_site_fract_x
  _atom_site_fract_y
  _atom_site_fract_z
  _atom_site_thermal_displace_type
  _atom_site_B_iso_or_equiv
  _atom_site_type_symbol
  C1       1.0000 0.50280  0.27200  0.47150  Biso   1.000  C
  H1       1.0000 0.46710  0.34140  0.46920  Biso   1.000  H
  C2       1.0000 0.46860  0.16610  0.48760  Biso   1.000  C
  H2       1.0000 0.41100  0.16420  0.49680  Biso   1.000  H
  C3       1.0000 0.51850  0.05980  0.49070  Biso   1.000  C
  C4       1.0000 0.60280  0.07030  0.47720  Biso   1.000  C
  H3       1.0000 0.63910  0.00130  0.47870  Biso   1.000  H
  C5       1.0000 0.63390  0.17980  0.46190  Biso   1.000  C
  H4       1.0000 0.69160  0.18380  0.45310  Biso   1.000  H
  C6       1.0000 0.52450  0.63670  0.42020  Biso   1.000  C
  C7       1.0000 0.50000  0.75980  0.40000  Biso   1.000  C
  C8       1.0000 0.55850  0.82790  0.37470  Biso   1.000  C
  H5       1.0000 0.61310  0.79510  0.36900  Biso   1.000  H
  C9       1.0000 0.53730  0.94360  0.35770  Biso   1.000  C
  C10      1.0000 0.45760  0.99390  0.36730  Biso   1.000  C
  H6       1.0000 0.44400  0.07380  0.35720  Biso   1.000  H
  C11      1.0000 0.39730  0.92560  0.39190  Biso   1.000  C
  C12      1.0000 0.41820  0.80680  0.40740  Biso   1.000  C
  H7       1.0000 0.37710  0.75910  0.42260  Biso   1.000  H
  C13      1.0000 0.67370  0.03200  0.33650  Biso   1.000  C
  C14      1.0000 0.71930  0.10630  0.30170  Biso   1.000  C
  C15      1.0000 0.79400  0.16600  0.31740  Biso   1.000  C
  H8       1.0000 0.81150  0.15840  0.34830  Biso   1.000  H
  C16      1.0000 0.84240  0.23700  0.28690  Biso   1.000  C
  H9       1.0000 0.89240  0.27700  0.29740  Biso   1.000  H
  C17      1.0000 0.81620  0.24800  0.24080  Biso   1.000  C
  H10      1.0000 0.84870  0.29590  0.22040  Biso   1.000  H
  C18      1.0000 0.74160  0.18870  0.22510  Biso   1.000  C
  H11      1.0000 0.72400  0.19620  0.19420  Biso   1.000  H
  C19      1.0000 0.69310  0.11760  0.25560  Biso   1.000  C
  H12      1.0000 0.64320  0.07760  0.24510  Biso   1.000  H
  N1       1.0000 0.58540  0.28350  0.45860  Biso   1.000  N
  N2       1.0000 0.59830  0.01240  0.33130  Biso   1.000  N
  C20      1.0000 0.31030  0.97930  0.40440  Biso   1.000  C
  O1       1.0000 0.25750  0.90610  0.42009  Biso   1.000  O
  O2       1.0000 0.60500  0.61590  0.42260  Biso   1.000  O
  O3       1.0000 0.47030  0.56470  0.43300  Biso   1.000  O
  O4       1.0000 0.71170  0.98670  0.36960  Biso   1.000  O
  O5       1.0000 0.29940  0.09180  0.39650  Biso   1.000  O
  Zn1      1.0000 0.63857  0.44552  0.43449  Biso   1.000  Zn
  O6       1.0000 0.53450  0.05510  0.26830  Biso   1.000  O
  C21      1.0000 0.60100  0.05790  0.29180  Biso   1.000  C
  C22      1.0000 0.68100  0.12160  0.27430  Biso   1.000  C
  C23      1.0000 0.69090  0.13290  0.22660  Biso   1.000  C
  H13      1.0000 0.64970  0.09910  0.20640  Biso   1.000  H
  C24      1.0000 0.76240  0.19500  0.20900  Biso   1.000  C
  H14      1.0000 0.76900  0.20220  0.17710  Biso   1.000  H
  C25      1.0000 0.82400  0.24500  0.23910  Biso   1.000  C
  H15      1.0000 0.87190  0.28650  0.22740  Biso   1.000  H
  C26      1.0000 0.81410  0.23400  0.28680  Biso   1.000  C
  H16      1.0000 0.85540  0.26770  0.30700  Biso   1.000  H
  C27      1.0000 0.74260  0.17210  0.30440  Biso   1.000  C
  H17      1.0000 0.73600  0.16460  0.33630  Biso   1.000  H
  H18      1.0000 0.57640  0.04720  0.30620  Biso   1.000  H
  H19      1.0000 0.64490  0.02830  0.34660  Biso   1.000  H
  C28      1.0000 0.00280  0.77200  0.47150  Biso   1.000  C
  H20      1.0000 0.96710  0.84140  0.46920  Biso   1.000  H
  C29      1.0000 0.96860  0.66610  0.48760  Biso   1.000  C
  H21      1.0000 0.91100  0.66420  0.49680  Biso   1.000  H
  C30      1.0000 0.01850  0.55980  0.49070  Biso   1.000  C
  C31      1.0000 0.10280  0.57030  0.47720  Biso   1.000  C
  H22      1.0000 0.13910  0.50130  0.47870  Biso   1.000  H
  C32      1.0000 0.13390  0.67980  0.46190  Biso   1.000  C
  H23      1.0000 0.19160  0.68380  0.45310  Biso   1.000  H
  C33      1.0000 0.02450  0.13670  0.42020  Biso   1.000  C
  C34      1.0000 0.00000  0.25980  0.40000  Biso   1.000  C
  C35      1.0000 0.05850  0.32790  0.37470  Biso   1.000  C
  H24      1.0000 0.11310  0.29510  0.36900  Biso   1.000  H
  C36      1.0000 0.03730  0.44360  0.35770  Biso   1.000  C
  C37      1.0000 0.95760  0.49390  0.36730  Biso   1.000  C
  H25      1.0000 0.94400  0.57380  0.35720  Biso   1.000  H
  C38      1.0000 0.89730  0.42560  0.39190  Biso   1.000  C
  C39      1.0000 0.91820  0.30680  0.40740  Biso   1.000  C
  H26      1.0000 0.87710  0.25910  0.42260  Biso   1.000  H
  C40      1.0000 0.17370  0.53200  0.33650  Biso   1.000  C
  C41      1.0000 0.21930  0.60630  0.30170  Biso   1.000  C
  C42      1.0000 0.29400  0.66600  0.31740  Biso   1.000  C
  H27      1.0000 0.31150  0.65840  0.34830  Biso   1.000  H
  C43      1.0000 0.34240  0.73700  0.28690  Biso   1.000  C
  H28      1.0000 0.39240  0.77700  0.29740  Biso   1.000  H
  C44      1.0000 0.31620  0.74800  0.24080  Biso   1.000  C
  H29      1.0000 0.34870  0.79590  0.22040  Biso   1.000  H
  C45      1.0000 0.24160  0.68870  0.22510  Biso   1.000  C
  H30      1.0000 0.22400  0.69620  0.19420  Biso   1.000  H
  C46      1.0000 0.19310  0.61760  0.25560  Biso   1.000  C
  H31      1.0000 0.14320  0.57760  0.24510  Biso   1.000  H
  N3       1.0000 0.08540  0.78350  0.45860  Biso   1.000  N
  N4       1.0000 0.09830  0.51240  0.33130  Biso   1.000  N
  C47      1.0000 0.81030  0.47930  0.40440  Biso   1.000  C
  O7       1.0000 0.75750  0.40610  0.42009  Biso   1.000  O
  O8       1.0000 0.10500  0.11590  0.42260  Biso   1.000  O
  O9       1.0000 0.97030  0.06470  0.43300  Biso   1.000  O
  O10      1.0000 0.21170  0.48670  0.36960  Biso   1.000  O
  O11      1.0000 0.79940  0.59180  0.39650  Biso   1.000  O
  Zn2      1.0000 0.13857  0.94552  0.43449  Biso   1.000  Zn
  O12      1.0000 0.03450  0.55510  0.26830  Biso   1.000  O
  C48      1.0000 0.10100  0.55790  0.29180  Biso   1.000  C
  C49      1.0000 0.18100  0.62160  0.27430  Biso   1.000  C
  C50      1.0000 0.19090  0.63290  0.22660  Biso   1.000  C
  H32      1.0000 0.14970  0.59910  0.20640  Biso   1.000  H
  C51      1.0000 0.26240  0.69500  0.20900  Biso   1.000  C
  H33      1.0000 0.26900  0.70220  0.17710  Biso   1.000  H
  C52      1.0000 0.32400  0.74500  0.23910  Biso   1.000  C
  H34      1.0000 0.37190  0.78650  0.22740  Biso   1.000  H
  C53      1.0000 0.31410  0.73400  0.28680  Biso   1.000  C
  H35      1.0000 0.35540  0.76770  0.30700  Biso   1.000  H
  C54      1.0000 0.24260  0.67210  0.30440  Biso   1.000  C
  H36      1.0000 0.23600  0.66460  0.33630  Biso   1.000  H
  H37      1.0000 0.07640  0.54720  0.30620  Biso   1.000  H
  H38      1.0000 0.14490  0.52830  0.34660  Biso   1.000  H
  C55      1.0000 0.49720  0.27200  0.02850  Biso   1.000  C
  H39      1.0000 0.53290  0.34140  0.03080  Biso   1.000  H
  C56      1.0000 0.53140  0.16610  0.01240  Biso   1.000  C
  H40      1.0000 0.58900  0.16420  0.00320  Biso   1.000  H
  C57      1.0000 0.48150  0.05980  0.00930  Biso   1.000  C
  C58      1.0000 0.39720  0.07030  0.02280  Biso   1.000  C
  H41      1.0000 0.36090  0.00130  0.02130  Biso   1.000  H
  C59      1.0000 0.36610  0.17980  0.03810  Biso   1.000  C
  H42      1.0000 0.30840  0.18380  0.04690  Biso   1.000  H
  C60      1.0000 0.47550  0.63670  0.07980  Biso   1.000  C
  C61      1.0000 0.50000  0.75980  0.10000  Biso   1.000  C
  C62      1.0000 0.44150  0.82790  0.12530  Biso   1.000  C
  H43      1.0000 0.38690  0.79510  0.13100  Biso   1.000  H
  C63      1.0000 0.46270  0.94360  0.14230  Biso   1.000  C
  C64      1.0000 0.54240  0.99390  0.13270  Biso   1.000  C
  H44      1.0000 0.55600  0.07380  0.14280  Biso   1.000  H
  C65      1.0000 0.60270  0.92560  0.10810  Biso   1.000  C
  C66      1.0000 0.58180  0.80680  0.09260  Biso   1.000  C
  H45      1.0000 0.62290  0.75910  0.07740  Biso   1.000  H
  C67      1.0000 0.32630  0.03200  0.16350  Biso   1.000  C
  C68      1.0000 0.28070  0.10630  0.19830  Biso   1.000  C
  C69      1.0000 0.20600  0.16600  0.18260  Biso   1.000  C
  H46      1.0000 0.18850  0.15840  0.15170  Biso   1.000  H
  C70      1.0000 0.15760  0.23700  0.21310  Biso   1.000  C
  H47      1.0000 0.10760  0.27700  0.20260  Biso   1.000  H
  C71      1.0000 0.18380  0.24800  0.25920  Biso   1.000  C
  H48      1.0000 0.15130  0.29590  0.27960  Biso   1.000  H
  C72      1.0000 0.25840  0.18870  0.27490  Biso   1.000  C
  H49      1.0000 0.27600  0.19620  0.30580  Biso   1.000  H
  C73      1.0000 0.30690  0.11760  0.24440  Biso   1.000  C
  H50      1.0000 0.35680  0.07760  0.25490  Biso   1.000  H
  N5       1.0000 0.41460  0.28350  0.04140  Biso   1.000  N
  N6       1.0000 0.40170  0.01240  0.16870  Biso   1.000  N
  C74      1.0000 0.68970  0.97930  0.09560  Biso   1.000  C
  O13      1.0000 0.74250  0.90610  0.07991  Biso   1.000  O
  O14      1.0000 0.39500  0.61590  0.07740  Biso   1.000  O
  O15      1.0000 0.52970  0.56470  0.06700  Biso   1.000  O
  O16      1.0000 0.28830  0.98670  0.13040  Biso   1.000  O
  O17      1.0000 0.70060  0.09180  0.10350  Biso   1.000  O
  Zn3      1.0000 0.36143  0.44552  0.06551  Biso   1.000  Zn
  O18      1.0000 0.46550  0.05510  0.23170  Biso   1.000  O
  C75      1.0000 0.39900  0.05790  0.20820  Biso   1.000  C
  C76      1.0000 0.31900  0.12160  0.22570  Biso   1.000  C
  C77      1.0000 0.30910  0.13290  0.27340  Biso   1.000  C
  H51      1.0000 0.35030  0.09910  0.29360  Biso   1.000  H
  C78      1.0000 0.23760  0.19500  0.29100  Biso   1.000  C
  H52      1.0000 0.23100  0.20220  0.32290  Biso   1.000  H
  C79      1.0000 0.17600  0.24500  0.26090  Biso   1.000  C
  H53      1.0000 0.12810  0.28650  0.27260  Biso   1.000  H
  C80      1.0000 0.18590  0.23400  0.21320  Biso   1.000  C
  H54      1.0000 0.14460  0.26770  0.19300  Biso   1.000  H
  C81      1.0000 0.25740  0.17210  0.19560  Biso   1.000  C
  H55      1.0000 0.26400  0.16460  0.16370  Biso   1.000  H
  H56      1.0000 0.42360  0.04720  0.19380  Biso   1.000  H
  H57      1.0000 0.35510  0.02830  0.15340  Biso   1.000  H
  C82      1.0000 0.99720  0.77200  0.02850  Biso   1.000  C
  H58      1.0000 0.03290  0.84140  0.03080  Biso   1.000  H
  C83      1.0000 0.03140  0.66610  0.01240  Biso   1.000  C
  H59      1.0000 0.08900  0.66420  0.00320  Biso   1.000  H
  C84      1.0000 0.98150  0.55980  0.00930  Biso   1.000  C
  C85      1.0000 0.89720  0.57030  0.02280  Biso   1.000  C
  H60      1.0000 0.86090  0.50130  0.02130  Biso   1.000  H
  C86      1.0000 0.86610  0.67980  0.03810  Biso   1.000  C
  H61      1.0000 0.80840  0.68380  0.04690  Biso   1.000  H
  C87      1.0000 0.97550  0.13670  0.07980  Biso   1.000  C
  C88      1.0000 0.00000  0.25980  0.10000  Biso   1.000  C
  C89      1.0000 0.94150  0.32790  0.12530  Biso   1.000  C
  H62      1.0000 0.88690  0.29510  0.13100  Biso   1.000  H
  C90      1.0000 0.96270  0.44360  0.14230  Biso   1.000  C
  C91      1.0000 0.04240  0.49390  0.13270  Biso   1.000  C
  H63      1.0000 0.05600  0.57380  0.14280  Biso   1.000  H
  C92      1.0000 0.10270  0.42560  0.10810  Biso   1.000  C
  C93      1.0000 0.08180  0.30680  0.09260  Biso   1.000  C
  H64      1.0000 0.12290  0.25910  0.07740  Biso   1.000  H
  C94      1.0000 0.82630  0.53200  0.16350  Biso   1.000  C
  C95      1.0000 0.78070  0.60630  0.19830  Biso   1.000  C
  C96      1.0000 0.70600  0.66600  0.18260  Biso   1.000  C
  H65      1.0000 0.68850  0.65840  0.15170  Biso   1.000  H
  C97      1.0000 0.65760  0.73700  0.21310  Biso   1.000  C
  H66      1.0000 0.60760  0.77700  0.20260  Biso   1.000  H
  C98      1.0000 0.68380  0.74800  0.25920  Biso   1.000  C
  H67      1.0000 0.65130  0.79590  0.27960  Biso   1.000  H
  C99      1.0000 0.75840  0.68870  0.27490  Biso   1.000  C
  H68      1.0000 0.77600  0.69620  0.30580  Biso   1.000  H
  C100     1.0000 0.80690  0.61760  0.24440  Biso   1.000  C
  H69      1.0000 0.85680  0.57760  0.25490  Biso   1.000  H
  N7       1.0000 0.91460  0.78350  0.04140  Biso   1.000  N
  N8       1.0000 0.90170  0.51240  0.16870  Biso   1.000  N
  C101     1.0000 0.18970  0.47930  0.09560  Biso   1.000  C
  O19      1.0000 0.24250  0.40610  0.07991  Biso   1.000  O
  O20      1.0000 0.89500  0.11590  0.07740  Biso   1.000  O
  O21      1.0000 0.02970  0.06470  0.06700  Biso   1.000  O
  O22      1.0000 0.78830  0.48670  0.13040  Biso   1.000  O
  O23      1.0000 0.20060  0.59180  0.10350  Biso   1.000  O
  Zn4      1.0000 0.86143  0.94552  0.06551  Biso   1.000  Zn
  O24      1.0000 0.96550  0.55510  0.23170  Biso   1.000  O
  C102     1.0000 0.89900  0.55790  0.20820  Biso   1.000  C
  C103     1.0000 0.81900  0.62160  0.22570  Biso   1.000  C
  C104     1.0000 0.80910  0.63290  0.27340  Biso   1.000  C
  H70      1.0000 0.85030  0.59910  0.29360  Biso   1.000  H
  C105     1.0000 0.73760  0.69500  0.29100  Biso   1.000  C
  H71      1.0000 0.73100  0.70220  0.32290  Biso   1.000  H
  C106     1.0000 0.67600  0.74500  0.26090  Biso   1.000  C
  H72      1.0000 0.62810  0.78650  0.27260  Biso   1.000  H
  C107     1.0000 0.68590  0.73400  0.21320  Biso   1.000  C
  H73      1.0000 0.64460  0.76770  0.19300  Biso   1.000  H
  C108     1.0000 0.75740  0.67210  0.19560  Biso   1.000  C
  H74      1.0000 0.76400  0.66460  0.16370  Biso   1.000  H
  H75      1.0000 0.92360  0.54720  0.19380  Biso   1.000  H
  H76      1.0000 0.85510  0.52830  0.15340  Biso   1.000  H
  C109     1.0000 0.49720  0.72800  0.52850  Biso   1.000  C
  H77      1.0000 0.53290  0.65860  0.53080  Biso   1.000  H
  C110     1.0000 0.53140  0.83390  0.51240  Biso   1.000  C
  H78      1.0000 0.58900  0.83580  0.50320  Biso   1.000  H
  C111     1.0000 0.48150  0.94020  0.50930  Biso   1.000  C
  C112     1.0000 0.39720  0.92970  0.52280  Biso   1.000  C
  H79      1.0000 0.36090  0.99870  0.52130  Biso   1.000  H
  C113     1.0000 0.36610  0.82020  0.53810  Biso   1.000  C
  H80      1.0000 0.30840  0.81620  0.54690  Biso   1.000  H
  C114     1.0000 0.47550  0.36330  0.57980  Biso   1.000  C
  C115     1.0000 0.50000  0.24020  0.60000  Biso   1.000  C
  C116     1.0000 0.44150  0.17210  0.62530  Biso   1.000  C
  H81      1.0000 0.38690  0.20490  0.63100  Biso   1.000  H
  C117     1.0000 0.46270  0.05640  0.64230  Biso   1.000  C
  C118     1.0000 0.54240  0.00610  0.63270  Biso   1.000  C
  H82      1.0000 0.55600  0.92620  0.64280  Biso   1.000  H
  C119     1.0000 0.60270  0.07440  0.60810  Biso   1.000  C
  C120     1.0000 0.58180  0.19320  0.59260  Biso   1.000  C
  H83      1.0000 0.62290  0.24090  0.57740  Biso   1.000  H
  C121     1.0000 0.32630  0.96800  0.66350  Biso   1.000  C
  C122     1.0000 0.28070  0.89370  0.69830  Biso   1.000  C
  C123     1.0000 0.20600  0.83400  0.68260  Biso   1.000  C
  H84      1.0000 0.18850  0.84160  0.65170  Biso   1.000  H
  C124     1.0000 0.15760  0.76300  0.71310  Biso   1.000  C
  H85      1.0000 0.10760  0.72300  0.70260  Biso   1.000  H
  C125     1.0000 0.18380  0.75200  0.75920  Biso   1.000  C
  H86      1.0000 0.15130  0.70410  0.77960  Biso   1.000  H
  C126     1.0000 0.25840  0.81130  0.77490  Biso   1.000  C
  H87      1.0000 0.27600  0.80380  0.80580  Biso   1.000  H
  C127     1.0000 0.30690  0.88240  0.74440  Biso   1.000  C
  H88      1.0000 0.35680  0.92240  0.75490  Biso   1.000  H
  N9       1.0000 0.41460  0.71650  0.54140  Biso   1.000  N
  N10      1.0000 0.40170  0.98760  0.66870  Biso   1.000  N
  C128     1.0000 0.68970  0.02070  0.59560  Biso   1.000  C
  O25      1.0000 0.74250  0.09390  0.57991  Biso   1.000  O
  O26      1.0000 0.39500  0.38410  0.57740  Biso   1.000  O
  O27      1.0000 0.52970  0.43530  0.56700  Biso   1.000  O
  O28      1.0000 0.28830  0.01330  0.63040  Biso   1.000  O
  O29      1.0000 0.70060  0.90820  0.60350  Biso   1.000  O
  Zn5      1.0000 0.36143  0.55448  0.56551  Biso   1.000  Zn
  O30      1.0000 0.46550  0.94490  0.73170  Biso   1.000  O
  C129     1.0000 0.39900  0.94210  0.70820  Biso   1.000  C
  C130     1.0000 0.31900  0.87840  0.72570  Biso   1.000  C
  C131     1.0000 0.30910  0.86710  0.77340  Biso   1.000  C
  H89      1.0000 0.35030  0.90090  0.79360  Biso   1.000  H
  C132     1.0000 0.23760  0.80500  0.79100  Biso   1.000  C
  H90      1.0000 0.23100  0.79780  0.82290  Biso   1.000  H
  C133     1.0000 0.17600  0.75500  0.76090  Biso   1.000  C
  H91      1.0000 0.12810  0.71350  0.77260  Biso   1.000  H
  C134     1.0000 0.18590  0.76600  0.71320  Biso   1.000  C
  H92      1.0000 0.14460  0.73230  0.69300  Biso   1.000  H
  C135     1.0000 0.25740  0.82790  0.69560  Biso   1.000  C
  H93      1.0000 0.26400  0.83540  0.66370  Biso   1.000  H
  H94      1.0000 0.42360  0.95280  0.69380  Biso   1.000  H
  H95      1.0000 0.35510  0.97170  0.65340  Biso   1.000  H
  C136     1.0000 0.99720  0.22800  0.52850  Biso   1.000  C
  H96      1.0000 0.03290  0.15860  0.53080  Biso   1.000  H
  C137     1.0000 0.03140  0.33390  0.51240  Biso   1.000  C
  H97      1.0000 0.08900  0.33580  0.50320  Biso   1.000  H
  C138     1.0000 0.98150  0.44020  0.50930  Biso   1.000  C
  C139     1.0000 0.89720  0.42970  0.52280  Biso   1.000  C
  H98      1.0000 0.86090  0.49870  0.52130  Biso   1.000  H
  C140     1.0000 0.86610  0.32020  0.53810  Biso   1.000  C
  H99      1.0000 0.80840  0.31620  0.54690  Biso   1.000  H
  C141     1.0000 0.97550  0.86330  0.57980  Biso   1.000  C
  C142     1.0000 0.00000  0.74020  0.60000  Biso   1.000  C
  C143     1.0000 0.94150  0.67210  0.62530  Biso   1.000  C
  H100     1.0000 0.88690  0.70490  0.63100  Biso   1.000  H
  C144     1.0000 0.96270  0.55640  0.64230  Biso   1.000  C
  C145     1.0000 0.04240  0.50610  0.63270  Biso   1.000  C
  H101     1.0000 0.05600  0.42620  0.64280  Biso   1.000  H
  C146     1.0000 0.10270  0.57440  0.60810  Biso   1.000  C
  C147     1.0000 0.08180  0.69320  0.59260  Biso   1.000  C
  H102     1.0000 0.12290  0.74090  0.57740  Biso   1.000  H
  C148     1.0000 0.82630  0.46800  0.66350  Biso   1.000  C
  C149     1.0000 0.78070  0.39370  0.69830  Biso   1.000  C
  C150     1.0000 0.70600  0.33400  0.68260  Biso   1.000  C
  H103     1.0000 0.68850  0.34160  0.65170  Biso   1.000  H
  C151     1.0000 0.65760  0.26300  0.71310  Biso   1.000  C
  H104     1.0000 0.60760  0.22300  0.70260  Biso   1.000  H
  C152     1.0000 0.68380  0.25200  0.75920  Biso   1.000  C
  H105     1.0000 0.65130  0.20410  0.77960  Biso   1.000  H
  C153     1.0000 0.75840  0.31130  0.77490  Biso   1.000  C
  H106     1.0000 0.77600  0.30380  0.80580  Biso   1.000  H
  C154     1.0000 0.80690  0.38240  0.74440  Biso   1.000  C
  H107     1.0000 0.85680  0.42240  0.75490  Biso   1.000  H
  N11      1.0000 0.91460  0.21650  0.54140  Biso   1.000  N
  N12      1.0000 0.90170  0.48760  0.66870  Biso   1.000  N
  C155     1.0000 0.18970  0.52070  0.59560  Biso   1.000  C
  O31      1.0000 0.24250  0.59390  0.57991  Biso   1.000  O
  O32      1.0000 0.89500  0.88410  0.57740  Biso   1.000  O
  O33      1.0000 0.02970  0.93530  0.56700  Biso   1.000  O
  O34      1.0000 0.78830  0.51330  0.63040  Biso   1.000  O
  O35      1.0000 0.20060  0.40820  0.60350  Biso   1.000  O
  Zn6      1.0000 0.86143  0.05448  0.56551  Biso   1.000  Zn
  O36      1.0000 0.96550  0.44490  0.73170  Biso   1.000  O
  C156     1.0000 0.89900  0.44210  0.70820  Biso   1.000  C
  C157     1.0000 0.81900  0.37840  0.72570  Biso   1.000  C
  C158     1.0000 0.80910  0.36710  0.77340  Biso   1.000  C
  H108     1.0000 0.85030  0.40090  0.79360  Biso   1.000  H
  C159     1.0000 0.73760  0.30500  0.79100  Biso   1.000  C
  H109     1.0000 0.73100  0.29780  0.82290  Biso   1.000  H
  C160     1.0000 0.67600  0.25500  0.76090  Biso   1.000  C
  H110     1.0000 0.62810  0.21350  0.77260  Biso   1.000  H
  C161     1.0000 0.68590  0.26600  0.71320  Biso   1.000  C
  H111     1.0000 0.64460  0.23230  0.69300  Biso   1.000  H
  C162     1.0000 0.75740  0.32790  0.69560  Biso   1.000  C
  H112     1.0000 0.76400  0.33540  0.66370  Biso   1.000  H
  H113     1.0000 0.92360  0.45280  0.69380  Biso   1.000  H
  H114     1.0000 0.85510  0.47170  0.65340  Biso   1.000  H
  C163     1.0000 0.50280  0.72800  0.97150  Biso   1.000  C
  H115     1.0000 0.46710  0.65860  0.96920  Biso   1.000  H
  C164     1.0000 0.46860  0.83390  0.98760  Biso   1.000  C
  H116     1.0000 0.41100  0.83580  0.99680  Biso   1.000  H
  C165     1.0000 0.51850  0.94020  0.99070  Biso   1.000  C
  C166     1.0000 0.60280  0.92970  0.97720  Biso   1.000  C
  H117     1.0000 0.63910  0.99870  0.97870  Biso   1.000  H
  C167     1.0000 0.63390  0.82020  0.96190  Biso   1.000  C
  H118     1.0000 0.69160  0.81620  0.95310  Biso   1.000  H
  C168     1.0000 0.52450  0.36330  0.92020  Biso   1.000  C
  C169     1.0000 0.50000  0.24020  0.90000  Biso   1.000  C
  C170     1.0000 0.55850  0.17210  0.87470  Biso   1.000  C
  H119     1.0000 0.61310  0.20490  0.86900  Biso   1.000  H
  C171     1.0000 0.53730  0.05640  0.85770  Biso   1.000  C
  C172     1.0000 0.45760  0.00610  0.86730  Biso   1.000  C
  H120     1.0000 0.44400  0.92620  0.85720  Biso   1.000  H
  C173     1.0000 0.39730  0.07440  0.89190  Biso   1.000  C
  C174     1.0000 0.41820  0.19320  0.90740  Biso   1.000  C
  H121     1.0000 0.37710  0.24090  0.92260  Biso   1.000  H
  C175     1.0000 0.67370  0.96800  0.83650  Biso   1.000  C
  C176     1.0000 0.71930  0.89370  0.80170  Biso   1.000  C
  C177     1.0000 0.79400  0.83400  0.81740  Biso   1.000  C
  H122     1.0000 0.81150  0.84160  0.84830  Biso   1.000  H
  C178     1.0000 0.84240  0.76300  0.78690  Biso   1.000  C
  H123     1.0000 0.89240  0.72300  0.79740  Biso   1.000  H
  C179     1.0000 0.81620  0.75200  0.74080  Biso   1.000  C
  H124     1.0000 0.84870  0.70410  0.72040  Biso   1.000  H
  C180     1.0000 0.74160  0.81130  0.72510  Biso   1.000  C
  H125     1.0000 0.72400  0.80380  0.69420  Biso   1.000  H
  C181     1.0000 0.69310  0.88240  0.75560  Biso   1.000  C
  H126     1.0000 0.64320  0.92240  0.74510  Biso   1.000  H
  N13      1.0000 0.58540  0.71650  0.95860  Biso   1.000  N
  N14      1.0000 0.59830  0.98760  0.83130  Biso   1.000  N
  C182     1.0000 0.31030  0.02070  0.90440  Biso   1.000  C
  O37      1.0000 0.25750  0.09390  0.92009  Biso   1.000  O
  O38      1.0000 0.60500  0.38410  0.92260  Biso   1.000  O
  O39      1.0000 0.47030  0.43530  0.93300  Biso   1.000  O
  O40      1.0000 0.71170  0.01330  0.86960  Biso   1.000  O
  O41      1.0000 0.29940  0.90820  0.89650  Biso   1.000  O
  Zn7      1.0000 0.63857  0.55448  0.93449  Biso   1.000  Zn
  O42      1.0000 0.53450  0.94490  0.76830  Biso   1.000  O
  C183     1.0000 0.60100  0.94210  0.79180  Biso   1.000  C
  C184     1.0000 0.68100  0.87840  0.77430  Biso   1.000  C
  C185     1.0000 0.69090  0.86710  0.72660  Biso   1.000  C
  H127     1.0000 0.64970  0.90090  0.70640  Biso   1.000  H
  C186     1.0000 0.76240  0.80500  0.70900  Biso   1.000  C
  H128     1.0000 0.76900  0.79780  0.67710  Biso   1.000  H
  C187     1.0000 0.82400  0.75500  0.73910  Biso   1.000  C
  H129     1.0000 0.87190  0.71350  0.72740  Biso   1.000  H
  C188     1.0000 0.81410  0.76600  0.78680  Biso   1.000  C
  H130     1.0000 0.85540  0.73230  0.80700  Biso   1.000  H
  C189     1.0000 0.74260  0.82790  0.80440  Biso   1.000  C
  H131     1.0000 0.73600  0.83540  0.83630  Biso   1.000  H
  H132     1.0000 0.57640  0.95280  0.80620  Biso   1.000  H
  H133     1.0000 0.64490  0.97170  0.84660  Biso   1.000  H
  C190     1.0000 0.00280  0.22800  0.97150  Biso   1.000  C
  H134     1.0000 0.96710  0.15860  0.96920  Biso   1.000  H
  C191     1.0000 0.96860  0.33390  0.98760  Biso   1.000  C
  H135     1.0000 0.91100  0.33580  0.99680  Biso   1.000  H
  C192     1.0000 0.01850  0.44020  0.99070  Biso   1.000  C
  C193     1.0000 0.10280  0.42970  0.97720  Biso   1.000  C
  H136     1.0000 0.13910  0.49870  0.97870  Biso   1.000  H
  C194     1.0000 0.13390  0.32020  0.96190  Biso   1.000  C
  H137     1.0000 0.19160  0.31620  0.95310  Biso   1.000  H
  C195     1.0000 0.02450  0.86330  0.92020  Biso   1.000  C
  C196     1.0000 0.00000  0.74020  0.90000  Biso   1.000  C
  C197     1.0000 0.05850  0.67210  0.87470  Biso   1.000  C
  H138     1.0000 0.11310  0.70490  0.86900  Biso   1.000  H
  C198     1.0000 0.03730  0.55640  0.85770  Biso   1.000  C
  C199     1.0000 0.95760  0.50610  0.86730  Biso   1.000  C
  H139     1.0000 0.94400  0.42620  0.85720  Biso   1.000  H
  C200     1.0000 0.89730  0.57440  0.89190  Biso   1.000  C
  C201     1.0000 0.91820  0.69320  0.90740  Biso   1.000  C
  H140     1.0000 0.87710  0.74090  0.92260  Biso   1.000  H
  C202     1.0000 0.17370  0.46800  0.83650  Biso   1.000  C
  C203     1.0000 0.21930  0.39370  0.80170  Biso   1.000  C
  C204     1.0000 0.29400  0.33400  0.81740  Biso   1.000  C
  H141     1.0000 0.31150  0.34160  0.84830  Biso   1.000  H
  C205     1.0000 0.34240  0.26300  0.78690  Biso   1.000  C
  H142     1.0000 0.39240  0.22300  0.79740  Biso   1.000  H
  C206     1.0000 0.31620  0.25200  0.74080  Biso   1.000  C
  H143     1.0000 0.34870  0.20410  0.72040  Biso   1.000  H
  C207     1.0000 0.24160  0.31130  0.72510  Biso   1.000  C
  H144     1.0000 0.22400  0.30380  0.69420  Biso   1.000  H
  C208     1.0000 0.19310  0.38240  0.75560  Biso   1.000  C
  H145     1.0000 0.14320  0.42240  0.74510  Biso   1.000  H
  N15      1.0000 0.08540  0.21650  0.95860  Biso   1.000  N
  N16      1.0000 0.09830  0.48760  0.83130  Biso   1.000  N
  C209     1.0000 0.81030  0.52070  0.90440  Biso   1.000  C
  O43      1.0000 0.75750  0.59390  0.92009  Biso   1.000  O
  O44      1.0000 0.10500  0.88410  0.92260  Biso   1.000  O
  O45      1.0000 0.97030  0.93530  0.93300  Biso   1.000  O
  O46      1.0000 0.21170  0.51330  0.86960  Biso   1.000  O
  O47      1.0000 0.79940  0.40820  0.89650  Biso   1.000  O
  Zn8      1.0000 0.13857  0.05448  0.93449  Biso   1.000  Zn
  O48      1.0000 0.03450  0.44490  0.76830  Biso   1.000  O
  C210     1.0000 0.10100  0.44210  0.79180  Biso   1.000  C
  C211     1.0000 0.18100  0.37840  0.77430  Biso   1.000  C
  C212     1.0000 0.19090  0.36710  0.72660  Biso   1.000  C
  H146     1.0000 0.14970  0.40090  0.70640  Biso   1.000  H
  C213     1.0000 0.26240  0.30500  0.70900  Biso   1.000  C
  H147     1.0000 0.26900  0.29780  0.67710  Biso   1.000  H
  C214     1.0000 0.32400  0.25500  0.73910  Biso   1.000  C
  H148     1.0000 0.37190  0.21350  0.72740  Biso   1.000  H
  C215     1.0000 0.31410  0.26600  0.78680  Biso   1.000  C
  H149     1.0000 0.35540  0.23230  0.80700  Biso   1.000  H
  C216     1.0000 0.24260  0.32790  0.80440  Biso   1.000  C
  H150     1.0000 0.23600  0.33540  0.83630  Biso   1.000  H
  H151     1.0000 0.07640  0.45280  0.80620  Biso   1.000  H
  H152     1.0000 0.14490  0.47170  0.84660  Biso   1.000  H
