data_image0
_cell_length_a       11.1148
_cell_length_b       15.6485
_cell_length_c       18.8376
_cell_angle_alpha    90
_cell_angle_beta     92.647
_cell_angle_gamma    90

_symmetry_space_group_name_H-M    "P 1"
_symmetry_int_tables_number       1

loop_
  _symmetry_equiv_pos_as_xyz
  'x, y, z'

loop_
  _atom_site_label
  _atom_site_occupancy
  _atom_site_fract_x
  _atom_site_fract_y
  _atom_site_fract_z
  _atom_site_thermal_displace_type
  _atom_site_B_iso_or_equiv
  _atom_site_type_symbol
  U1       1.0000 0.74068  0.26440  0.23751  Biso   1.000  U
  U2       1.0000 0.48825  0.21445  0.08908  Biso   1.000  U
  U3       1.0000 0.17037  0.22407  0.94513  Biso   1.000  U
  U4       1.0000 0.98968  0.30583  0.38733  Biso   1.000  U
  U5       1.0000 0.81212  0.23033  0.03102  Biso   1.000  U
  U6       1.0000 0.13787  0.51651  0.17973  Biso   1.000  U
  Co1      1.0000 0.86120  0.00500  0.06050  Biso   1.000  Co
  P1       1.0000 0.01420  0.29640  0.18831  Biso   1.000  P
  P2       1.0000 0.46330  0.23510  0.28432  Biso   1.000  P
  O1       1.0000 0.08620  0.37430  0.17280  Biso   1.000  O
  O2       1.0000 0.90410  0.28460  0.13800  Biso   1.000  O
  O3       1.0000 0.95820  0.29480  0.26160  Biso   1.000  O
  O4       1.0000 0.29020  0.24370  0.12930  Biso   1.000  O
  O5       1.0000 0.15040  0.17230  0.06690  Biso   1.000  O
  O6       1.0000 0.38500  0.15790  0.29100  Biso   1.000  O
  O7       1.0000 0.57340  0.23690  0.33600  Biso   1.000  O
  O8       1.0000 0.52000  0.24570  0.21160  Biso   1.000  O
  O9       1.0000 0.33110  0.34110  0.41600  Biso   1.000  O
  O10      1.0000 0.18660  0.29100  0.34350  Biso   1.000  O
  O11      1.0000 0.11330  0.11700  0.93140  Biso   1.000  O
  O12      1.0000 0.87130  0.12810  0.05800  Biso   1.000  O
  O13      1.0000 0.79200  0.29590  0.35200  Biso   1.000  O
  O14      1.0000 0.68660  0.22620  0.12390  Biso   1.000  O
  O15      1.0000 0.36660  0.17670  0.98760  Biso   1.000  O
  O16      1.0000 0.61400  0.17360  0.99240  Biso   1.000  O
  O17      1.0000 0.98940  0.27820  0.98520  Biso   1.000  O
  O18      1.0000 0.90500  0.99460  0.95170  Biso   1.000  O
  O19      1.0000 0.04500  0.00850  0.09200  Biso   1.000  O
  C1       1.0000 0.11110  0.20300  0.18680  Biso   1.000  C
  H1       1.0000 0.16250  0.20070  0.23110  Biso   1.000  H
  H2       1.0000 0.06120  0.15060  0.18410  Biso   1.000  H
  C2       1.0000 0.19070  0.20710  0.12240  Biso   1.000  C
  C3       1.0000 0.37100  0.33040  0.29440  Biso   1.000  C
  H3       1.0000 0.42400  0.38060  0.30300  Biso   1.000  H
  H4       1.0000 0.32230  0.34060  0.24990  Biso   1.000  H
  C4       1.0000 0.28780  0.32120  0.35570  Biso   1.000  C
  U7       1.0000 0.75932  0.76440  0.26249  Biso   1.000  U
  U8       1.0000 0.01175  0.71445  0.41092  Biso   1.000  U
  U9       1.0000 0.32963  0.72407  0.55487  Biso   1.000  U
  U10      1.0000 0.51032  0.80583  0.11267  Biso   1.000  U
  U11      1.0000 0.68788  0.73033  0.46898  Biso   1.000  U
  U12      1.0000 0.36213  0.01651  0.32027  Biso   1.000  U
  Co2      1.0000 0.63880  0.50500  0.43950  Biso   1.000  Co
  P3       1.0000 0.48580  0.79640  0.31169  Biso   1.000  P
  P4       1.0000 0.03670  0.73510  0.21568  Biso   1.000  P
  O20      1.0000 0.41380  0.87430  0.32720  Biso   1.000  O
  O21      1.0000 0.59590  0.78460  0.36200  Biso   1.000  O
  O22      1.0000 0.54180  0.79480  0.23840  Biso   1.000  O
  O23      1.0000 0.20980  0.74370  0.37070  Biso   1.000  O
  O24      1.0000 0.34960  0.67230  0.43310  Biso   1.000  O
  O25      1.0000 0.11500  0.65790  0.20900  Biso   1.000  O
  O26      1.0000 0.92660  0.73690  0.16400  Biso   1.000  O
  O27      1.0000 0.98000  0.74570  0.28840  Biso   1.000  O
  O28      1.0000 0.16890  0.84110  0.08400  Biso   1.000  O
  O29      1.0000 0.31340  0.79100  0.15650  Biso   1.000  O
  O30      1.0000 0.38670  0.61700  0.56860  Biso   1.000  O
  O31      1.0000 0.62870  0.62810  0.44200  Biso   1.000  O
  O32      1.0000 0.70800  0.79590  0.14800  Biso   1.000  O
  O33      1.0000 0.81340  0.72620  0.37610  Biso   1.000  O
  O34      1.0000 0.13340  0.67670  0.51240  Biso   1.000  O
  O35      1.0000 0.88600  0.67360  0.50760  Biso   1.000  O
  O36      1.0000 0.51060  0.77820  0.51480  Biso   1.000  O
  O37      1.0000 0.59500  0.49460  0.54830  Biso   1.000  O
  O38      1.0000 0.45500  0.50850  0.40800  Biso   1.000  O
  C5       1.0000 0.38890  0.70300  0.31320  Biso   1.000  C
  H5       1.0000 0.33750  0.70070  0.26890  Biso   1.000  H
  H6       1.0000 0.43880  0.65060  0.31590  Biso   1.000  H
  C6       1.0000 0.30930  0.70710  0.37760  Biso   1.000  C
  C7       1.0000 0.12900  0.83040  0.20560  Biso   1.000  C
  H7       1.0000 0.07600  0.88060  0.19700  Biso   1.000  H
  H8       1.0000 0.17770  0.84060  0.25010  Biso   1.000  H
  C8       1.0000 0.21220  0.82120  0.14430  Biso   1.000  C
  U13      1.0000 0.25932  0.73560  0.76249  Biso   1.000  U
  U14      1.0000 0.51175  0.78555  0.91092  Biso   1.000  U
  U15      1.0000 0.82963  0.77593  0.05487  Biso   1.000  U
  U16      1.0000 0.01032  0.69417  0.61267  Biso   1.000  U
  U17      1.0000 0.18788  0.76967  0.96898  Biso   1.000  U
  U18      1.0000 0.86213  0.48349  0.82027  Biso   1.000  U
  Co3      1.0000 0.13880  0.99500  0.93950  Biso   1.000  Co
  P5       1.0000 0.98580  0.70360  0.81169  Biso   1.000  P
  P6       1.0000 0.53670  0.76490  0.71568  Biso   1.000  P
  O39      1.0000 0.91380  0.62570  0.82720  Biso   1.000  O
  O40      1.0000 0.09590  0.71540  0.86200  Biso   1.000  O
  O41      1.0000 0.04180  0.70520  0.73840  Biso   1.000  O
  O42      1.0000 0.70980  0.75630  0.87070  Biso   1.000  O
  O43      1.0000 0.84960  0.82770  0.93310  Biso   1.000  O
  O44      1.0000 0.61500  0.84210  0.70900  Biso   1.000  O
  O45      1.0000 0.42660  0.76310  0.66400  Biso   1.000  O
  O46      1.0000 0.48000  0.75430  0.78840  Biso   1.000  O
  O47      1.0000 0.66890  0.65890  0.58400  Biso   1.000  O
  O48      1.0000 0.81340  0.70900  0.65650  Biso   1.000  O
  O49      1.0000 0.88670  0.88300  0.06860  Biso   1.000  O
  O50      1.0000 0.12870  0.87190  0.94200  Biso   1.000  O
  O51      1.0000 0.20800  0.70410  0.64800  Biso   1.000  O
  O52      1.0000 0.31340  0.77380  0.87610  Biso   1.000  O
  O53      1.0000 0.63340  0.82330  0.01240  Biso   1.000  O
  O54      1.0000 0.38600  0.82640  0.00760  Biso   1.000  O
  O55      1.0000 0.01060  0.72180  0.01480  Biso   1.000  O
  O56      1.0000 0.09500  0.00540  0.04830  Biso   1.000  O
  O57      1.0000 0.95500  0.99150  0.90800  Biso   1.000  O
  C9       1.0000 0.88890  0.79700  0.81320  Biso   1.000  C
  H9       1.0000 0.83750  0.79930  0.76890  Biso   1.000  H
  H10      1.0000 0.93880  0.84940  0.81590  Biso   1.000  H
  C10      1.0000 0.80930  0.79290  0.87760  Biso   1.000  C
  C11      1.0000 0.62900  0.66960  0.70560  Biso   1.000  C
  H11      1.0000 0.57600  0.61940  0.69700  Biso   1.000  H
  H12      1.0000 0.67770  0.65940  0.75010  Biso   1.000  H
  C12      1.0000 0.71220  0.67880  0.64430  Biso   1.000  C
  U19      1.0000 0.24068  0.23560  0.73751  Biso   1.000  U
  U20      1.0000 0.98825  0.28555  0.58908  Biso   1.000  U
  U21      1.0000 0.67037  0.27593  0.44513  Biso   1.000  U
  U22      1.0000 0.48968  0.19417  0.88733  Biso   1.000  U
  U23      1.0000 0.31212  0.26967  0.53102  Biso   1.000  U
  U24      1.0000 0.63787  0.98349  0.67973  Biso   1.000  U
  Co4      1.0000 0.36120  0.49500  0.56050  Biso   1.000  Co
  P7       1.0000 0.51420  0.20360  0.68831  Biso   1.000  P
  P8       1.0000 0.96330  0.26490  0.78432  Biso   1.000  P
  O58      1.0000 0.58620  0.12570  0.67280  Biso   1.000  O
  O59      1.0000 0.40410  0.21540  0.63800  Biso   1.000  O
  O60      1.0000 0.45820  0.20520  0.76160  Biso   1.000  O
  O61      1.0000 0.79020  0.25630  0.62930  Biso   1.000  O
  O62      1.0000 0.65040  0.32770  0.56690  Biso   1.000  O
  O63      1.0000 0.88500  0.34210  0.79100  Biso   1.000  O
  O64      1.0000 0.07340  0.26310  0.83600  Biso   1.000  O
  O65      1.0000 0.02000  0.25430  0.71160  Biso   1.000  O
  O66      1.0000 0.83110  0.15890  0.91600  Biso   1.000  O
  O67      1.0000 0.68660  0.20900  0.84350  Biso   1.000  O
  O68      1.0000 0.61330  0.38300  0.43140  Biso   1.000  O
  O69      1.0000 0.37130  0.37190  0.55800  Biso   1.000  O
  O70      1.0000 0.29200  0.20410  0.85200  Biso   1.000  O
  O71      1.0000 0.18660  0.27380  0.62390  Biso   1.000  O
  O72      1.0000 0.86660  0.32330  0.48760  Biso   1.000  O
  O73      1.0000 0.11400  0.32640  0.49240  Biso   1.000  O
  O74      1.0000 0.48940  0.22180  0.48520  Biso   1.000  O
  O75      1.0000 0.40500  0.50540  0.45170  Biso   1.000  O
  O76      1.0000 0.54500  0.49150  0.59200  Biso   1.000  O
  C13      1.0000 0.61110  0.29700  0.68680  Biso   1.000  C
  H13      1.0000 0.66250  0.29930  0.73110  Biso   1.000  H
  H14      1.0000 0.56120  0.34940  0.68410  Biso   1.000  H
  C14      1.0000 0.69070  0.29290  0.62240  Biso   1.000  C
  C15      1.0000 0.87100  0.16960  0.79440  Biso   1.000  C
  H15      1.0000 0.92400  0.11940  0.80300  Biso   1.000  H
  H16      1.0000 0.82230  0.15940  0.74990  Biso   1.000  H
  C16      1.0000 0.78780  0.17880  0.85570  Biso   1.000  C
