data_image0
_cell_length_a       38.659
_cell_length_b       38.659
_cell_length_c       8.5638
_cell_angle_alpha    90
_cell_angle_beta     90
_cell_angle_gamma    120

_symmetry_space_group_name_H-M    "P 1"
_symmetry_int_tables_number       1

loop_
  _symmetry_equiv_pos_as_xyz
  'x, y, z'

loop_
  _atom_site_label
  _atom_site_occupancy
  _atom_site_fract_x
  _atom_site_fract_y
  _atom_site_fract_z
  _atom_site_thermal_displace_type
  _atom_site_B_iso_or_equiv
  _atom_site_type_symbol
  N1       1.0000 0.28370  0.96710  0.71900  Biso   1.000  N
  C1       1.0000 0.25050  0.93220  0.76100  Biso   1.000  C
  C2       1.0000 0.21490  0.90690  0.69400  Biso   1.000  C
  H1       1.0000 0.20820  0.91270  0.59410  Biso   1.000  H
  C3       1.0000 0.18890  0.87310  0.77150  Biso   1.000  C
  N2       1.0000 0.28390  0.96420  0.71900  Biso   1.000  N
  C4       1.0000 0.25460  0.92630  0.76300  Biso   1.000  C
  C5       1.0000 0.22010  0.90050  0.67700  Biso   1.000  C
  H2       1.0000 0.21400  0.90760  0.57890  Biso   1.000  H
  C6       1.0000 0.19610  0.86460  0.74700  Biso   1.000  C
  N3       1.0000 0.95037  0.30043  0.05233  Biso   1.000  N
  C7       1.0000 0.91717  0.26553  0.09433  Biso   1.000  C
  C8       1.0000 0.88157  0.24023  0.02733  Biso   1.000  C
  H3       1.0000 0.87487  0.24603  0.92743  Biso   1.000  H
  C9       1.0000 0.85557  0.20643  0.10483  Biso   1.000  C
  N4       1.0000 0.95057  0.29753  0.05233  Biso   1.000  N
  C10      1.0000 0.92127  0.25963  0.09633  Biso   1.000  C
  C11      1.0000 0.88677  0.23383  0.01033  Biso   1.000  C
  H4       1.0000 0.88067  0.24093  0.91223  Biso   1.000  H
  C12      1.0000 0.86277  0.19793  0.08033  Biso   1.000  C
  N5       1.0000 0.61703  0.63377  0.38567  Biso   1.000  N
  C13      1.0000 0.58383  0.59887  0.42767  Biso   1.000  C
  C14      1.0000 0.54823  0.57357  0.36067  Biso   1.000  C
  H5       1.0000 0.54153  0.57937  0.26077  Biso   1.000  H
  C15      1.0000 0.52223  0.53977  0.43817  Biso   1.000  C
  N6       1.0000 0.61723  0.63087  0.38567  Biso   1.000  N
  C16      1.0000 0.58793  0.59297  0.42967  Biso   1.000  C
  C17      1.0000 0.55343  0.56717  0.34367  Biso   1.000  C
  H6       1.0000 0.54733  0.57427  0.24557  Biso   1.000  H
  C18      1.0000 0.52943  0.53127  0.41367  Biso   1.000  C
  N7       1.0000 0.03290  0.31660  0.71900  Biso   1.000  N
  C19      1.0000 0.06780  0.31830  0.76100  Biso   1.000  C
  C20      1.0000 0.09310  0.30800  0.69400  Biso   1.000  C
  H7       1.0000 0.08730  0.29550  0.59410  Biso   1.000  H
  C21      1.0000 0.12690  0.31580  0.77150  Biso   1.000  C
  N8       1.0000 0.03580  0.31970  0.71900  Biso   1.000  N
  C22      1.0000 0.07370  0.32830  0.76300  Biso   1.000  C
  C23      1.0000 0.09950  0.31960  0.67700  Biso   1.000  C
  H8       1.0000 0.09240  0.30640  0.57890  Biso   1.000  H
  C24      1.0000 0.13540  0.33150  0.74700  Biso   1.000  C
  N9       1.0000 0.69957  0.64993  0.05233  Biso   1.000  N
  C25      1.0000 0.73447  0.65163  0.09433  Biso   1.000  C
  C26      1.0000 0.75977  0.64133  0.02733  Biso   1.000  C
  H9       1.0000 0.75397  0.62883  0.92743  Biso   1.000  H
  C27      1.0000 0.79357  0.64913  0.10483  Biso   1.000  C
  N10      1.0000 0.70247  0.65303  0.05233  Biso   1.000  N
  C28      1.0000 0.74037  0.66163  0.09633  Biso   1.000  C
  C29      1.0000 0.76617  0.65293  0.01033  Biso   1.000  C
  H10      1.0000 0.75907  0.63973  0.91223  Biso   1.000  H
  C30      1.0000 0.80207  0.66483  0.08033  Biso   1.000  C
  N11      1.0000 0.36623  0.98327  0.38567  Biso   1.000  N
  C31      1.0000 0.40113  0.98497  0.42767  Biso   1.000  C
  C32      1.0000 0.42643  0.97467  0.36067  Biso   1.000  C
  H11      1.0000 0.42063  0.96217  0.26077  Biso   1.000  H
  C33      1.0000 0.46023  0.98247  0.43817  Biso   1.000  C
  N12      1.0000 0.36913  0.98637  0.38567  Biso   1.000  N
  C34      1.0000 0.40703  0.99497  0.42967  Biso   1.000  C
  C35      1.0000 0.43283  0.98627  0.34367  Biso   1.000  C
  H12      1.0000 0.42573  0.97307  0.24557  Biso   1.000  H
  C36      1.0000 0.46873  0.99817  0.41367  Biso   1.000  C
  N13      1.0000 0.68340  0.71630  0.71900  Biso   1.000  N
  C37      1.0000 0.68170  0.74950  0.76100  Biso   1.000  C
  C38      1.0000 0.69200  0.78510  0.69400  Biso   1.000  C
  H13      1.0000 0.70450  0.79180  0.59410  Biso   1.000  H
  C39      1.0000 0.68420  0.81110  0.77150  Biso   1.000  C
  N14      1.0000 0.68030  0.71610  0.71900  Biso   1.000  N
  C40      1.0000 0.67170  0.74540  0.76300  Biso   1.000  C
  C41      1.0000 0.68040  0.77990  0.67700  Biso   1.000  C
  H14      1.0000 0.69360  0.78600  0.57890  Biso   1.000  H
  C42      1.0000 0.66850  0.80390  0.74700  Biso   1.000  C
  N15      1.0000 0.35007  0.04963  0.05233  Biso   1.000  N
  C43      1.0000 0.34837  0.08283  0.09433  Biso   1.000  C
  C44      1.0000 0.35867  0.11843  0.02733  Biso   1.000  C
  H15      1.0000 0.37117  0.12513  0.92743  Biso   1.000  H
  C45      1.0000 0.35087  0.14443  0.10483  Biso   1.000  C
  N16      1.0000 0.34697  0.04943  0.05233  Biso   1.000  N
  C46      1.0000 0.33837  0.07873  0.09633  Biso   1.000  C
  C47      1.0000 0.34707  0.11323  0.01033  Biso   1.000  C
  H16      1.0000 0.36027  0.11933  0.91223  Biso   1.000  H
  C48      1.0000 0.33517  0.13723  0.08033  Biso   1.000  C
  N17      1.0000 0.01673  0.38297  0.38567  Biso   1.000  N
  C49      1.0000 0.01503  0.41617  0.42767  Biso   1.000  C
  C50      1.0000 0.02533  0.45177  0.36067  Biso   1.000  C
  H17      1.0000 0.03783  0.45847  0.26077  Biso   1.000  H
  C51      1.0000 0.01753  0.47777  0.43817  Biso   1.000  C
  N18      1.0000 0.01363  0.38277  0.38567  Biso   1.000  N
  C52      1.0000 0.00503  0.41207  0.42967  Biso   1.000  C
  C53      1.0000 0.01373  0.44657  0.34367  Biso   1.000  C
  H18      1.0000 0.02693  0.45267  0.24557  Biso   1.000  H
  C54      1.0000 0.00183  0.47057  0.41367  Biso   1.000  C
  N19      1.0000 0.96710  0.28370  0.28100  Biso   1.000  N
  C55      1.0000 0.93220  0.25050  0.23900  Biso   1.000  C
  C56      1.0000 0.90690  0.21490  0.30600  Biso   1.000  C
  H19      1.0000 0.91270  0.20820  0.40590  Biso   1.000  H
  C57      1.0000 0.87310  0.18890  0.22850  Biso   1.000  C
  N20      1.0000 0.96420  0.28390  0.28100  Biso   1.000  N
  C58      1.0000 0.92630  0.25460  0.23700  Biso   1.000  C
  C59      1.0000 0.90050  0.22010  0.32300  Biso   1.000  C
  H20      1.0000 0.90760  0.21400  0.42110  Biso   1.000  H
  C60      1.0000 0.86460  0.19610  0.25300  Biso   1.000  C
  N21      1.0000 0.63377  0.61703  0.61433  Biso   1.000  N
  C61      1.0000 0.59887  0.58383  0.57233  Biso   1.000  C
  C62      1.0000 0.57357  0.54823  0.63933  Biso   1.000  C
  H21      1.0000 0.57937  0.54153  0.73923  Biso   1.000  H
  C63      1.0000 0.53977  0.52223  0.56183  Biso   1.000  C
  N22      1.0000 0.63087  0.61723  0.61433  Biso   1.000  N
  C64      1.0000 0.59297  0.58793  0.57033  Biso   1.000  C
  C65      1.0000 0.56717  0.55343  0.65633  Biso   1.000  C
  H22      1.0000 0.57427  0.54733  0.75443  Biso   1.000  H
  C66      1.0000 0.53127  0.52943  0.58633  Biso   1.000  C
  N23      1.0000 0.30043  0.95037  0.94767  Biso   1.000  N
  C67      1.0000 0.26553  0.91717  0.90567  Biso   1.000  C
  C68      1.0000 0.24023  0.88157  0.97267  Biso   1.000  C
  H23      1.0000 0.24603  0.87487  0.07257  Biso   1.000  H
  C69      1.0000 0.20643  0.85557  0.89517  Biso   1.000  C
  N24      1.0000 0.29753  0.95057  0.94767  Biso   1.000  N
  C70      1.0000 0.25963  0.92127  0.90367  Biso   1.000  C
  C71      1.0000 0.23383  0.88677  0.98967  Biso   1.000  C
  H24      1.0000 0.24093  0.88067  0.08777  Biso   1.000  H
  C72      1.0000 0.19793  0.86277  0.91967  Biso   1.000  C
  N25      1.0000 0.31660  0.03290  0.28100  Biso   1.000  N
  C73      1.0000 0.31830  0.06780  0.23900  Biso   1.000  C
  C74      1.0000 0.30800  0.09310  0.30600  Biso   1.000  C
  H25      1.0000 0.29550  0.08730  0.40590  Biso   1.000  H
  C75      1.0000 0.31580  0.12690  0.22850  Biso   1.000  C
  N26      1.0000 0.31970  0.03580  0.28100  Biso   1.000  N
  C76      1.0000 0.32830  0.07370  0.23700  Biso   1.000  C
  C77      1.0000 0.31960  0.09950  0.32300  Biso   1.000  C
  H26      1.0000 0.30640  0.09240  0.42110  Biso   1.000  H
  C78      1.0000 0.33150  0.13540  0.25300  Biso   1.000  C
  N27      1.0000 0.98327  0.36623  0.61433  Biso   1.000  N
  C79      1.0000 0.98497  0.40113  0.57233  Biso   1.000  C
  C80      1.0000 0.97467  0.42643  0.63933  Biso   1.000  C
  H27      1.0000 0.96217  0.42063  0.73923  Biso   1.000  H
  C81      1.0000 0.98247  0.46023  0.56183  Biso   1.000  C
  N28      1.0000 0.98637  0.36913  0.61433  Biso   1.000  N
  C82      1.0000 0.99497  0.40703  0.57033  Biso   1.000  C
  C83      1.0000 0.98627  0.43283  0.65633  Biso   1.000  C
  H28      1.0000 0.97307  0.42573  0.75443  Biso   1.000  H
  C84      1.0000 0.99817  0.46873  0.58633  Biso   1.000  C
  N29      1.0000 0.64993  0.69957  0.94767  Biso   1.000  N
  C85      1.0000 0.65163  0.73447  0.90567  Biso   1.000  C
  C86      1.0000 0.64133  0.75977  0.97267  Biso   1.000  C
  H29      1.0000 0.62883  0.75397  0.07257  Biso   1.000  H
  C87      1.0000 0.64913  0.79357  0.89517  Biso   1.000  C
  N30      1.0000 0.65303  0.70247  0.94767  Biso   1.000  N
  C88      1.0000 0.66163  0.74037  0.90367  Biso   1.000  C
  C89      1.0000 0.65293  0.76617  0.98967  Biso   1.000  C
  H30      1.0000 0.63973  0.75907  0.08777  Biso   1.000  H
  C90      1.0000 0.66483  0.80207  0.91967  Biso   1.000  C
  N31      1.0000 0.71630  0.68340  0.28100  Biso   1.000  N
  C91      1.0000 0.74950  0.68170  0.23900  Biso   1.000  C
  C92      1.0000 0.78510  0.69200  0.30600  Biso   1.000  C
  H31      1.0000 0.79180  0.70450  0.40590  Biso   1.000  H
  C93      1.0000 0.81110  0.68420  0.22850  Biso   1.000  C
  N32      1.0000 0.71610  0.68030  0.28100  Biso   1.000  N
  C94      1.0000 0.74540  0.67170  0.23700  Biso   1.000  C
  C95      1.0000 0.77990  0.68040  0.32300  Biso   1.000  C
  H32      1.0000 0.78600  0.69360  0.42110  Biso   1.000  H
  C96      1.0000 0.80390  0.66850  0.25300  Biso   1.000  C
  N33      1.0000 0.38297  0.01673  0.61433  Biso   1.000  N
  C97      1.0000 0.41617  0.01503  0.57233  Biso   1.000  C
  C98      1.0000 0.45177  0.02533  0.63933  Biso   1.000  C
  H33      1.0000 0.45847  0.03783  0.73923  Biso   1.000  H
  C99      1.0000 0.47777  0.01753  0.56183  Biso   1.000  C
  N34      1.0000 0.38277  0.01363  0.61433  Biso   1.000  N
  C100     1.0000 0.41207  0.00503  0.57033  Biso   1.000  C
  C101     1.0000 0.44657  0.01373  0.65633  Biso   1.000  C
  H34      1.0000 0.45267  0.02693  0.75443  Biso   1.000  H
  C102     1.0000 0.47057  0.00183  0.58633  Biso   1.000  C
  N35      1.0000 0.04963  0.35007  0.94767  Biso   1.000  N
  C103     1.0000 0.08283  0.34837  0.90567  Biso   1.000  C
  C104     1.0000 0.11843  0.35867  0.97267  Biso   1.000  C
  H35      1.0000 0.12513  0.37117  0.07257  Biso   1.000  H
  C105     1.0000 0.14443  0.35087  0.89517  Biso   1.000  C
  N36      1.0000 0.04943  0.34697  0.94767  Biso   1.000  N
  C106     1.0000 0.07873  0.33837  0.90367  Biso   1.000  C
  C107     1.0000 0.11323  0.34707  0.98967  Biso   1.000  C
  H36      1.0000 0.11933  0.36027  0.08777  Biso   1.000  H
  C108     1.0000 0.13723  0.33517  0.91967  Biso   1.000  C
  N37      1.0000 0.71630  0.03290  0.28100  Biso   1.000  N
  C109     1.0000 0.74950  0.06780  0.23900  Biso   1.000  C
  C110     1.0000 0.78510  0.09310  0.30600  Biso   1.000  C
  H37      1.0000 0.79180  0.08730  0.40590  Biso   1.000  H
  C111     1.0000 0.81110  0.12690  0.22850  Biso   1.000  C
  N38      1.0000 0.71610  0.03580  0.28100  Biso   1.000  N
  C112     1.0000 0.74540  0.07370  0.23700  Biso   1.000  C
  C113     1.0000 0.77990  0.09950  0.32300  Biso   1.000  C
  H38      1.0000 0.78600  0.09240  0.42110  Biso   1.000  H
  C114     1.0000 0.80390  0.13540  0.25300  Biso   1.000  C
  N39      1.0000 0.38297  0.36623  0.61433  Biso   1.000  N
  C115     1.0000 0.41617  0.40113  0.57233  Biso   1.000  C
  C116     1.0000 0.45177  0.42643  0.63933  Biso   1.000  C
  H39      1.0000 0.45847  0.42063  0.73923  Biso   1.000  H
  C117     1.0000 0.47777  0.46023  0.56183  Biso   1.000  C
  N40      1.0000 0.38277  0.36913  0.61433  Biso   1.000  N
  C118     1.0000 0.41207  0.40703  0.57033  Biso   1.000  C
  C119     1.0000 0.44657  0.43283  0.65633  Biso   1.000  C
  H40      1.0000 0.45267  0.42573  0.75443  Biso   1.000  H
  C120     1.0000 0.47057  0.46873  0.58633  Biso   1.000  C
  N41      1.0000 0.04963  0.69957  0.94767  Biso   1.000  N
  C121     1.0000 0.08283  0.73447  0.90567  Biso   1.000  C
  C122     1.0000 0.11843  0.75977  0.97267  Biso   1.000  C
  H41      1.0000 0.12513  0.75397  0.07257  Biso   1.000  H
  C123     1.0000 0.14443  0.79357  0.89517  Biso   1.000  C
  N42      1.0000 0.04943  0.70247  0.94767  Biso   1.000  N
  C124     1.0000 0.07873  0.74037  0.90367  Biso   1.000  C
  C125     1.0000 0.11323  0.76617  0.98967  Biso   1.000  C
  H42      1.0000 0.11933  0.75907  0.08777  Biso   1.000  H
  C126     1.0000 0.13723  0.80207  0.91967  Biso   1.000  C
  N43      1.0000 0.96710  0.68340  0.28100  Biso   1.000  N
  C127     1.0000 0.93220  0.68170  0.23900  Biso   1.000  C
  C128     1.0000 0.90690  0.69200  0.30600  Biso   1.000  C
  H43      1.0000 0.91270  0.70450  0.40590  Biso   1.000  H
  C129     1.0000 0.87310  0.68420  0.22850  Biso   1.000  C
  N44      1.0000 0.96420  0.68030  0.28100  Biso   1.000  N
  C130     1.0000 0.92630  0.67170  0.23700  Biso   1.000  C
  C131     1.0000 0.90050  0.68040  0.32300  Biso   1.000  C
  H44      1.0000 0.90760  0.69360  0.42110  Biso   1.000  H
  C132     1.0000 0.86460  0.66850  0.25300  Biso   1.000  C
  N45      1.0000 0.63377  0.01673  0.61433  Biso   1.000  N
  C133     1.0000 0.59887  0.01503  0.57233  Biso   1.000  C
  C134     1.0000 0.57357  0.02533  0.63933  Biso   1.000  C
  H45      1.0000 0.57937  0.03783  0.73923  Biso   1.000  H
  C135     1.0000 0.53977  0.01753  0.56183  Biso   1.000  C
  N46      1.0000 0.63087  0.01363  0.61433  Biso   1.000  N
  C136     1.0000 0.59297  0.00503  0.57033  Biso   1.000  C
  C137     1.0000 0.56717  0.01373  0.65633  Biso   1.000  C
  H46      1.0000 0.57427  0.02693  0.75443  Biso   1.000  H
  C138     1.0000 0.53127  0.00183  0.58633  Biso   1.000  C
  N47      1.0000 0.30043  0.35007  0.94767  Biso   1.000  N
  C139     1.0000 0.26553  0.34837  0.90567  Biso   1.000  C
  C140     1.0000 0.24023  0.35867  0.97267  Biso   1.000  C
  H47      1.0000 0.24603  0.37117  0.07257  Biso   1.000  H
  C141     1.0000 0.20643  0.35087  0.89517  Biso   1.000  C
  N48      1.0000 0.29753  0.34697  0.94767  Biso   1.000  N
  C142     1.0000 0.25963  0.33837  0.90367  Biso   1.000  C
  C143     1.0000 0.23383  0.34707  0.98967  Biso   1.000  C
  H48      1.0000 0.24093  0.36027  0.08777  Biso   1.000  H
  C144     1.0000 0.19793  0.33517  0.91967  Biso   1.000  C
  N49      1.0000 0.31660  0.28370  0.28100  Biso   1.000  N
  C145     1.0000 0.31830  0.25050  0.23900  Biso   1.000  C
  C146     1.0000 0.30800  0.21490  0.30600  Biso   1.000  C
  H49      1.0000 0.29550  0.20820  0.40590  Biso   1.000  H
  C147     1.0000 0.31580  0.18890  0.22850  Biso   1.000  C
  N50      1.0000 0.31970  0.28390  0.28100  Biso   1.000  N
  C148     1.0000 0.32830  0.25460  0.23700  Biso   1.000  C
  C149     1.0000 0.31960  0.22010  0.32300  Biso   1.000  C
  H50      1.0000 0.30640  0.21400  0.42110  Biso   1.000  H
  C150     1.0000 0.33150  0.19610  0.25300  Biso   1.000  C
  N51      1.0000 0.98327  0.61703  0.61433  Biso   1.000  N
  C151     1.0000 0.98497  0.58383  0.57233  Biso   1.000  C
  C152     1.0000 0.97467  0.54823  0.63933  Biso   1.000  C
  H51      1.0000 0.96217  0.54153  0.73923  Biso   1.000  H
  C153     1.0000 0.98247  0.52223  0.56183  Biso   1.000  C
  N52      1.0000 0.98637  0.61723  0.61433  Biso   1.000  N
  C154     1.0000 0.99497  0.58793  0.57033  Biso   1.000  C
  C155     1.0000 0.98627  0.55343  0.65633  Biso   1.000  C
  H52      1.0000 0.97307  0.54733  0.75443  Biso   1.000  H
  C156     1.0000 0.99817  0.52943  0.58633  Biso   1.000  C
  N53      1.0000 0.64993  0.95037  0.94767  Biso   1.000  N
  C157     1.0000 0.65163  0.91717  0.90567  Biso   1.000  C
  C158     1.0000 0.64133  0.88157  0.97267  Biso   1.000  C
  H53      1.0000 0.62883  0.87487  0.07257  Biso   1.000  H
  C159     1.0000 0.64913  0.85557  0.89517  Biso   1.000  C
  N54      1.0000 0.65303  0.95057  0.94767  Biso   1.000  N
  C160     1.0000 0.66163  0.92127  0.90367  Biso   1.000  C
  C161     1.0000 0.65293  0.88677  0.98967  Biso   1.000  C
  H54      1.0000 0.63973  0.88067  0.08777  Biso   1.000  H
  C162     1.0000 0.66483  0.86277  0.91967  Biso   1.000  C
  N55      1.0000 0.03290  0.71630  0.71900  Biso   1.000  N
  C163     1.0000 0.06780  0.74950  0.76100  Biso   1.000  C
  C164     1.0000 0.09310  0.78510  0.69400  Biso   1.000  C
  H55      1.0000 0.08730  0.79180  0.59410  Biso   1.000  H
  C165     1.0000 0.12690  0.81110  0.77150  Biso   1.000  C
  N56      1.0000 0.03580  0.71610  0.71900  Biso   1.000  N
  C166     1.0000 0.07370  0.74540  0.76300  Biso   1.000  C
  C167     1.0000 0.09950  0.77990  0.67700  Biso   1.000  C
  H56      1.0000 0.09240  0.78600  0.57890  Biso   1.000  H
  C168     1.0000 0.13540  0.80390  0.74700  Biso   1.000  C
  N57      1.0000 0.69957  0.04963  0.05233  Biso   1.000  N
  C169     1.0000 0.73447  0.08283  0.09433  Biso   1.000  C
  C170     1.0000 0.75977  0.11843  0.02733  Biso   1.000  C
  H57      1.0000 0.75397  0.12513  0.92743  Biso   1.000  H
  C171     1.0000 0.79357  0.14443  0.10483  Biso   1.000  C
  N58      1.0000 0.70247  0.04943  0.05233  Biso   1.000  N
  C172     1.0000 0.74037  0.07873  0.09633  Biso   1.000  C
  C173     1.0000 0.76617  0.11323  0.01033  Biso   1.000  C
  H58      1.0000 0.75907  0.11933  0.91223  Biso   1.000  H
  C174     1.0000 0.80207  0.13723  0.08033  Biso   1.000  C
  N59      1.0000 0.36623  0.38297  0.38567  Biso   1.000  N
  C175     1.0000 0.40113  0.41617  0.42767  Biso   1.000  C
  C176     1.0000 0.42643  0.45177  0.36067  Biso   1.000  C
  H59      1.0000 0.42063  0.45847  0.26077  Biso   1.000  H
  C177     1.0000 0.46023  0.47777  0.43817  Biso   1.000  C
  N60      1.0000 0.36913  0.38277  0.38567  Biso   1.000  N
  C178     1.0000 0.40703  0.41207  0.42967  Biso   1.000  C
  C179     1.0000 0.43283  0.44657  0.34367  Biso   1.000  C
  H60      1.0000 0.42573  0.45267  0.24557  Biso   1.000  H
  C180     1.0000 0.46873  0.47057  0.41367  Biso   1.000  C
  N61      1.0000 0.68340  0.96710  0.71900  Biso   1.000  N
  C181     1.0000 0.68170  0.93220  0.76100  Biso   1.000  C
  C182     1.0000 0.69200  0.90690  0.69400  Biso   1.000  C
  H61      1.0000 0.70450  0.91270  0.59410  Biso   1.000  H
  C183     1.0000 0.68420  0.87310  0.77150  Biso   1.000  C
  N62      1.0000 0.68030  0.96420  0.71900  Biso   1.000  N
  C184     1.0000 0.67170  0.92630  0.76300  Biso   1.000  C
  C185     1.0000 0.68040  0.90050  0.67700  Biso   1.000  C
  H62      1.0000 0.69360  0.90760  0.57890  Biso   1.000  H
  C186     1.0000 0.66850  0.86460  0.74700  Biso   1.000  C
  N63      1.0000 0.35007  0.30043  0.05233  Biso   1.000  N
  C187     1.0000 0.34837  0.26553  0.09433  Biso   1.000  C
  C188     1.0000 0.35867  0.24023  0.02733  Biso   1.000  C
  H63      1.0000 0.37117  0.24603  0.92743  Biso   1.000  H
  C189     1.0000 0.35087  0.20643  0.10483  Biso   1.000  C
  N64      1.0000 0.34697  0.29753  0.05233  Biso   1.000  N
  C190     1.0000 0.33837  0.25963  0.09633  Biso   1.000  C
  C191     1.0000 0.34707  0.23383  0.01033  Biso   1.000  C
  H64      1.0000 0.36027  0.24093  0.91223  Biso   1.000  H
  C192     1.0000 0.33517  0.19793  0.08033  Biso   1.000  C
  N65      1.0000 0.01673  0.63377  0.38567  Biso   1.000  N
  C193     1.0000 0.01503  0.59887  0.42767  Biso   1.000  C
  C194     1.0000 0.02533  0.57357  0.36067  Biso   1.000  C
  H65      1.0000 0.03783  0.57937  0.26077  Biso   1.000  H
  C195     1.0000 0.01753  0.53977  0.43817  Biso   1.000  C
  N66      1.0000 0.01363  0.63087  0.38567  Biso   1.000  N
  C196     1.0000 0.00503  0.59297  0.42967  Biso   1.000  C
  C197     1.0000 0.01373  0.56717  0.34367  Biso   1.000  C
  H66      1.0000 0.02693  0.57427  0.24557  Biso   1.000  H
  C198     1.0000 0.00183  0.53127  0.41367  Biso   1.000  C
  N67      1.0000 0.28370  0.31660  0.71900  Biso   1.000  N
  C199     1.0000 0.25050  0.31830  0.76100  Biso   1.000  C
  C200     1.0000 0.21490  0.30800  0.69400  Biso   1.000  C
  H67      1.0000 0.20820  0.29550  0.59410  Biso   1.000  H
  C201     1.0000 0.18890  0.31580  0.77150  Biso   1.000  C
  N68      1.0000 0.28390  0.31970  0.71900  Biso   1.000  N
  C202     1.0000 0.25460  0.32830  0.76300  Biso   1.000  C
  C203     1.0000 0.22010  0.31960  0.67700  Biso   1.000  C
  H68      1.0000 0.21400  0.30640  0.57890  Biso   1.000  H
  C204     1.0000 0.19610  0.33150  0.74700  Biso   1.000  C
  N69      1.0000 0.95037  0.64993  0.05233  Biso   1.000  N
  C205     1.0000 0.91717  0.65163  0.09433  Biso   1.000  C
  C206     1.0000 0.88157  0.64133  0.02733  Biso   1.000  C
  H69      1.0000 0.87487  0.62883  0.92743  Biso   1.000  H
  C207     1.0000 0.85557  0.64913  0.10483  Biso   1.000  C
  N70      1.0000 0.95057  0.65303  0.05233  Biso   1.000  N
  C208     1.0000 0.92127  0.66163  0.09633  Biso   1.000  C
  C209     1.0000 0.88677  0.65293  0.01033  Biso   1.000  C
  H70      1.0000 0.88067  0.63973  0.91223  Biso   1.000  H
  C210     1.0000 0.86277  0.66483  0.08033  Biso   1.000  C
  N71      1.0000 0.61703  0.98327  0.38567  Biso   1.000  N
  C211     1.0000 0.58383  0.98497  0.42767  Biso   1.000  C
  C212     1.0000 0.54823  0.97467  0.36067  Biso   1.000  C
  H71      1.0000 0.54153  0.96217  0.26077  Biso   1.000  H
  C213     1.0000 0.52223  0.98247  0.43817  Biso   1.000  C
  N72      1.0000 0.61723  0.98637  0.38567  Biso   1.000  N
  C214     1.0000 0.58793  0.99497  0.42967  Biso   1.000  C
  C215     1.0000 0.55343  0.98627  0.34367  Biso   1.000  C
  H72      1.0000 0.54733  0.97307  0.24557  Biso   1.000  H
  C216     1.0000 0.52943  0.99817  0.41367  Biso   1.000  C
  Mn1      1.0000 0.36959  0.03626  0.83333  Biso   1.000  Mn
  N73      1.0000 0.31042  0.97709  0.83333  Biso   1.000  N
  Mn2      1.0000 0.96374  0.33333  0.83333  Biso   1.000  Mn
  N74      1.0000 0.02291  0.33333  0.83333  Biso   1.000  N
  Mn3      1.0000 0.66667  0.63041  0.83333  Biso   1.000  Mn
  N75      1.0000 0.66667  0.68958  0.83333  Biso   1.000  N
  Mn4      1.0000 0.03626  0.36959  0.16667  Biso   1.000  Mn
  N76      1.0000 0.97709  0.31042  0.16667  Biso   1.000  N
  Mn5      1.0000 0.70292  0.70292  0.50000  Biso   1.000  Mn
  N77      1.0000 0.64375  0.64375  0.50000  Biso   1.000  N
  Mn6      1.0000 0.33333  0.96374  0.16667  Biso   1.000  Mn
  N78      1.0000 0.33333  0.02291  0.16667  Biso   1.000  N
  Mn7      1.0000 0.00000  0.29708  0.50000  Biso   1.000  Mn
  N79      1.0000 0.00000  0.35625  0.50000  Biso   1.000  N
  Mn8      1.0000 0.63041  0.66667  0.16667  Biso   1.000  Mn
  N80      1.0000 0.68958  0.66667  0.16667  Biso   1.000  N
  Mn9      1.0000 0.29708  0.00000  0.50000  Biso   1.000  Mn
  N81      1.0000 0.35625  0.00000  0.50000  Biso   1.000  N
  Mn10     1.0000 0.63041  0.96374  0.16667  Biso   1.000  Mn
  N82      1.0000 0.68958  0.02291  0.16667  Biso   1.000  N
  Mn11     1.0000 0.29708  0.29708  0.50000  Biso   1.000  Mn
  N83      1.0000 0.35625  0.35625  0.50000  Biso   1.000  N
  Mn12     1.0000 0.03626  0.66667  0.16667  Biso   1.000  Mn
  N84      1.0000 0.97709  0.66667  0.16667  Biso   1.000  N
  Mn13     1.0000 0.70292  0.00000  0.50000  Biso   1.000  Mn
  N85      1.0000 0.64375  0.00000  0.50000  Biso   1.000  N
  Mn14     1.0000 0.33333  0.36959  0.16667  Biso   1.000  Mn
  N86      1.0000 0.33333  0.31042  0.16667  Biso   1.000  N
  Mn15     1.0000 0.00000  0.70292  0.50000  Biso   1.000  Mn
  N87      1.0000 0.00000  0.64375  0.50000  Biso   1.000  N
  Mn16     1.0000 0.96374  0.63041  0.83333  Biso   1.000  Mn
  N88      1.0000 0.02291  0.68958  0.83333  Biso   1.000  N
  Mn17     1.0000 0.66667  0.03626  0.83333  Biso   1.000  Mn
  N89      1.0000 0.66667  0.97709  0.83333  Biso   1.000  N
  Mn18     1.0000 0.36959  0.33333  0.83333  Biso   1.000  Mn
  N90      1.0000 0.31042  0.33333  0.83333  Biso   1.000  N
  Cl1      1.0000 0.39684  0.00000  0.00000  Biso   1.000  Cl
  Cl2      1.0000 0.06351  0.33333  0.33333  Biso   1.000  Cl
  Cl3      1.0000 0.73017  0.66667  0.66667  Biso   1.000  Cl
  Cl4      1.0000 0.00000  0.39684  0.00000  Biso   1.000  Cl
  Cl5      1.0000 0.66667  0.73017  0.33333  Biso   1.000  Cl
  Cl6      1.0000 0.33333  0.06351  0.66667  Biso   1.000  Cl
  Cl7      1.0000 0.60316  0.60316  0.00000  Biso   1.000  Cl
  Cl8      1.0000 0.26983  0.93649  0.33333  Biso   1.000  Cl
  Cl9      1.0000 0.93649  0.26983  0.66667  Biso   1.000  Cl
  Cl10     1.0000 0.60316  0.00000  0.00000  Biso   1.000  Cl
  Cl11     1.0000 0.26983  0.33333  0.33333  Biso   1.000  Cl
  Cl12     1.0000 0.93649  0.66667  0.66667  Biso   1.000  Cl
  Cl13     1.0000 0.00000  0.60316  0.00000  Biso   1.000  Cl
  Cl14     1.0000 0.66667  0.93649  0.33333  Biso   1.000  Cl
  Cl15     1.0000 0.33333  0.26983  0.66667  Biso   1.000  Cl
  Cl16     1.0000 0.39684  0.39684  0.00000  Biso   1.000  Cl
  Cl17     1.0000 0.06351  0.73017  0.33333  Biso   1.000  Cl
  Cl18     1.0000 0.73017  0.06351  0.66667  Biso   1.000  Cl
  O1       1.0000 0.15150  0.84850  0.70820  Biso   1.000  O
  O2       1.0000 0.16230  0.83770  0.66640  Biso   1.000  O
  O3       1.0000 0.81817  0.18183  0.04153  Biso   1.000  O
  O4       1.0000 0.82897  0.17103  0.99973  Biso   1.000  O
  O5       1.0000 0.48483  0.51517  0.37487  Biso   1.000  O
  O6       1.0000 0.49563  0.50437  0.33307  Biso   1.000  O
  O7       1.0000 0.15150  0.30300  0.70820  Biso   1.000  O
  O8       1.0000 0.16230  0.32460  0.66640  Biso   1.000  O
  O9       1.0000 0.81817  0.63633  0.04153  Biso   1.000  O
  O10      1.0000 0.82897  0.65793  0.99973  Biso   1.000  O
  O11      1.0000 0.48483  0.96967  0.37487  Biso   1.000  O
  O12      1.0000 0.49563  0.99127  0.33307  Biso   1.000  O
  O13      1.0000 0.69700  0.84850  0.70820  Biso   1.000  O
  O14      1.0000 0.67540  0.83770  0.66640  Biso   1.000  O
  O15      1.0000 0.36367  0.18183  0.04153  Biso   1.000  O
  O16      1.0000 0.34207  0.17103  0.99973  Biso   1.000  O
  O17      1.0000 0.03033  0.51517  0.37487  Biso   1.000  O
  O18      1.0000 0.00873  0.50437  0.33307  Biso   1.000  O
  O19      1.0000 0.84850  0.15150  0.29180  Biso   1.000  O
  O20      1.0000 0.83770  0.16230  0.33360  Biso   1.000  O
  O21      1.0000 0.51517  0.48483  0.62513  Biso   1.000  O
  O22      1.0000 0.50437  0.49563  0.66693  Biso   1.000  O
  O23      1.0000 0.18183  0.81817  0.95847  Biso   1.000  O
  O24      1.0000 0.17103  0.82897  0.00027  Biso   1.000  O
  O25      1.0000 0.30300  0.15150  0.29180  Biso   1.000  O
  O26      1.0000 0.32460  0.16230  0.33360  Biso   1.000  O
  O27      1.0000 0.96967  0.48483  0.62513  Biso   1.000  O
  O28      1.0000 0.99127  0.49563  0.66693  Biso   1.000  O
  O29      1.0000 0.63633  0.81817  0.95847  Biso   1.000  O
  O30      1.0000 0.65793  0.82897  0.00027  Biso   1.000  O
  O31      1.0000 0.84850  0.69700  0.29180  Biso   1.000  O
  O32      1.0000 0.83770  0.67540  0.33360  Biso   1.000  O
  O33      1.0000 0.51517  0.03033  0.62513  Biso   1.000  O
  O34      1.0000 0.50437  0.00873  0.66693  Biso   1.000  O
  O35      1.0000 0.18183  0.36367  0.95847  Biso   1.000  O
  O36      1.0000 0.17103  0.34207  0.00027  Biso   1.000  O
