data_image0
_cell_length_a       15.035
_cell_length_b       15.035
_cell_length_c       19.294
_cell_angle_alpha    90
_cell_angle_beta     90
_cell_angle_gamma    90

_symmetry_space_group_name_H-M    "P 1"
_symmetry_int_tables_number       1

loop_
  _symmetry_equiv_pos_as_xyz
  'x, y, z'

loop_
  _atom_site_label
  _atom_site_occupancy
  _atom_site_fract_x
  _atom_site_fract_y
  _atom_site_fract_z
  _atom_site_thermal_displace_type
  _atom_site_B_iso_or_equiv
  _atom_site_type_symbol
  O1       1.0000 0.05230  0.87790  0.05730  Biso   1.000  O
  C1       1.0000 0.16900  0.73420  0.06230  Biso   1.000  C
  O2       1.0000 0.14160  0.75720  0.12160  Biso   1.000  O
  H1       1.0000 0.10670  0.80050  0.11770  Biso   1.000  H
  C2       1.0000 0.02300  0.90930  0.20920  Biso   1.000  C
  C3       1.0000 0.92300  0.05100  0.20830  Biso   1.000  C
  O3       1.0000 0.55230  0.37790  0.55730  Biso   1.000  O
  C4       1.0000 0.66900  0.23420  0.56230  Biso   1.000  C
  O4       1.0000 0.64160  0.25720  0.62160  Biso   1.000  O
  H2       1.0000 0.60670  0.30050  0.61770  Biso   1.000  H
  C5       1.0000 0.52300  0.40930  0.70920  Biso   1.000  C
  C6       1.0000 0.42300  0.55100  0.70830  Biso   1.000  C
  O5       1.0000 0.94770  0.12210  0.05730  Biso   1.000  O
  C7       1.0000 0.83100  0.26580  0.06230  Biso   1.000  C
  O6       1.0000 0.85840  0.24280  0.12160  Biso   1.000  O
  H3       1.0000 0.89330  0.19950  0.11770  Biso   1.000  H
  C8       1.0000 0.97700  0.09070  0.20920  Biso   1.000  C
  C9       1.0000 0.07700  0.94900  0.20830  Biso   1.000  C
  O7       1.0000 0.44770  0.62210  0.55730  Biso   1.000  O
  C10      1.0000 0.33100  0.76580  0.56230  Biso   1.000  C
  O8       1.0000 0.35840  0.74280  0.62160  Biso   1.000  O
  H4       1.0000 0.39330  0.69950  0.61770  Biso   1.000  H
  C11      1.0000 0.47700  0.59070  0.70920  Biso   1.000  C
  C12      1.0000 0.57700  0.44900  0.70830  Biso   1.000  C
  O9       1.0000 0.12210  0.05230  0.05730  Biso   1.000  O
  C13      1.0000 0.26580  0.16900  0.06230  Biso   1.000  C
  O10      1.0000 0.24280  0.14160  0.12160  Biso   1.000  O
  H5       1.0000 0.19950  0.10670  0.11770  Biso   1.000  H
  C14      1.0000 0.09070  0.02300  0.20920  Biso   1.000  C
  C15      1.0000 0.94900  0.92300  0.20830  Biso   1.000  C
  O11      1.0000 0.62210  0.55230  0.55730  Biso   1.000  O
  C16      1.0000 0.76580  0.66900  0.56230  Biso   1.000  C
  O12      1.0000 0.74280  0.64160  0.62160  Biso   1.000  O
  H6       1.0000 0.69950  0.60670  0.61770  Biso   1.000  H
  C17      1.0000 0.59070  0.52300  0.70920  Biso   1.000  C
  C18      1.0000 0.44900  0.42300  0.70830  Biso   1.000  C
  O13      1.0000 0.87790  0.94770  0.05730  Biso   1.000  O
  C19      1.0000 0.73420  0.83100  0.06230  Biso   1.000  C
  O14      1.0000 0.75720  0.85840  0.12160  Biso   1.000  O
  H7       1.0000 0.80050  0.89330  0.11770  Biso   1.000  H
  C20      1.0000 0.90930  0.97700  0.20920  Biso   1.000  C
  C21      1.0000 0.05100  0.07700  0.20830  Biso   1.000  C
  O15      1.0000 0.37790  0.44770  0.55730  Biso   1.000  O
  C22      1.0000 0.23420  0.33100  0.56230  Biso   1.000  C
  O16      1.0000 0.25720  0.35840  0.62160  Biso   1.000  O
  H8       1.0000 0.30050  0.39330  0.61770  Biso   1.000  H
  C23      1.0000 0.40930  0.47700  0.70920  Biso   1.000  C
  C24      1.0000 0.55100  0.57700  0.70830  Biso   1.000  C
  O17      1.0000 0.94770  0.87790  0.44270  Biso   1.000  O
  C25      1.0000 0.83100  0.73420  0.43770  Biso   1.000  C
  O18      1.0000 0.85840  0.75720  0.37840  Biso   1.000  O
  H9       1.0000 0.89330  0.80050  0.38230  Biso   1.000  H
  C26      1.0000 0.97700  0.90930  0.29080  Biso   1.000  C
  C27      1.0000 0.07700  0.05100  0.29170  Biso   1.000  C
  O19      1.0000 0.44770  0.37790  0.94270  Biso   1.000  O
  C28      1.0000 0.33100  0.23420  0.93770  Biso   1.000  C
  O20      1.0000 0.35840  0.25720  0.87840  Biso   1.000  O
  H10      1.0000 0.39330  0.30050  0.88230  Biso   1.000  H
  C29      1.0000 0.47700  0.40930  0.79080  Biso   1.000  C
  C30      1.0000 0.57700  0.55100  0.79170  Biso   1.000  C
  O21      1.0000 0.05230  0.12210  0.44270  Biso   1.000  O
  C31      1.0000 0.16900  0.26580  0.43770  Biso   1.000  C
  O22      1.0000 0.14160  0.24280  0.37840  Biso   1.000  O
  H11      1.0000 0.10670  0.19950  0.38230  Biso   1.000  H
  C32      1.0000 0.02300  0.09070  0.29080  Biso   1.000  C
  C33      1.0000 0.92300  0.94900  0.29170  Biso   1.000  C
  O23      1.0000 0.55230  0.62210  0.94270  Biso   1.000  O
  C34      1.0000 0.66900  0.76580  0.93770  Biso   1.000  C
  O24      1.0000 0.64160  0.74280  0.87840  Biso   1.000  O
  H12      1.0000 0.60670  0.69950  0.88230  Biso   1.000  H
  C35      1.0000 0.52300  0.59070  0.79080  Biso   1.000  C
  C36      1.0000 0.42300  0.44900  0.79170  Biso   1.000  C
  O25      1.0000 0.87790  0.05230  0.44270  Biso   1.000  O
  C37      1.0000 0.73420  0.16900  0.43770  Biso   1.000  C
  O26      1.0000 0.75720  0.14160  0.37840  Biso   1.000  O
  H13      1.0000 0.80050  0.10670  0.38230  Biso   1.000  H
  C38      1.0000 0.90930  0.02300  0.29080  Biso   1.000  C
  C39      1.0000 0.05100  0.92300  0.29170  Biso   1.000  C
  O27      1.0000 0.37790  0.55230  0.94270  Biso   1.000  O
  C40      1.0000 0.23420  0.66900  0.93770  Biso   1.000  C
  O28      1.0000 0.25720  0.64160  0.87840  Biso   1.000  O
  H14      1.0000 0.30050  0.60670  0.88230  Biso   1.000  H
  C41      1.0000 0.40930  0.52300  0.79080  Biso   1.000  C
  C42      1.0000 0.55100  0.42300  0.79170  Biso   1.000  C
  O29      1.0000 0.12210  0.94770  0.44270  Biso   1.000  O
  C43      1.0000 0.26580  0.83100  0.43770  Biso   1.000  C
  O30      1.0000 0.24280  0.85840  0.37840  Biso   1.000  O
  H15      1.0000 0.19950  0.89330  0.38230  Biso   1.000  H
  C44      1.0000 0.09070  0.97700  0.29080  Biso   1.000  C
  C45      1.0000 0.94900  0.07700  0.29170  Biso   1.000  C
  O31      1.0000 0.62210  0.44770  0.94270  Biso   1.000  O
  C46      1.0000 0.76580  0.33100  0.93770  Biso   1.000  C
  O32      1.0000 0.74280  0.35840  0.87840  Biso   1.000  O
  H16      1.0000 0.69950  0.39330  0.88230  Biso   1.000  H
  C47      1.0000 0.59070  0.47700  0.79080  Biso   1.000  C
  C48      1.0000 0.44900  0.57700  0.79170  Biso   1.000  C
  O33      1.0000 0.94770  0.12210  0.94270  Biso   1.000  O
  C49      1.0000 0.83100  0.26580  0.93770  Biso   1.000  C
  O34      1.0000 0.85840  0.24280  0.87840  Biso   1.000  O
  H17      1.0000 0.89330  0.19950  0.88230  Biso   1.000  H
  C50      1.0000 0.97700  0.09070  0.79080  Biso   1.000  C
  C51      1.0000 0.07700  0.94900  0.79170  Biso   1.000  C
  O35      1.0000 0.44770  0.62210  0.44270  Biso   1.000  O
  C52      1.0000 0.33100  0.76580  0.43770  Biso   1.000  C
  O36      1.0000 0.35840  0.74280  0.37840  Biso   1.000  O
  H18      1.0000 0.39330  0.69950  0.38230  Biso   1.000  H
  C53      1.0000 0.47700  0.59070  0.29080  Biso   1.000  C
  C54      1.0000 0.57700  0.44900  0.29170  Biso   1.000  C
  O37      1.0000 0.05230  0.87790  0.94270  Biso   1.000  O
  C55      1.0000 0.16900  0.73420  0.93770  Biso   1.000  C
  O38      1.0000 0.14160  0.75720  0.87840  Biso   1.000  O
  H19      1.0000 0.10670  0.80050  0.88230  Biso   1.000  H
  C56      1.0000 0.02300  0.90930  0.79080  Biso   1.000  C
  C57      1.0000 0.92300  0.05100  0.79170  Biso   1.000  C
  O39      1.0000 0.55230  0.37790  0.44270  Biso   1.000  O
  C58      1.0000 0.66900  0.23420  0.43770  Biso   1.000  C
  O40      1.0000 0.64160  0.25720  0.37840  Biso   1.000  O
  H20      1.0000 0.60670  0.30050  0.38230  Biso   1.000  H
  C59      1.0000 0.52300  0.40930  0.29080  Biso   1.000  C
  C60      1.0000 0.42300  0.55100  0.29170  Biso   1.000  C
  O41      1.0000 0.87790  0.94770  0.94270  Biso   1.000  O
  C61      1.0000 0.73420  0.83100  0.93770  Biso   1.000  C
  O42      1.0000 0.75720  0.85840  0.87840  Biso   1.000  O
  H21      1.0000 0.80050  0.89330  0.88230  Biso   1.000  H
  C62      1.0000 0.90930  0.97700  0.79080  Biso   1.000  C
  C63      1.0000 0.05100  0.07700  0.79170  Biso   1.000  C
  O43      1.0000 0.37790  0.44770  0.44270  Biso   1.000  O
  C64      1.0000 0.23420  0.33100  0.43770  Biso   1.000  C
  O44      1.0000 0.25720  0.35840  0.37840  Biso   1.000  O
  H22      1.0000 0.30050  0.39330  0.38230  Biso   1.000  H
  C65      1.0000 0.40930  0.47700  0.29080  Biso   1.000  C
  C66      1.0000 0.55100  0.57700  0.29170  Biso   1.000  C
  O45      1.0000 0.12210  0.05230  0.94270  Biso   1.000  O
  C67      1.0000 0.26580  0.16900  0.93770  Biso   1.000  C
  O46      1.0000 0.24280  0.14160  0.87840  Biso   1.000  O
  H23      1.0000 0.19950  0.10670  0.88230  Biso   1.000  H
  C68      1.0000 0.09070  0.02300  0.79080  Biso   1.000  C
  C69      1.0000 0.94900  0.92300  0.79170  Biso   1.000  C
  O47      1.0000 0.62210  0.55230  0.44270  Biso   1.000  O
  C70      1.0000 0.76580  0.66900  0.43770  Biso   1.000  C
  O48      1.0000 0.74280  0.64160  0.37840  Biso   1.000  O
  H24      1.0000 0.69950  0.60670  0.38230  Biso   1.000  H
  C71      1.0000 0.59070  0.52300  0.29080  Biso   1.000  C
  C72      1.0000 0.44900  0.42300  0.29170  Biso   1.000  C
  O49      1.0000 0.05230  0.12210  0.55730  Biso   1.000  O
  C73      1.0000 0.16900  0.26580  0.56230  Biso   1.000  C
  O50      1.0000 0.14160  0.24280  0.62160  Biso   1.000  O
  H25      1.0000 0.10670  0.19950  0.61770  Biso   1.000  H
  C74      1.0000 0.02300  0.09070  0.70920  Biso   1.000  C
  C75      1.0000 0.92300  0.94900  0.70830  Biso   1.000  C
  O51      1.0000 0.55230  0.62210  0.05730  Biso   1.000  O
  C76      1.0000 0.66900  0.76580  0.06230  Biso   1.000  C
  O52      1.0000 0.64160  0.74280  0.12160  Biso   1.000  O
  H26      1.0000 0.60670  0.69950  0.11770  Biso   1.000  H
  C77      1.0000 0.52300  0.59070  0.20920  Biso   1.000  C
  C78      1.0000 0.42300  0.44900  0.20830  Biso   1.000  C
  O53      1.0000 0.94770  0.87790  0.55730  Biso   1.000  O
  C79      1.0000 0.83100  0.73420  0.56230  Biso   1.000  C
  O54      1.0000 0.85840  0.75720  0.62160  Biso   1.000  O
  H27      1.0000 0.89330  0.80050  0.61770  Biso   1.000  H
  C80      1.0000 0.97700  0.90930  0.70920  Biso   1.000  C
  C81      1.0000 0.07700  0.05100  0.70830  Biso   1.000  C
  O55      1.0000 0.44770  0.37790  0.05730  Biso   1.000  O
  C82      1.0000 0.33100  0.23420  0.06230  Biso   1.000  C
  O56      1.0000 0.35840  0.25720  0.12160  Biso   1.000  O
  H28      1.0000 0.39330  0.30050  0.11770  Biso   1.000  H
  C83      1.0000 0.47700  0.40930  0.20920  Biso   1.000  C
  C84      1.0000 0.57700  0.55100  0.20830  Biso   1.000  C
  O57      1.0000 0.12210  0.94770  0.55730  Biso   1.000  O
  C85      1.0000 0.26580  0.83100  0.56230  Biso   1.000  C
  O58      1.0000 0.24280  0.85840  0.62160  Biso   1.000  O
  H29      1.0000 0.19950  0.89330  0.61770  Biso   1.000  H
  C86      1.0000 0.09070  0.97700  0.70920  Biso   1.000  C
  C87      1.0000 0.94900  0.07700  0.70830  Biso   1.000  C
  O59      1.0000 0.62210  0.44770  0.05730  Biso   1.000  O
  C88      1.0000 0.76580  0.33100  0.06230  Biso   1.000  C
  O60      1.0000 0.74280  0.35840  0.12160  Biso   1.000  O
  H30      1.0000 0.69950  0.39330  0.11770  Biso   1.000  H
  C89      1.0000 0.59070  0.47700  0.20920  Biso   1.000  C
  C90      1.0000 0.44900  0.57700  0.20830  Biso   1.000  C
  O61      1.0000 0.87790  0.05230  0.55730  Biso   1.000  O
  C91      1.0000 0.73420  0.16900  0.56230  Biso   1.000  C
  O62      1.0000 0.75720  0.14160  0.62160  Biso   1.000  O
  H31      1.0000 0.80050  0.10670  0.61770  Biso   1.000  H
  C92      1.0000 0.90930  0.02300  0.70920  Biso   1.000  C
  C93      1.0000 0.05100  0.92300  0.70830  Biso   1.000  C
  O63      1.0000 0.37790  0.55230  0.05730  Biso   1.000  O
  C94      1.0000 0.23420  0.66900  0.06230  Biso   1.000  C
  O64      1.0000 0.25720  0.64160  0.12160  Biso   1.000  O
  H32      1.0000 0.30050  0.60670  0.11770  Biso   1.000  H
  C95      1.0000 0.40930  0.52300  0.20920  Biso   1.000  C
  C96      1.0000 0.55100  0.42300  0.20830  Biso   1.000  C
  Zn1      1.0000 0.00000  0.00000  0.07719  Biso   1.000  Zn
  N1       1.0000 0.00000  0.00000  0.18400  Biso   1.000  N
  Zn2      1.0000 0.50000  0.50000  0.57719  Biso   1.000  Zn
  N2       1.0000 0.50000  0.50000  0.68400  Biso   1.000  N
  Zn3      1.0000 0.00000  0.00000  0.42281  Biso   1.000  Zn
  N3       1.0000 0.00000  0.00000  0.31600  Biso   1.000  N
  Zn4      1.0000 0.50000  0.50000  0.92281  Biso   1.000  Zn
  N4       1.0000 0.50000  0.50000  0.81600  Biso   1.000  N
  Zn5      1.0000 0.00000  0.00000  0.92281  Biso   1.000  Zn
  N5       1.0000 0.00000  0.00000  0.81600  Biso   1.000  N
  Zn6      1.0000 0.50000  0.50000  0.42281  Biso   1.000  Zn
  N6       1.0000 0.50000  0.50000  0.31600  Biso   1.000  N
  Zn7      1.0000 0.00000  0.00000  0.57719  Biso   1.000  Zn
  N7       1.0000 0.00000  0.00000  0.68400  Biso   1.000  N
  Zn8      1.0000 0.50000  0.50000  0.07719  Biso   1.000  Zn
  N8       1.0000 0.50000  0.50000  0.18400  Biso   1.000  N
  C97      1.0000 0.07670  0.84800  0.00000  Biso   1.000  C
  C98      1.0000 0.13750  0.76990  0.00000  Biso   1.000  C
  C99      1.0000 0.57670  0.34800  0.50000  Biso   1.000  C
  C100     1.0000 0.63750  0.26990  0.50000  Biso   1.000  C
  C101     1.0000 0.92330  0.15200  0.00000  Biso   1.000  C
  C102     1.0000 0.86250  0.23010  0.00000  Biso   1.000  C
  C103     1.0000 0.42330  0.65200  0.50000  Biso   1.000  C
  C104     1.0000 0.36250  0.73010  0.50000  Biso   1.000  C
  C105     1.0000 0.15200  0.07670  0.00000  Biso   1.000  C
  C106     1.0000 0.23010  0.13750  0.00000  Biso   1.000  C
  C107     1.0000 0.65200  0.57670  0.50000  Biso   1.000  C
  C108     1.0000 0.73010  0.63750  0.50000  Biso   1.000  C
  C109     1.0000 0.84800  0.92330  0.00000  Biso   1.000  C
  C110     1.0000 0.76990  0.86250  0.00000  Biso   1.000  C
  C111     1.0000 0.34800  0.42330  0.50000  Biso   1.000  C
  C112     1.0000 0.26990  0.36250  0.50000  Biso   1.000  C
  C113     1.0000 0.92330  0.84800  0.50000  Biso   1.000  C
  C114     1.0000 0.86250  0.76990  0.50000  Biso   1.000  C
  C115     1.0000 0.42330  0.34800  0.00000  Biso   1.000  C
  C116     1.0000 0.36250  0.26990  0.00000  Biso   1.000  C
  C117     1.0000 0.07670  0.15200  0.50000  Biso   1.000  C
  C118     1.0000 0.13750  0.23010  0.50000  Biso   1.000  C
  C119     1.0000 0.57670  0.65200  0.00000  Biso   1.000  C
  C120     1.0000 0.63750  0.73010  0.00000  Biso   1.000  C
  C121     1.0000 0.84800  0.07670  0.50000  Biso   1.000  C
  C122     1.0000 0.76990  0.13750  0.50000  Biso   1.000  C
  C123     1.0000 0.34800  0.57670  0.00000  Biso   1.000  C
  C124     1.0000 0.26990  0.63750  0.00000  Biso   1.000  C
  C125     1.0000 0.15200  0.92330  0.50000  Biso   1.000  C
  C126     1.0000 0.23010  0.86250  0.50000  Biso   1.000  C
  C127     1.0000 0.65200  0.42330  0.00000  Biso   1.000  C
  C128     1.0000 0.73010  0.36250  0.00000  Biso   1.000  C
