data_image0
_cell_length_a       14.6111
_cell_length_b       15.9358
_cell_length_c       32.313
_cell_angle_alpha    90
_cell_angle_beta     90
_cell_angle_gamma    90

_symmetry_space_group_name_H-M    "P 1"
_symmetry_int_tables_number       1

loop_
  _symmetry_equiv_pos_as_xyz
  'x, y, z'

loop_
  _atom_site_label
  _atom_site_occupancy
  _atom_site_fract_x
  _atom_site_fract_y
  _atom_site_fract_z
  _atom_site_thermal_displace_type
  _atom_site_B_iso_or_equiv
  _atom_site_type_symbol
  C1       1.0000 0.94180  0.23630  0.93410  Biso   1.000  C
  N1       1.0000 0.05960  0.45170  0.87364  Biso   1.000  N
  C2       1.0000 0.87030  0.23880  0.96740  Biso   1.000  C
  C3       1.0000 0.13390  0.49420  0.86500  Biso   1.000  C
  H1       1.0000 0.18870  0.46390  0.85980  Biso   1.000  H
  C4       1.0000 0.87310  0.30610  0.99411  Biso   1.000  C
  H2       1.0000 0.91860  0.34800  0.99030  Biso   1.000  H
  C5       1.0000 0.98820  0.49690  0.88260  Biso   1.000  C
  H3       1.0000 0.93360  0.46900  0.89070  Biso   1.000  H
  C6       1.0000 0.81130  0.31450  0.02642  Biso   1.000  C
  H4       1.0000 0.81520  0.36200  0.04410  Biso   1.000  H
  C7       1.0000 0.74450  0.25550  0.03330  Biso   1.000  C
  C8       1.0000 0.66420  0.12560  0.00975  Biso   1.000  C
  H5       1.0000 0.62030  0.13220  0.03120  Biso   1.000  H
  C9       1.0000 0.65670  0.05950  0.98313  Biso   1.000  C
  H6       1.0000 0.60900  0.01970  0.98660  Biso   1.000  H
  C10      1.0000 0.71960  0.05030  0.95053  Biso   1.000  C
  H7       1.0000 0.71390  0.00420  0.93210  Biso   1.000  H
  C11      1.0000 0.78850  0.10680  0.94514  Biso   1.000  C
  H8       1.0000 0.82980  0.09990  0.92270  Biso   1.000  H
  C12      1.0000 0.80010  0.17610  0.97249  Biso   1.000  C
  C13      1.0000 0.73650  0.18490  0.00590  Biso   1.000  C
  C14      1.0000 0.68380  0.26620  0.07019  Biso   1.000  C
  C15      1.0000 0.92540  0.22790  0.82316  Biso   1.000  C
  C16      1.0000 0.85110  0.22780  0.79117  Biso   1.000  C
  C17      1.0000 0.85090  0.29380  0.76353  Biso   1.000  C
  H9       1.0000 0.89360  0.33830  0.76670  Biso   1.000  H
  C18      1.0000 0.78830  0.29550  0.73101  Biso   1.000  C
  H10      1.0000 0.78860  0.34160  0.71230  Biso   1.000  H
  C19      1.0000 0.72660  0.23210  0.72555  Biso   1.000  C
  C20      1.0000 0.65200  0.10360  0.75293  Biso   1.000  C
  H11      1.0000 0.60890  0.10450  0.73090  Biso   1.000  H
  C21      1.0000 0.64650  0.04250  0.78245  Biso   1.000  C
  H12      1.0000 0.59980  0.00120  0.78080  Biso   1.000  H
  C22      1.0000 0.70950  0.04010  0.81520  Biso   1.000  C
  H13      1.0000 0.70520  0.99710  0.83550  Biso   1.000  H
  C23      1.0000 0.77640  0.09900  0.81822  Biso   1.000  C
  H14      1.0000 0.81840  0.09700  0.84060  Biso   1.000  H
  C24      1.0000 0.78390  0.16350  0.78801  Biso   1.000  C
  C25      1.0000 0.72100  0.16570  0.75480  Biso   1.000  C
  C26      1.0000 0.66700  0.23580  0.68756  Biso   1.000  C
  C27      1.0000 0.11660  0.97110  0.90010  Biso   1.000  C
  H15      1.0000 0.14740  0.99990  0.92180  Biso   1.000  H
  C28      1.0000 0.12420  0.88430  0.89760  Biso   1.000  C
  H16      1.0000 0.16240  0.85510  0.91650  Biso   1.000  H
  C29      1.0000 0.07820  0.84160  0.86880  Biso   1.000  C
  C30      1.0000 0.03110  0.88500  0.84130  Biso   1.000  C
  H17      1.0000 0.99940  0.85680  0.81980  Biso   1.000  H
  C31      1.0000 0.02790  0.97160  0.84390  Biso   1.000  C
  H18      1.0000 0.99510  0.00180  0.82340  Biso   1.000  H
  N2       1.0000 0.06850  0.01380  0.87370  Biso   1.000  N
  O1       1.0000 0.96220  0.16650  0.91815  Biso   1.000  O
  O2       1.0000 0.97920  0.30450  0.92510  Biso   1.000  O
  O3       1.0000 0.65490  0.33862  0.07757  Biso   1.000  O
  O4       1.0000 0.66800  0.20200  0.09180  Biso   1.000  O
  O5       1.0000 0.94210  0.29700  0.84049  Biso   1.000  O
  O6       1.0000 0.96720  0.16010  0.83030  Biso   1.000  O
  O7       1.0000 0.65830  0.16950  0.66698  Biso   1.000  O
  O8       1.0000 0.63070  0.30570  0.67898  Biso   1.000  O
  Zn1      1.0000 0.06180  0.14106  0.87641  Biso   1.000  Zn
  Zn2      1.0000 0.05626  0.32493  0.87364  Biso   1.000  Zn
  N3       1.0000 0.10580  0.75430  0.87470  Biso   1.000  N
  N4       1.0000 0.03740  0.71370  0.86740  Biso   1.000  N
  C32      1.0000 0.06200  0.62510  0.87000  Biso   1.000  C
  C33      1.0000 0.13680  0.58120  0.86320  Biso   1.000  C
  H19      1.0000 0.19270  0.60900  0.85710  Biso   1.000  H
  C34      1.0000 0.98800  0.58310  0.88100  Biso   1.000  C
  H20      1.0000 0.93370  0.61280  0.88780  Biso   1.000  H
  N5       1.0000 0.05290  0.75410  0.86170  Biso   1.000  N
  N6       1.0000 0.09790  0.71060  0.87090  Biso   1.000  N
  C35      1.0000 0.44180  0.26370  0.06590  Biso   1.000  C
  N7       1.0000 0.55960  0.04830  0.12636  Biso   1.000  N
  C36      1.0000 0.37030  0.26120  0.03260  Biso   1.000  C
  C37      1.0000 0.63390  0.00580  0.13500  Biso   1.000  C
  H21      1.0000 0.68870  0.03610  0.14020  Biso   1.000  H
  C38      1.0000 0.37310  0.19390  0.00589  Biso   1.000  C
  H22      1.0000 0.41860  0.15200  0.00970  Biso   1.000  H
  C39      1.0000 0.48820  0.00310  0.11740  Biso   1.000  C
  H23      1.0000 0.43360  0.03100  0.10930  Biso   1.000  H
  C40      1.0000 0.31130  0.18550  0.97358  Biso   1.000  C
  H24      1.0000 0.31520  0.13800  0.95590  Biso   1.000  H
  C41      1.0000 0.24450  0.24450  0.96670  Biso   1.000  C
  C42      1.0000 0.16420  0.37440  0.99025  Biso   1.000  C
  H25      1.0000 0.12030  0.36780  0.96880  Biso   1.000  H
  C43      1.0000 0.15670  0.44050  0.01687  Biso   1.000  C
  H26      1.0000 0.10900  0.48030  0.01340  Biso   1.000  H
  C44      1.0000 0.21960  0.44970  0.04947  Biso   1.000  C
  H27      1.0000 0.21390  0.49580  0.06790  Biso   1.000  H
  C45      1.0000 0.28850  0.39320  0.05486  Biso   1.000  C
  H28      1.0000 0.32980  0.40010  0.07730  Biso   1.000  H
  C46      1.0000 0.30010  0.32390  0.02751  Biso   1.000  C
  C47      1.0000 0.23650  0.31510  0.99410  Biso   1.000  C
  C48      1.0000 0.18380  0.23380  0.92981  Biso   1.000  C
  C49      1.0000 0.42540  0.27210  0.17684  Biso   1.000  C
  C50      1.0000 0.35110  0.27220  0.20883  Biso   1.000  C
  C51      1.0000 0.35090  0.20620  0.23647  Biso   1.000  C
  H29      1.0000 0.39360  0.16170  0.23330  Biso   1.000  H
  C52      1.0000 0.28830  0.20450  0.26899  Biso   1.000  C
  H30      1.0000 0.28860  0.15840  0.28770  Biso   1.000  H
  C53      1.0000 0.22660  0.26790  0.27445  Biso   1.000  C
  C54      1.0000 0.15200  0.39640  0.24707  Biso   1.000  C
  H31      1.0000 0.10890  0.39550  0.26910  Biso   1.000  H
  C55      1.0000 0.14650  0.45750  0.21755  Biso   1.000  C
  H32      1.0000 0.09980  0.49880  0.21920  Biso   1.000  H
  C56      1.0000 0.20950  0.45990  0.18480  Biso   1.000  C
  H33      1.0000 0.20520  0.50290  0.16450  Biso   1.000  H
  C57      1.0000 0.27640  0.40100  0.18178  Biso   1.000  C
  H34      1.0000 0.31840  0.40300  0.15940  Biso   1.000  H
  C58      1.0000 0.28390  0.33650  0.21199  Biso   1.000  C
  C59      1.0000 0.22100  0.33430  0.24520  Biso   1.000  C
  C60      1.0000 0.16700  0.26420  0.31244  Biso   1.000  C
  C61      1.0000 0.61660  0.52890  0.09990  Biso   1.000  C
  H35      1.0000 0.64740  0.50010  0.07820  Biso   1.000  H
  C62      1.0000 0.62420  0.61570  0.10240  Biso   1.000  C
  H36      1.0000 0.66240  0.64490  0.08350  Biso   1.000  H
  C63      1.0000 0.57820  0.65840  0.13120  Biso   1.000  C
  C64      1.0000 0.53110  0.61500  0.15870  Biso   1.000  C
  H37      1.0000 0.49940  0.64320  0.18020  Biso   1.000  H
  C65      1.0000 0.52790  0.52840  0.15610  Biso   1.000  C
  H38      1.0000 0.49510  0.49820  0.17660  Biso   1.000  H
  N8       1.0000 0.56850  0.48620  0.12630  Biso   1.000  N
  O9       1.0000 0.46220  0.33350  0.08185  Biso   1.000  O
  O10      1.0000 0.47920  0.19550  0.07490  Biso   1.000  O
  O11      1.0000 0.15490  0.16138  0.92243  Biso   1.000  O
  O12      1.0000 0.16800  0.29800  0.90820  Biso   1.000  O
  O13      1.0000 0.44210  0.20300  0.15951  Biso   1.000  O
  O14      1.0000 0.46720  0.33990  0.16970  Biso   1.000  O
  O15      1.0000 0.15830  0.33050  0.33302  Biso   1.000  O
  O16      1.0000 0.13070  0.19430  0.32102  Biso   1.000  O
  Zn3      1.0000 0.56180  0.35894  0.12359  Biso   1.000  Zn
  Zn4      1.0000 0.55626  0.17507  0.12636  Biso   1.000  Zn
  N9       1.0000 0.60580  0.74570  0.12530  Biso   1.000  N
  N10      1.0000 0.53740  0.78630  0.13260  Biso   1.000  N
  C66      1.0000 0.56200  0.87490  0.13000  Biso   1.000  C
  C67      1.0000 0.63680  0.91880  0.13680  Biso   1.000  C
  H39      1.0000 0.69270  0.89100  0.14290  Biso   1.000  H
  C68      1.0000 0.48800  0.91690  0.11900  Biso   1.000  C
  H40      1.0000 0.43370  0.88720  0.11220  Biso   1.000  H
  N11      1.0000 0.55290  0.74590  0.13830  Biso   1.000  N
  N12      1.0000 0.59790  0.78940  0.12910  Biso   1.000  N
  C69      1.0000 0.44180  0.23630  0.56590  Biso   1.000  C
  N13      1.0000 0.55960  0.45170  0.62636  Biso   1.000  N
  C70      1.0000 0.37030  0.23880  0.53260  Biso   1.000  C
  C71      1.0000 0.63390  0.49420  0.63500  Biso   1.000  C
  H41      1.0000 0.68870  0.46390  0.64020  Biso   1.000  H
  C72      1.0000 0.37310  0.30610  0.50589  Biso   1.000  C
  H42      1.0000 0.41860  0.34800  0.50970  Biso   1.000  H
  C73      1.0000 0.48820  0.49690  0.61740  Biso   1.000  C
  H43      1.0000 0.43360  0.46900  0.60930  Biso   1.000  H
  C74      1.0000 0.31130  0.31450  0.47358  Biso   1.000  C
  H44      1.0000 0.31520  0.36200  0.45590  Biso   1.000  H
  C75      1.0000 0.24450  0.25550  0.46670  Biso   1.000  C
  C76      1.0000 0.16420  0.12560  0.49025  Biso   1.000  C
  H45      1.0000 0.12030  0.13220  0.46880  Biso   1.000  H
  C77      1.0000 0.15670  0.05950  0.51687  Biso   1.000  C
  H46      1.0000 0.10900  0.01970  0.51340  Biso   1.000  H
  C78      1.0000 0.21960  0.05030  0.54947  Biso   1.000  C
  H47      1.0000 0.21390  0.00420  0.56790  Biso   1.000  H
  C79      1.0000 0.28850  0.10680  0.55486  Biso   1.000  C
  H48      1.0000 0.32980  0.09990  0.57730  Biso   1.000  H
  C80      1.0000 0.30010  0.17610  0.52751  Biso   1.000  C
  C81      1.0000 0.23650  0.18490  0.49410  Biso   1.000  C
  C82      1.0000 0.18380  0.26620  0.42981  Biso   1.000  C
  C83      1.0000 0.42540  0.22790  0.67684  Biso   1.000  C
  C84      1.0000 0.35110  0.22780  0.70883  Biso   1.000  C
  C85      1.0000 0.35090  0.29380  0.73647  Biso   1.000  C
  H49      1.0000 0.39360  0.33830  0.73330  Biso   1.000  H
  C86      1.0000 0.28830  0.29550  0.76899  Biso   1.000  C
  H50      1.0000 0.28860  0.34160  0.78770  Biso   1.000  H
  C87      1.0000 0.22660  0.23210  0.77445  Biso   1.000  C
  C88      1.0000 0.15200  0.10360  0.74707  Biso   1.000  C
  H51      1.0000 0.10890  0.10450  0.76910  Biso   1.000  H
  C89      1.0000 0.14650  0.04250  0.71755  Biso   1.000  C
  H52      1.0000 0.09980  0.00120  0.71920  Biso   1.000  H
  C90      1.0000 0.20950  0.04010  0.68480  Biso   1.000  C
  H53      1.0000 0.20520  0.99710  0.66450  Biso   1.000  H
  C91      1.0000 0.27640  0.09900  0.68178  Biso   1.000  C
  H54      1.0000 0.31840  0.09700  0.65940  Biso   1.000  H
  C92      1.0000 0.28390  0.16350  0.71199  Biso   1.000  C
  C93      1.0000 0.22100  0.16570  0.74520  Biso   1.000  C
  C94      1.0000 0.16700  0.23580  0.81244  Biso   1.000  C
  C95      1.0000 0.61660  0.97110  0.59990  Biso   1.000  C
  H55      1.0000 0.64740  0.99990  0.57820  Biso   1.000  H
  C96      1.0000 0.62420  0.88430  0.60240  Biso   1.000  C
  H56      1.0000 0.66240  0.85510  0.58350  Biso   1.000  H
  C97      1.0000 0.57820  0.84160  0.63120  Biso   1.000  C
  C98      1.0000 0.53110  0.88500  0.65870  Biso   1.000  C
  H57      1.0000 0.49940  0.85680  0.68020  Biso   1.000  H
  C99      1.0000 0.52790  0.97160  0.65610  Biso   1.000  C
  H58      1.0000 0.49510  0.00180  0.67660  Biso   1.000  H
  N14      1.0000 0.56850  0.01380  0.62630  Biso   1.000  N
  O17      1.0000 0.46220  0.16650  0.58185  Biso   1.000  O
  O18      1.0000 0.47920  0.30450  0.57490  Biso   1.000  O
  O19      1.0000 0.15490  0.33862  0.42243  Biso   1.000  O
  O20      1.0000 0.16800  0.20200  0.40820  Biso   1.000  O
  O21      1.0000 0.44210  0.29700  0.65951  Biso   1.000  O
  O22      1.0000 0.46720  0.16010  0.66970  Biso   1.000  O
  O23      1.0000 0.15830  0.16950  0.83302  Biso   1.000  O
  O24      1.0000 0.13070  0.30570  0.82102  Biso   1.000  O
  Zn5      1.0000 0.56180  0.14106  0.62359  Biso   1.000  Zn
  Zn6      1.0000 0.55626  0.32493  0.62636  Biso   1.000  Zn
  N15      1.0000 0.60580  0.75430  0.62530  Biso   1.000  N
  N16      1.0000 0.53740  0.71370  0.63260  Biso   1.000  N
  C100     1.0000 0.56200  0.62510  0.63000  Biso   1.000  C
  C101     1.0000 0.63680  0.58120  0.63680  Biso   1.000  C
  H59      1.0000 0.69270  0.60900  0.64290  Biso   1.000  H
  C102     1.0000 0.48800  0.58310  0.61900  Biso   1.000  C
  H60      1.0000 0.43370  0.61280  0.61220  Biso   1.000  H
  N17      1.0000 0.55290  0.75410  0.63830  Biso   1.000  N
  N18      1.0000 0.59790  0.71060  0.62910  Biso   1.000  N
  C103     1.0000 0.94180  0.26370  0.43410  Biso   1.000  C
  N19      1.0000 0.05960  0.04830  0.37364  Biso   1.000  N
  C104     1.0000 0.87030  0.26120  0.46740  Biso   1.000  C
  C105     1.0000 0.13390  0.00580  0.36500  Biso   1.000  C
  H61      1.0000 0.18870  0.03610  0.35980  Biso   1.000  H
  C106     1.0000 0.87310  0.19390  0.49411  Biso   1.000  C
  H62      1.0000 0.91860  0.15200  0.49030  Biso   1.000  H
  C107     1.0000 0.98820  0.00310  0.38260  Biso   1.000  C
  H63      1.0000 0.93360  0.03100  0.39070  Biso   1.000  H
  C108     1.0000 0.81130  0.18550  0.52642  Biso   1.000  C
  H64      1.0000 0.81520  0.13800  0.54410  Biso   1.000  H
  C109     1.0000 0.74450  0.24450  0.53330  Biso   1.000  C
  C110     1.0000 0.66420  0.37440  0.50975  Biso   1.000  C
  H65      1.0000 0.62030  0.36780  0.53120  Biso   1.000  H
  C111     1.0000 0.65670  0.44050  0.48313  Biso   1.000  C
  H66      1.0000 0.60900  0.48030  0.48660  Biso   1.000  H
  C112     1.0000 0.71960  0.44970  0.45053  Biso   1.000  C
  H67      1.0000 0.71390  0.49580  0.43210  Biso   1.000  H
  C113     1.0000 0.78850  0.39320  0.44514  Biso   1.000  C
  H68      1.0000 0.82980  0.40010  0.42270  Biso   1.000  H
  C114     1.0000 0.80010  0.32390  0.47249  Biso   1.000  C
  C115     1.0000 0.73650  0.31510  0.50590  Biso   1.000  C
  C116     1.0000 0.68380  0.23380  0.57019  Biso   1.000  C
  C117     1.0000 0.92540  0.27210  0.32316  Biso   1.000  C
  C118     1.0000 0.85110  0.27220  0.29117  Biso   1.000  C
  C119     1.0000 0.85090  0.20620  0.26353  Biso   1.000  C
  H69      1.0000 0.89360  0.16170  0.26670  Biso   1.000  H
  C120     1.0000 0.78830  0.20450  0.23101  Biso   1.000  C
  H70      1.0000 0.78860  0.15840  0.21230  Biso   1.000  H
  C121     1.0000 0.72660  0.26790  0.22555  Biso   1.000  C
  C122     1.0000 0.65200  0.39640  0.25293  Biso   1.000  C
  H71      1.0000 0.60890  0.39550  0.23090  Biso   1.000  H
  C123     1.0000 0.64650  0.45750  0.28245  Biso   1.000  C
  H72      1.0000 0.59980  0.49880  0.28080  Biso   1.000  H
  C124     1.0000 0.70950  0.45990  0.31520  Biso   1.000  C
  H73      1.0000 0.70520  0.50290  0.33550  Biso   1.000  H
  C125     1.0000 0.77640  0.40100  0.31822  Biso   1.000  C
  H74      1.0000 0.81840  0.40300  0.34060  Biso   1.000  H
  C126     1.0000 0.78390  0.33650  0.28801  Biso   1.000  C
  C127     1.0000 0.72100  0.33430  0.25480  Biso   1.000  C
  C128     1.0000 0.66700  0.26420  0.18756  Biso   1.000  C
  C129     1.0000 0.11660  0.52890  0.40010  Biso   1.000  C
  H75      1.0000 0.14740  0.50010  0.42180  Biso   1.000  H
  C130     1.0000 0.12420  0.61570  0.39760  Biso   1.000  C
  H76      1.0000 0.16240  0.64490  0.41650  Biso   1.000  H
  C131     1.0000 0.07820  0.65840  0.36880  Biso   1.000  C
  C132     1.0000 0.03110  0.61500  0.34130  Biso   1.000  C
  H77      1.0000 0.99940  0.64320  0.31980  Biso   1.000  H
  C133     1.0000 0.02790  0.52840  0.34390  Biso   1.000  C
  H78      1.0000 0.99510  0.49820  0.32340  Biso   1.000  H
  N20      1.0000 0.06850  0.48620  0.37370  Biso   1.000  N
  O25      1.0000 0.96220  0.33350  0.41815  Biso   1.000  O
  O26      1.0000 0.97920  0.19550  0.42510  Biso   1.000  O
  O27      1.0000 0.65490  0.16138  0.57757  Biso   1.000  O
  O28      1.0000 0.66800  0.29800  0.59180  Biso   1.000  O
  O29      1.0000 0.94210  0.20300  0.34049  Biso   1.000  O
  O30      1.0000 0.96720  0.33990  0.33030  Biso   1.000  O
  O31      1.0000 0.65830  0.33050  0.16698  Biso   1.000  O
  O32      1.0000 0.63070  0.19430  0.17898  Biso   1.000  O
  Zn7      1.0000 0.06180  0.35894  0.37641  Biso   1.000  Zn
  Zn8      1.0000 0.05626  0.17507  0.37364  Biso   1.000  Zn
  N21      1.0000 0.10580  0.74570  0.37470  Biso   1.000  N
  N22      1.0000 0.03740  0.78630  0.36740  Biso   1.000  N
  C134     1.0000 0.06200  0.87490  0.37000  Biso   1.000  C
  C135     1.0000 0.13680  0.91880  0.36320  Biso   1.000  C
  H79      1.0000 0.19270  0.89100  0.35710  Biso   1.000  H
  C136     1.0000 0.98800  0.91690  0.38100  Biso   1.000  C
  H80      1.0000 0.93370  0.88720  0.38780  Biso   1.000  H
  N23      1.0000 0.05290  0.74590  0.36170  Biso   1.000  N
  N24      1.0000 0.09790  0.78940  0.37090  Biso   1.000  N
  C137     1.0000 0.55820  0.76370  0.43410  Biso   1.000  C
  N25      1.0000 0.44040  0.54830  0.37364  Biso   1.000  N
  C138     1.0000 0.62970  0.76120  0.46740  Biso   1.000  C
  C139     1.0000 0.36610  0.50580  0.36500  Biso   1.000  C
  H81      1.0000 0.31130  0.53610  0.35980  Biso   1.000  H
  C140     1.0000 0.62690  0.69390  0.49411  Biso   1.000  C
  H82      1.0000 0.58140  0.65200  0.49030  Biso   1.000  H
  C141     1.0000 0.51180  0.50310  0.38260  Biso   1.000  C
  H83      1.0000 0.56640  0.53100  0.39070  Biso   1.000  H
  C142     1.0000 0.68870  0.68550  0.52642  Biso   1.000  C
  H84      1.0000 0.68480  0.63800  0.54410  Biso   1.000  H
  C143     1.0000 0.75550  0.74450  0.53330  Biso   1.000  C
  C144     1.0000 0.83580  0.87440  0.50975  Biso   1.000  C
  H85      1.0000 0.87970  0.86780  0.53120  Biso   1.000  H
  C145     1.0000 0.84330  0.94050  0.48313  Biso   1.000  C
  H86      1.0000 0.89100  0.98030  0.48660  Biso   1.000  H
  C146     1.0000 0.78040  0.94970  0.45053  Biso   1.000  C
  H87      1.0000 0.78610  0.99580  0.43210  Biso   1.000  H
  C147     1.0000 0.71150  0.89320  0.44514  Biso   1.000  C
  H88      1.0000 0.67020  0.90010  0.42270  Biso   1.000  H
  C148     1.0000 0.69990  0.82390  0.47249  Biso   1.000  C
  C149     1.0000 0.76350  0.81510  0.50590  Biso   1.000  C
  C150     1.0000 0.81620  0.73380  0.57019  Biso   1.000  C
  C151     1.0000 0.57460  0.77210  0.32316  Biso   1.000  C
  C152     1.0000 0.64890  0.77220  0.29117  Biso   1.000  C
  C153     1.0000 0.64910  0.70620  0.26353  Biso   1.000  C
  H89      1.0000 0.60640  0.66170  0.26670  Biso   1.000  H
  C154     1.0000 0.71170  0.70450  0.23101  Biso   1.000  C
  H90      1.0000 0.71140  0.65840  0.21230  Biso   1.000  H
  C155     1.0000 0.77340  0.76790  0.22555  Biso   1.000  C
  C156     1.0000 0.84800  0.89640  0.25293  Biso   1.000  C
  H91      1.0000 0.89110  0.89550  0.23090  Biso   1.000  H
  C157     1.0000 0.85350  0.95750  0.28245  Biso   1.000  C
  H92      1.0000 0.90020  0.99880  0.28080  Biso   1.000  H
  C158     1.0000 0.79050  0.95990  0.31520  Biso   1.000  C
  H93      1.0000 0.79480  0.00290  0.33550  Biso   1.000  H
  C159     1.0000 0.72360  0.90100  0.31822  Biso   1.000  C
  H94      1.0000 0.68160  0.90300  0.34060  Biso   1.000  H
  C160     1.0000 0.71610  0.83650  0.28801  Biso   1.000  C
  C161     1.0000 0.77900  0.83430  0.25480  Biso   1.000  C
  C162     1.0000 0.83300  0.76420  0.18756  Biso   1.000  C
  C163     1.0000 0.38340  0.02890  0.40010  Biso   1.000  C
  H95      1.0000 0.35260  0.00010  0.42180  Biso   1.000  H
  C164     1.0000 0.37580  0.11570  0.39760  Biso   1.000  C
  H96      1.0000 0.33760  0.14490  0.41650  Biso   1.000  H
  C165     1.0000 0.42180  0.15840  0.36880  Biso   1.000  C
  C166     1.0000 0.46890  0.11500  0.34130  Biso   1.000  C
  H97      1.0000 0.50060  0.14320  0.31980  Biso   1.000  H
  C167     1.0000 0.47210  0.02840  0.34390  Biso   1.000  C
  H98      1.0000 0.50490  0.99820  0.32340  Biso   1.000  H
  N26      1.0000 0.43150  0.98620  0.37370  Biso   1.000  N
  O33      1.0000 0.53780  0.83350  0.41815  Biso   1.000  O
  O34      1.0000 0.52080  0.69550  0.42510  Biso   1.000  O
  O35      1.0000 0.84510  0.66138  0.57757  Biso   1.000  O
  O36      1.0000 0.83200  0.79800  0.59180  Biso   1.000  O
  O37      1.0000 0.55790  0.70300  0.34049  Biso   1.000  O
  O38      1.0000 0.53280  0.83990  0.33030  Biso   1.000  O
  O39      1.0000 0.84170  0.83050  0.16698  Biso   1.000  O
  O40      1.0000 0.86930  0.69430  0.17898  Biso   1.000  O
  Zn9      1.0000 0.43820  0.85894  0.37641  Biso   1.000  Zn
  Zn10     1.0000 0.44374  0.67507  0.37364  Biso   1.000  Zn
  N27      1.0000 0.39420  0.24570  0.37470  Biso   1.000  N
  N28      1.0000 0.46260  0.28630  0.36740  Biso   1.000  N
  C168     1.0000 0.43800  0.37490  0.37000  Biso   1.000  C
  C169     1.0000 0.36320  0.41880  0.36320  Biso   1.000  C
  H99      1.0000 0.30730  0.39100  0.35710  Biso   1.000  H
  C170     1.0000 0.51200  0.41690  0.38100  Biso   1.000  C
  H100     1.0000 0.56630  0.38720  0.38780  Biso   1.000  H
  N29      1.0000 0.44710  0.24590  0.36170  Biso   1.000  N
  N30      1.0000 0.40210  0.28940  0.37090  Biso   1.000  N
  C171     1.0000 0.05820  0.73630  0.56590  Biso   1.000  C
  N31      1.0000 0.94040  0.95170  0.62636  Biso   1.000  N
  C172     1.0000 0.12970  0.73880  0.53260  Biso   1.000  C
  C173     1.0000 0.86610  0.99420  0.63500  Biso   1.000  C
  H101     1.0000 0.81130  0.96390  0.64020  Biso   1.000  H
  C174     1.0000 0.12690  0.80610  0.50589  Biso   1.000  C
  H102     1.0000 0.08140  0.84800  0.50970  Biso   1.000  H
  C175     1.0000 0.01180  0.99690  0.61740  Biso   1.000  C
  H103     1.0000 0.06640  0.96900  0.60930  Biso   1.000  H
  C176     1.0000 0.18870  0.81450  0.47358  Biso   1.000  C
  H104     1.0000 0.18480  0.86200  0.45590  Biso   1.000  H
  C177     1.0000 0.25550  0.75550  0.46670  Biso   1.000  C
  C178     1.0000 0.33580  0.62560  0.49025  Biso   1.000  C
  H105     1.0000 0.37970  0.63220  0.46880  Biso   1.000  H
  C179     1.0000 0.34330  0.55950  0.51687  Biso   1.000  C
  H106     1.0000 0.39100  0.51970  0.51340  Biso   1.000  H
  C180     1.0000 0.28040  0.55030  0.54947  Biso   1.000  C
  H107     1.0000 0.28610  0.50420  0.56790  Biso   1.000  H
  C181     1.0000 0.21150  0.60680  0.55486  Biso   1.000  C
  H108     1.0000 0.17020  0.59990  0.57730  Biso   1.000  H
  C182     1.0000 0.19990  0.67610  0.52751  Biso   1.000  C
  C183     1.0000 0.26350  0.68490  0.49410  Biso   1.000  C
  C184     1.0000 0.31620  0.76620  0.42981  Biso   1.000  C
  C185     1.0000 0.07460  0.72790  0.67684  Biso   1.000  C
  C186     1.0000 0.14890  0.72780  0.70883  Biso   1.000  C
  C187     1.0000 0.14910  0.79380  0.73647  Biso   1.000  C
  H109     1.0000 0.10640  0.83830  0.73330  Biso   1.000  H
  C188     1.0000 0.21170  0.79550  0.76899  Biso   1.000  C
  H110     1.0000 0.21140  0.84160  0.78770  Biso   1.000  H
  C189     1.0000 0.27340  0.73210  0.77445  Biso   1.000  C
  C190     1.0000 0.34800  0.60360  0.74707  Biso   1.000  C
  H111     1.0000 0.39110  0.60450  0.76910  Biso   1.000  H
  C191     1.0000 0.35350  0.54250  0.71755  Biso   1.000  C
  H112     1.0000 0.40020  0.50120  0.71920  Biso   1.000  H
  C192     1.0000 0.29050  0.54010  0.68480  Biso   1.000  C
  H113     1.0000 0.29480  0.49710  0.66450  Biso   1.000  H
  C193     1.0000 0.22360  0.59900  0.68178  Biso   1.000  C
  H114     1.0000 0.18160  0.59700  0.65940  Biso   1.000  H
  C194     1.0000 0.21610  0.66350  0.71199  Biso   1.000  C
  C195     1.0000 0.27900  0.66570  0.74520  Biso   1.000  C
  C196     1.0000 0.33300  0.73580  0.81244  Biso   1.000  C
  C197     1.0000 0.88340  0.47110  0.59990  Biso   1.000  C
  H115     1.0000 0.85260  0.49990  0.57820  Biso   1.000  H
  C198     1.0000 0.87580  0.38430  0.60240  Biso   1.000  C
  H116     1.0000 0.83760  0.35510  0.58350  Biso   1.000  H
  C199     1.0000 0.92180  0.34160  0.63120  Biso   1.000  C
  C200     1.0000 0.96890  0.38500  0.65870  Biso   1.000  C
  H117     1.0000 0.00060  0.35680  0.68020  Biso   1.000  H
  C201     1.0000 0.97210  0.47160  0.65610  Biso   1.000  C
  H118     1.0000 0.00490  0.50180  0.67660  Biso   1.000  H
  N32      1.0000 0.93150  0.51380  0.62630  Biso   1.000  N
  O41      1.0000 0.03780  0.66650  0.58185  Biso   1.000  O
  O42      1.0000 0.02080  0.80450  0.57490  Biso   1.000  O
  O43      1.0000 0.34510  0.83862  0.42243  Biso   1.000  O
  O44      1.0000 0.33200  0.70200  0.40820  Biso   1.000  O
  O45      1.0000 0.05790  0.79700  0.65951  Biso   1.000  O
  O46      1.0000 0.03280  0.66010  0.66970  Biso   1.000  O
  O47      1.0000 0.34170  0.66950  0.83302  Biso   1.000  O
  O48      1.0000 0.36930  0.80570  0.82102  Biso   1.000  O
  Zn11     1.0000 0.93820  0.64106  0.62359  Biso   1.000  Zn
  Zn12     1.0000 0.94374  0.82493  0.62636  Biso   1.000  Zn
  N33      1.0000 0.89420  0.25430  0.62530  Biso   1.000  N
  N34      1.0000 0.96260  0.21370  0.63260  Biso   1.000  N
  C202     1.0000 0.93800  0.12510  0.63000  Biso   1.000  C
  C203     1.0000 0.86320  0.08120  0.63680  Biso   1.000  C
  H119     1.0000 0.80730  0.10900  0.64290  Biso   1.000  H
  C204     1.0000 0.01200  0.08310  0.61900  Biso   1.000  C
  H120     1.0000 0.06630  0.11280  0.61220  Biso   1.000  H
  N35      1.0000 0.94710  0.25410  0.63830  Biso   1.000  N
  N36      1.0000 0.90210  0.21060  0.62910  Biso   1.000  N
  C205     1.0000 0.05820  0.76370  0.06590  Biso   1.000  C
  N37      1.0000 0.94040  0.54830  0.12636  Biso   1.000  N
  C206     1.0000 0.12970  0.76120  0.03260  Biso   1.000  C
  C207     1.0000 0.86610  0.50580  0.13500  Biso   1.000  C
  H121     1.0000 0.81130  0.53610  0.14020  Biso   1.000  H
  C208     1.0000 0.12690  0.69390  0.00589  Biso   1.000  C
  H122     1.0000 0.08140  0.65200  0.00970  Biso   1.000  H
  C209     1.0000 0.01180  0.50310  0.11740  Biso   1.000  C
  H123     1.0000 0.06640  0.53100  0.10930  Biso   1.000  H
  C210     1.0000 0.18870  0.68550  0.97358  Biso   1.000  C
  H124     1.0000 0.18480  0.63800  0.95590  Biso   1.000  H
  C211     1.0000 0.25550  0.74450  0.96670  Biso   1.000  C
  C212     1.0000 0.33580  0.87440  0.99025  Biso   1.000  C
  H125     1.0000 0.37970  0.86780  0.96880  Biso   1.000  H
  C213     1.0000 0.34330  0.94050  0.01687  Biso   1.000  C
  H126     1.0000 0.39100  0.98030  0.01340  Biso   1.000  H
  C214     1.0000 0.28040  0.94970  0.04947  Biso   1.000  C
  H127     1.0000 0.28610  0.99580  0.06790  Biso   1.000  H
  C215     1.0000 0.21150  0.89320  0.05486  Biso   1.000  C
  H128     1.0000 0.17020  0.90010  0.07730  Biso   1.000  H
  C216     1.0000 0.19990  0.82390  0.02751  Biso   1.000  C
  C217     1.0000 0.26350  0.81510  0.99410  Biso   1.000  C
  C218     1.0000 0.31620  0.73380  0.92981  Biso   1.000  C
  C219     1.0000 0.07460  0.77210  0.17684  Biso   1.000  C
  C220     1.0000 0.14890  0.77220  0.20883  Biso   1.000  C
  C221     1.0000 0.14910  0.70620  0.23647  Biso   1.000  C
  H129     1.0000 0.10640  0.66170  0.23330  Biso   1.000  H
  C222     1.0000 0.21170  0.70450  0.26899  Biso   1.000  C
  H130     1.0000 0.21140  0.65840  0.28770  Biso   1.000  H
  C223     1.0000 0.27340  0.76790  0.27445  Biso   1.000  C
  C224     1.0000 0.34800  0.89640  0.24707  Biso   1.000  C
  H131     1.0000 0.39110  0.89550  0.26910  Biso   1.000  H
  C225     1.0000 0.35350  0.95750  0.21755  Biso   1.000  C
  H132     1.0000 0.40020  0.99880  0.21920  Biso   1.000  H
  C226     1.0000 0.29050  0.95990  0.18480  Biso   1.000  C
  H133     1.0000 0.29480  0.00290  0.16450  Biso   1.000  H
  C227     1.0000 0.22360  0.90100  0.18178  Biso   1.000  C
  H134     1.0000 0.18160  0.90300  0.15940  Biso   1.000  H
  C228     1.0000 0.21610  0.83650  0.21199  Biso   1.000  C
  C229     1.0000 0.27900  0.83430  0.24520  Biso   1.000  C
  C230     1.0000 0.33300  0.76420  0.31244  Biso   1.000  C
  C231     1.0000 0.88340  0.02890  0.09990  Biso   1.000  C
  H135     1.0000 0.85260  0.00010  0.07820  Biso   1.000  H
  C232     1.0000 0.87580  0.11570  0.10240  Biso   1.000  C
  H136     1.0000 0.83760  0.14490  0.08350  Biso   1.000  H
  C233     1.0000 0.92180  0.15840  0.13120  Biso   1.000  C
  C234     1.0000 0.96890  0.11500  0.15870  Biso   1.000  C
  H137     1.0000 0.00060  0.14320  0.18020  Biso   1.000  H
  C235     1.0000 0.97210  0.02840  0.15610  Biso   1.000  C
  H138     1.0000 0.00490  0.99820  0.17660  Biso   1.000  H
  N38      1.0000 0.93150  0.98620  0.12630  Biso   1.000  N
  O49      1.0000 0.03780  0.83350  0.08185  Biso   1.000  O
  O50      1.0000 0.02080  0.69550  0.07490  Biso   1.000  O
  O51      1.0000 0.34510  0.66138  0.92243  Biso   1.000  O
  O52      1.0000 0.33200  0.79800  0.90820  Biso   1.000  O
  O53      1.0000 0.05790  0.70300  0.15951  Biso   1.000  O
  O54      1.0000 0.03280  0.83990  0.16970  Biso   1.000  O
  O55      1.0000 0.34170  0.83050  0.33302  Biso   1.000  O
  O56      1.0000 0.36930  0.69430  0.32102  Biso   1.000  O
  Zn13     1.0000 0.93820  0.85894  0.12359  Biso   1.000  Zn
  Zn14     1.0000 0.94374  0.67507  0.12636  Biso   1.000  Zn
  N39      1.0000 0.89420  0.24570  0.12530  Biso   1.000  N
  N40      1.0000 0.96260  0.28630  0.13260  Biso   1.000  N
  C236     1.0000 0.93800  0.37490  0.13000  Biso   1.000  C
  C237     1.0000 0.86320  0.41880  0.13680  Biso   1.000  C
  H139     1.0000 0.80730  0.39100  0.14290  Biso   1.000  H
  C238     1.0000 0.01200  0.41690  0.11900  Biso   1.000  C
  H140     1.0000 0.06630  0.38720  0.11220  Biso   1.000  H
  N41      1.0000 0.94710  0.24590  0.13830  Biso   1.000  N
  N42      1.0000 0.90210  0.28940  0.12910  Biso   1.000  N
  C239     1.0000 0.55820  0.73630  0.93410  Biso   1.000  C
  N43      1.0000 0.44040  0.95170  0.87364  Biso   1.000  N
  C240     1.0000 0.62970  0.73880  0.96740  Biso   1.000  C
  C241     1.0000 0.36610  0.99420  0.86500  Biso   1.000  C
  H141     1.0000 0.31130  0.96390  0.85980  Biso   1.000  H
  C242     1.0000 0.62690  0.80610  0.99411  Biso   1.000  C
  H142     1.0000 0.58140  0.84800  0.99030  Biso   1.000  H
  C243     1.0000 0.51180  0.99690  0.88260  Biso   1.000  C
  H143     1.0000 0.56640  0.96900  0.89070  Biso   1.000  H
  C244     1.0000 0.68870  0.81450  0.02642  Biso   1.000  C
  H144     1.0000 0.68480  0.86200  0.04410  Biso   1.000  H
  C245     1.0000 0.75550  0.75550  0.03330  Biso   1.000  C
  C246     1.0000 0.83580  0.62560  0.00975  Biso   1.000  C
  H145     1.0000 0.87970  0.63220  0.03120  Biso   1.000  H
  C247     1.0000 0.84330  0.55950  0.98313  Biso   1.000  C
  H146     1.0000 0.89100  0.51970  0.98660  Biso   1.000  H
  C248     1.0000 0.78040  0.55030  0.95053  Biso   1.000  C
  H147     1.0000 0.78610  0.50420  0.93210  Biso   1.000  H
  C249     1.0000 0.71150  0.60680  0.94514  Biso   1.000  C
  H148     1.0000 0.67020  0.59990  0.92270  Biso   1.000  H
  C250     1.0000 0.69990  0.67610  0.97249  Biso   1.000  C
  C251     1.0000 0.76350  0.68490  0.00590  Biso   1.000  C
  C252     1.0000 0.81620  0.76620  0.07019  Biso   1.000  C
  C253     1.0000 0.57460  0.72790  0.82316  Biso   1.000  C
  C254     1.0000 0.64890  0.72780  0.79117  Biso   1.000  C
  C255     1.0000 0.64910  0.79380  0.76353  Biso   1.000  C
  H149     1.0000 0.60640  0.83830  0.76670  Biso   1.000  H
  C256     1.0000 0.71170  0.79550  0.73101  Biso   1.000  C
  H150     1.0000 0.71140  0.84160  0.71230  Biso   1.000  H
  C257     1.0000 0.77340  0.73210  0.72555  Biso   1.000  C
  C258     1.0000 0.84800  0.60360  0.75293  Biso   1.000  C
  H151     1.0000 0.89110  0.60450  0.73090  Biso   1.000  H
  C259     1.0000 0.85350  0.54250  0.78245  Biso   1.000  C
  H152     1.0000 0.90020  0.50120  0.78080  Biso   1.000  H
  C260     1.0000 0.79050  0.54010  0.81520  Biso   1.000  C
  H153     1.0000 0.79480  0.49710  0.83550  Biso   1.000  H
  C261     1.0000 0.72360  0.59900  0.81822  Biso   1.000  C
  H154     1.0000 0.68160  0.59700  0.84060  Biso   1.000  H
  C262     1.0000 0.71610  0.66350  0.78801  Biso   1.000  C
  C263     1.0000 0.77900  0.66570  0.75480  Biso   1.000  C
  C264     1.0000 0.83300  0.73580  0.68756  Biso   1.000  C
  C265     1.0000 0.38340  0.47110  0.90010  Biso   1.000  C
  H155     1.0000 0.35260  0.49990  0.92180  Biso   1.000  H
  C266     1.0000 0.37580  0.38430  0.89760  Biso   1.000  C
  H156     1.0000 0.33760  0.35510  0.91650  Biso   1.000  H
  C267     1.0000 0.42180  0.34160  0.86880  Biso   1.000  C
  C268     1.0000 0.46890  0.38500  0.84130  Biso   1.000  C
  H157     1.0000 0.50060  0.35680  0.81980  Biso   1.000  H
  C269     1.0000 0.47210  0.47160  0.84390  Biso   1.000  C
  H158     1.0000 0.50490  0.50180  0.82340  Biso   1.000  H
  N44      1.0000 0.43150  0.51380  0.87370  Biso   1.000  N
  O57      1.0000 0.53780  0.66650  0.91815  Biso   1.000  O
  O58      1.0000 0.52080  0.80450  0.92510  Biso   1.000  O
  O59      1.0000 0.84510  0.83862  0.07757  Biso   1.000  O
  O60      1.0000 0.83200  0.70200  0.09180  Biso   1.000  O
  O61      1.0000 0.55790  0.79700  0.84049  Biso   1.000  O
  O62      1.0000 0.53280  0.66010  0.83030  Biso   1.000  O
  O63      1.0000 0.84170  0.66950  0.66698  Biso   1.000  O
  O64      1.0000 0.86930  0.80570  0.67898  Biso   1.000  O
  Zn15     1.0000 0.43820  0.64106  0.87641  Biso   1.000  Zn
  Zn16     1.0000 0.44374  0.82493  0.87364  Biso   1.000  Zn
  N45      1.0000 0.39420  0.25430  0.87470  Biso   1.000  N
  N46      1.0000 0.46260  0.21370  0.86740  Biso   1.000  N
  C270     1.0000 0.43800  0.12510  0.87000  Biso   1.000  C
  C271     1.0000 0.36320  0.08120  0.86320  Biso   1.000  C
  H159     1.0000 0.30730  0.10900  0.85710  Biso   1.000  H
  C272     1.0000 0.51200  0.08310  0.88100  Biso   1.000  C
  H160     1.0000 0.56630  0.11280  0.88780  Biso   1.000  H
  N47      1.0000 0.44710  0.25410  0.86170  Biso   1.000  N
  N48      1.0000 0.40210  0.21060  0.87090  Biso   1.000  N
