data_image0
_cell_length_a       10.7029
_cell_length_b       28.176
_cell_length_c       34.014
_cell_angle_alpha    90
_cell_angle_beta     90
_cell_angle_gamma    90

_symmetry_space_group_name_H-M    "P 1"
_symmetry_int_tables_number       1

loop_
  _symmetry_equiv_pos_as_xyz
  'x, y, z'

loop_
  _atom_site_label
  _atom_site_occupancy
  _atom_site_fract_x
  _atom_site_fract_y
  _atom_site_fract_z
  _atom_site_thermal_displace_type
  _atom_site_B_iso_or_equiv
  _atom_site_type_symbol
  O1       1.0000 0.32370  0.35770  0.55644  Biso   1.000  O
  O2       1.0000 0.12780  0.24060  0.70413  Biso   1.000  O
  O3       1.0000 0.01600  0.30660  0.70909  Biso   1.000  O
  O4       1.0000 0.26760  0.36090  0.46040  Biso   1.000  O
  O5       1.0000 0.01690  0.13030  0.70644  Biso   1.000  O
  O6       1.0000 0.07720  0.05560  0.70250  Biso   1.000  O
  O7       1.0000 0.57870  0.35200  0.44060  Biso   1.000  O
  O8       1.0000 0.87440  0.21240  0.71000  Biso   1.000  O
  O9       1.0000 0.75670  0.27720  0.70341  Biso   1.000  O
  O10      1.0000 0.64370  0.36690  0.53748  Biso   1.000  O
  O11      1.0000 0.20240  0.96070  0.79960  Biso   1.000  O
  O12      1.0000 0.87110  0.38820  0.70735  Biso   1.000  O
  C1       1.0000 0.45430  0.35980  0.49920  Biso   1.000  C
  C2       1.0000 0.39530  0.32850  0.53070  Biso   1.000  C
  H1       1.0000 0.34070  0.30450  0.51820  Biso   1.000  H
  H2       1.0000 0.46120  0.31180  0.54570  Biso   1.000  H
  C3       1.0000 0.35820  0.39130  0.47800  Biso   1.000  C
  H3       1.0000 0.31740  0.41300  0.49700  Biso   1.000  H
  H4       1.0000 0.40000  0.41070  0.45760  Biso   1.000  H
  C4       1.0000 0.51470  0.32500  0.46990  Biso   1.000  C
  H5       1.0000 0.57430  0.30390  0.48370  Biso   1.000  H
  H6       1.0000 0.44960  0.30500  0.45740  Biso   1.000  H
  C5       1.0000 0.54710  0.39440  0.51770  Biso   1.000  C
  H7       1.0000 0.58500  0.41460  0.49710  Biso   1.000  H
  H8       1.0000 0.50380  0.41510  0.53680  Biso   1.000  H
  C6       1.0000 0.27240  0.33680  0.58920  Biso   1.000  C
  C7       1.0000 0.29020  0.28980  0.59970  Biso   1.000  C
  H9       1.0000 0.33930  0.26950  0.58360  Biso   1.000  H
  C8       1.0000 0.23580  0.27240  0.63400  Biso   1.000  C
  H10      1.0000 0.25160  0.24070  0.64200  Biso   1.000  H
  C9       1.0000 0.15830  0.30130  0.65660  Biso   1.000  C
  C10      1.0000 0.14220  0.34850  0.64600  Biso   1.000  C
  H11      1.0000 0.09170  0.36880  0.66170  Biso   1.000  H
  C11      1.0000 0.19950  0.36610  0.61260  Biso   1.000  C
  H12      1.0000 0.18880  0.39850  0.60560  Biso   1.000  H
  C12      1.0000 0.09590  0.28110  0.69320  Biso   1.000  C
  C13      1.0000 0.21480  0.37520  0.42550  Biso   1.000  C
  C14      1.0000 0.15420  0.33940  0.40460  Biso   1.000  C
  H13      1.0000 0.14790  0.30840  0.41550  Biso   1.000  H
  C15      1.0000 0.10390  0.34900  0.36850  Biso   1.000  C
  H14      1.0000 0.06190  0.32470  0.35440  Biso   1.000  H
  C16      1.0000 0.11380  0.39400  0.35240  Biso   1.000  C
  C17      1.0000 0.16590  0.43000  0.37430  Biso   1.000  C
  H15      1.0000 0.16740  0.46140  0.36410  Biso   1.000  H
  C18      1.0000 0.21620  0.42080  0.41110  Biso   1.000  C
  H16      1.0000 0.25130  0.44580  0.42630  Biso   1.000  H
  C19      1.0000 0.06760  0.09690  0.68850  Biso   1.000  C
  C20      1.0000 0.62580  0.32790  0.40870  Biso   1.000  C
  C21      1.0000 0.60200  0.28040  0.40060  Biso   1.000  C
  H17      1.0000 0.55170  0.26200  0.41790  Biso   1.000  H
  C22      1.0000 0.65290  0.26030  0.36700  Biso   1.000  C
  H18      1.0000 0.63400  0.22830  0.36060  Biso   1.000  H
  C23      1.0000 0.73070  0.28630  0.34280  Biso   1.000  C
  C24      1.0000 0.75360  0.33330  0.35140  Biso   1.000  C
  H19      1.0000 0.80640  0.35140  0.33470  Biso   1.000  H
  C25      1.0000 0.70140  0.35420  0.38360  Biso   1.000  C
  H20      1.0000 0.71670  0.38680  0.38890  Biso   1.000  H
  C26      1.0000 0.79110  0.23620  0.69310  Biso   1.000  C
  C27      1.0000 0.68510  0.38280  0.57270  Biso   1.000  C
  C28      1.0000 0.75700  0.35070  0.59380  Biso   1.000  C
  H21      1.0000 0.77680  0.32050  0.58290  Biso   1.000  H
  C29      1.0000 0.79950  0.36300  0.63100  Biso   1.000  C
  H22      1.0000 0.84710  0.34080  0.64570  Biso   1.000  H
  C30      1.0000 0.77380  0.40710  0.64700  Biso   1.000  C
  C31      1.0000 0.70530  0.43960  0.62530  Biso   1.000  C
  H23      1.0000 0.68860  0.47010  0.63600  Biso   1.000  H
  C32      1.0000 0.66020  0.42810  0.58780  Biso   1.000  C
  H24      1.0000 0.61370  0.45060  0.57290  Biso   1.000  H
  C33      1.0000 0.81690  0.41980  0.68780  Biso   1.000  C
  O13      1.0000 0.67630  0.64230  0.05644  Biso   1.000  O
  O14      1.0000 0.87220  0.75940  0.20413  Biso   1.000  O
  O15      1.0000 0.98400  0.69340  0.20909  Biso   1.000  O
  O16      1.0000 0.73240  0.63910  0.96040  Biso   1.000  O
  O17      1.0000 0.98310  0.86970  0.20644  Biso   1.000  O
  O18      1.0000 0.92280  0.94440  0.20250  Biso   1.000  O
  O19      1.0000 0.42130  0.64800  0.94060  Biso   1.000  O
  O20      1.0000 0.12560  0.78760  0.21000  Biso   1.000  O
  O21      1.0000 0.24330  0.72280  0.20341  Biso   1.000  O
  O22      1.0000 0.35630  0.63310  0.03748  Biso   1.000  O
  O23      1.0000 0.79760  0.03930  0.29960  Biso   1.000  O
  O24      1.0000 0.12890  0.61180  0.20735  Biso   1.000  O
  C34      1.0000 0.54570  0.64020  0.99920  Biso   1.000  C
  C35      1.0000 0.60470  0.67150  0.03070  Biso   1.000  C
  H25      1.0000 0.65930  0.69550  0.01820  Biso   1.000  H
  H26      1.0000 0.53880  0.68820  0.04570  Biso   1.000  H
  C36      1.0000 0.64180  0.60870  0.97800  Biso   1.000  C
  H27      1.0000 0.68260  0.58700  0.99700  Biso   1.000  H
  H28      1.0000 0.60000  0.58930  0.95760  Biso   1.000  H
  C37      1.0000 0.48530  0.67500  0.96990  Biso   1.000  C
  H29      1.0000 0.42570  0.69610  0.98370  Biso   1.000  H
  H30      1.0000 0.55040  0.69500  0.95740  Biso   1.000  H
  C38      1.0000 0.45290  0.60560  0.01770  Biso   1.000  C
  H31      1.0000 0.41500  0.58540  0.99710  Biso   1.000  H
  H32      1.0000 0.49620  0.58490  0.03680  Biso   1.000  H
  C39      1.0000 0.72760  0.66320  0.08920  Biso   1.000  C
  C40      1.0000 0.70980  0.71020  0.09970  Biso   1.000  C
  H33      1.0000 0.66070  0.73050  0.08360  Biso   1.000  H
  C41      1.0000 0.76420  0.72760  0.13400  Biso   1.000  C
  H34      1.0000 0.74840  0.75930  0.14200  Biso   1.000  H
  C42      1.0000 0.84170  0.69870  0.15660  Biso   1.000  C
  C43      1.0000 0.85780  0.65150  0.14600  Biso   1.000  C
  H35      1.0000 0.90830  0.63120  0.16170  Biso   1.000  H
  C44      1.0000 0.80050  0.63390  0.11260  Biso   1.000  C
  H36      1.0000 0.81120  0.60150  0.10560  Biso   1.000  H
  C45      1.0000 0.90410  0.71890  0.19320  Biso   1.000  C
  C46      1.0000 0.78520  0.62480  0.92550  Biso   1.000  C
  C47      1.0000 0.84580  0.66060  0.90460  Biso   1.000  C
  H37      1.0000 0.85210  0.69160  0.91550  Biso   1.000  H
  C48      1.0000 0.89610  0.65100  0.86850  Biso   1.000  C
  H38      1.0000 0.93810  0.67530  0.85440  Biso   1.000  H
  C49      1.0000 0.88620  0.60600  0.85240  Biso   1.000  C
  C50      1.0000 0.83410  0.57000  0.87430  Biso   1.000  C
  H39      1.0000 0.83260  0.53860  0.86410  Biso   1.000  H
  C51      1.0000 0.78380  0.57920  0.91110  Biso   1.000  C
  H40      1.0000 0.74870  0.55420  0.92630  Biso   1.000  H
  C52      1.0000 0.93240  0.90310  0.18850  Biso   1.000  C
  C53      1.0000 0.37420  0.67210  0.90870  Biso   1.000  C
  C54      1.0000 0.39800  0.71960  0.90060  Biso   1.000  C
  H41      1.0000 0.44830  0.73800  0.91790  Biso   1.000  H
  C55      1.0000 0.34710  0.73970  0.86700  Biso   1.000  C
  H42      1.0000 0.36600  0.77170  0.86060  Biso   1.000  H
  C56      1.0000 0.26930  0.71370  0.84280  Biso   1.000  C
  C57      1.0000 0.24640  0.66670  0.85140  Biso   1.000  C
  H43      1.0000 0.19360  0.64860  0.83470  Biso   1.000  H
  C58      1.0000 0.29860  0.64580  0.88360  Biso   1.000  C
  H44      1.0000 0.28330  0.61320  0.88890  Biso   1.000  H
  C59      1.0000 0.20890  0.76380  0.19310  Biso   1.000  C
  C60      1.0000 0.31490  0.61720  0.07270  Biso   1.000  C
  C61      1.0000 0.24300  0.64930  0.09380  Biso   1.000  C
  H45      1.0000 0.22320  0.67950  0.08290  Biso   1.000  H
  C62      1.0000 0.20050  0.63700  0.13100  Biso   1.000  C
  H46      1.0000 0.15290  0.65920  0.14570  Biso   1.000  H
  C63      1.0000 0.22620  0.59290  0.14700  Biso   1.000  C
  C64      1.0000 0.29470  0.56040  0.12530  Biso   1.000  C
  H47      1.0000 0.31140  0.52990  0.13600  Biso   1.000  H
  C65      1.0000 0.33980  0.57190  0.08780  Biso   1.000  C
  H48      1.0000 0.38630  0.54940  0.07290  Biso   1.000  H
  C66      1.0000 0.18310  0.58020  0.18780  Biso   1.000  C
  O25      1.0000 0.67630  0.85770  0.94356  Biso   1.000  O
  O26      1.0000 0.87220  0.74060  0.79587  Biso   1.000  O
  O27      1.0000 0.98400  0.80660  0.79091  Biso   1.000  O
  O28      1.0000 0.73240  0.86090  0.03960  Biso   1.000  O
  O29      1.0000 0.98310  0.63030  0.79356  Biso   1.000  O
  O30      1.0000 0.92280  0.55560  0.79750  Biso   1.000  O
  O31      1.0000 0.42130  0.85200  0.05940  Biso   1.000  O
  O32      1.0000 0.12560  0.71240  0.79000  Biso   1.000  O
  O33      1.0000 0.24330  0.77720  0.79659  Biso   1.000  O
  O34      1.0000 0.35630  0.86690  0.96252  Biso   1.000  O
  O35      1.0000 0.79760  0.46070  0.70040  Biso   1.000  O
  O36      1.0000 0.12890  0.88820  0.79265  Biso   1.000  O
  C67      1.0000 0.54570  0.85980  0.00080  Biso   1.000  C
  C68      1.0000 0.60470  0.82850  0.96930  Biso   1.000  C
  H49      1.0000 0.65930  0.80450  0.98180  Biso   1.000  H
  H50      1.0000 0.53880  0.81180  0.95430  Biso   1.000  H
  C69      1.0000 0.64180  0.89130  0.02200  Biso   1.000  C
  H51      1.0000 0.68260  0.91300  0.00300  Biso   1.000  H
  H52      1.0000 0.60000  0.91070  0.04240  Biso   1.000  H
  C70      1.0000 0.48530  0.82500  0.03010  Biso   1.000  C
  H53      1.0000 0.42570  0.80390  0.01630  Biso   1.000  H
  H54      1.0000 0.55040  0.80500  0.04260  Biso   1.000  H
  C71      1.0000 0.45290  0.89440  0.98230  Biso   1.000  C
  H55      1.0000 0.41500  0.91460  0.00290  Biso   1.000  H
  H56      1.0000 0.49620  0.91510  0.96320  Biso   1.000  H
  C72      1.0000 0.72760  0.83680  0.91080  Biso   1.000  C
  C73      1.0000 0.70980  0.78980  0.90030  Biso   1.000  C
  H57      1.0000 0.66070  0.76950  0.91640  Biso   1.000  H
  C74      1.0000 0.76420  0.77240  0.86600  Biso   1.000  C
  H58      1.0000 0.74840  0.74070  0.85800  Biso   1.000  H
  C75      1.0000 0.84170  0.80130  0.84340  Biso   1.000  C
  C76      1.0000 0.85780  0.84850  0.85400  Biso   1.000  C
  H59      1.0000 0.90830  0.86880  0.83830  Biso   1.000  H
  C77      1.0000 0.80050  0.86610  0.88740  Biso   1.000  C
  H60      1.0000 0.81120  0.89850  0.89440  Biso   1.000  H
  C78      1.0000 0.90410  0.78110  0.80680  Biso   1.000  C
  C79      1.0000 0.78520  0.87520  0.07450  Biso   1.000  C
  C80      1.0000 0.84580  0.83940  0.09540  Biso   1.000  C
  H61      1.0000 0.85210  0.80840  0.08450  Biso   1.000  H
  C81      1.0000 0.89610  0.84900  0.13150  Biso   1.000  C
  H62      1.0000 0.93810  0.82470  0.14560  Biso   1.000  H
  C82      1.0000 0.88620  0.89400  0.14760  Biso   1.000  C
  C83      1.0000 0.83410  0.93000  0.12570  Biso   1.000  C
  H63      1.0000 0.83260  0.96140  0.13590  Biso   1.000  H
  C84      1.0000 0.78380  0.92080  0.08890  Biso   1.000  C
  H64      1.0000 0.74870  0.94580  0.07370  Biso   1.000  H
  C85      1.0000 0.93240  0.59690  0.81150  Biso   1.000  C
  C86      1.0000 0.37420  0.82790  0.09130  Biso   1.000  C
  C87      1.0000 0.39800  0.78040  0.09940  Biso   1.000  C
  H65      1.0000 0.44830  0.76200  0.08210  Biso   1.000  H
  C88      1.0000 0.34710  0.76030  0.13300  Biso   1.000  C
  H66      1.0000 0.36600  0.72830  0.13940  Biso   1.000  H
  C89      1.0000 0.26930  0.78630  0.15720  Biso   1.000  C
  C90      1.0000 0.24640  0.83330  0.14860  Biso   1.000  C
  H67      1.0000 0.19360  0.85140  0.16530  Biso   1.000  H
  C91      1.0000 0.29860  0.85420  0.11640  Biso   1.000  C
  H68      1.0000 0.28330  0.88680  0.11110  Biso   1.000  H
  C92      1.0000 0.20890  0.73620  0.80690  Biso   1.000  C
  C93      1.0000 0.31490  0.88280  0.92730  Biso   1.000  C
  C94      1.0000 0.24300  0.85070  0.90620  Biso   1.000  C
  H69      1.0000 0.22320  0.82050  0.91710  Biso   1.000  H
  C95      1.0000 0.20050  0.86300  0.86900  Biso   1.000  C
  H70      1.0000 0.15290  0.84080  0.85430  Biso   1.000  H
  C96      1.0000 0.22620  0.90710  0.85300  Biso   1.000  C
  C97      1.0000 0.29470  0.93960  0.87470  Biso   1.000  C
  H71      1.0000 0.31140  0.97010  0.86400  Biso   1.000  H
  C98      1.0000 0.33980  0.92810  0.91220  Biso   1.000  C
  H72      1.0000 0.38630  0.95060  0.92710  Biso   1.000  H
  C99      1.0000 0.18310  0.91980  0.81220  Biso   1.000  C
  O37      1.0000 0.32370  0.14230  0.44356  Biso   1.000  O
  O38      1.0000 0.12780  0.25940  0.29587  Biso   1.000  O
  O39      1.0000 0.01600  0.19340  0.29091  Biso   1.000  O
  O40      1.0000 0.26760  0.13910  0.53960  Biso   1.000  O
  O41      1.0000 0.01690  0.36970  0.29356  Biso   1.000  O
  O42      1.0000 0.07720  0.44440  0.29750  Biso   1.000  O
  O43      1.0000 0.57870  0.14800  0.55940  Biso   1.000  O
  O44      1.0000 0.87440  0.28760  0.29000  Biso   1.000  O
  O45      1.0000 0.75670  0.22280  0.29659  Biso   1.000  O
  O46      1.0000 0.64370  0.13310  0.46252  Biso   1.000  O
  O47      1.0000 0.20240  0.53930  0.20040  Biso   1.000  O
  O48      1.0000 0.87110  0.11180  0.29265  Biso   1.000  O
  C100     1.0000 0.45430  0.14020  0.50080  Biso   1.000  C
  C101     1.0000 0.39530  0.17150  0.46930  Biso   1.000  C
  H73      1.0000 0.34070  0.19550  0.48180  Biso   1.000  H
  H74      1.0000 0.46120  0.18820  0.45430  Biso   1.000  H
  C102     1.0000 0.35820  0.10870  0.52200  Biso   1.000  C
  H75      1.0000 0.31740  0.08700  0.50300  Biso   1.000  H
  H76      1.0000 0.40000  0.08930  0.54240  Biso   1.000  H
  C103     1.0000 0.51470  0.17500  0.53010  Biso   1.000  C
  H77      1.0000 0.57430  0.19610  0.51630  Biso   1.000  H
  H78      1.0000 0.44960  0.19500  0.54260  Biso   1.000  H
  C104     1.0000 0.54710  0.10560  0.48230  Biso   1.000  C
  H79      1.0000 0.58500  0.08540  0.50290  Biso   1.000  H
  H80      1.0000 0.50380  0.08490  0.46320  Biso   1.000  H
  C105     1.0000 0.27240  0.16320  0.41080  Biso   1.000  C
  C106     1.0000 0.29020  0.21020  0.40030  Biso   1.000  C
  H81      1.0000 0.33930  0.23050  0.41640  Biso   1.000  H
  C107     1.0000 0.23580  0.22760  0.36600  Biso   1.000  C
  H82      1.0000 0.25160  0.25930  0.35800  Biso   1.000  H
  C108     1.0000 0.15830  0.19870  0.34340  Biso   1.000  C
  C109     1.0000 0.14220  0.15150  0.35400  Biso   1.000  C
  H83      1.0000 0.09170  0.13120  0.33830  Biso   1.000  H
  C110     1.0000 0.19950  0.13390  0.38740  Biso   1.000  C
  H84      1.0000 0.18880  0.10150  0.39440  Biso   1.000  H
  C111     1.0000 0.09590  0.21890  0.30680  Biso   1.000  C
  C112     1.0000 0.21480  0.12480  0.57450  Biso   1.000  C
  C113     1.0000 0.15420  0.16060  0.59540  Biso   1.000  C
  H85      1.0000 0.14790  0.19160  0.58450  Biso   1.000  H
  C114     1.0000 0.10390  0.15100  0.63150  Biso   1.000  C
  H86      1.0000 0.06190  0.17530  0.64560  Biso   1.000  H
  C115     1.0000 0.11380  0.10600  0.64760  Biso   1.000  C
  C116     1.0000 0.16590  0.07000  0.62570  Biso   1.000  C
  H87      1.0000 0.16740  0.03860  0.63590  Biso   1.000  H
  C117     1.0000 0.21620  0.07920  0.58890  Biso   1.000  C
  H88      1.0000 0.25130  0.05420  0.57370  Biso   1.000  H
  C118     1.0000 0.06760  0.40310  0.31150  Biso   1.000  C
  C119     1.0000 0.62580  0.17210  0.59130  Biso   1.000  C
  C120     1.0000 0.60200  0.21960  0.59940  Biso   1.000  C
  H89      1.0000 0.55170  0.23800  0.58210  Biso   1.000  H
  C121     1.0000 0.65290  0.23970  0.63300  Biso   1.000  C
  H90      1.0000 0.63400  0.27170  0.63940  Biso   1.000  H
  C122     1.0000 0.73070  0.21370  0.65720  Biso   1.000  C
  C123     1.0000 0.75360  0.16670  0.64860  Biso   1.000  C
  H91      1.0000 0.80640  0.14860  0.66530  Biso   1.000  H
  C124     1.0000 0.70140  0.14580  0.61640  Biso   1.000  C
  H92      1.0000 0.71670  0.11320  0.61110  Biso   1.000  H
  C125     1.0000 0.79110  0.26380  0.30690  Biso   1.000  C
  C126     1.0000 0.68510  0.11720  0.42730  Biso   1.000  C
  C127     1.0000 0.75700  0.14930  0.40620  Biso   1.000  C
  H93      1.0000 0.77680  0.17950  0.41710  Biso   1.000  H
  C128     1.0000 0.79950  0.13700  0.36900  Biso   1.000  C
  H94      1.0000 0.84710  0.15920  0.35430  Biso   1.000  H
  C129     1.0000 0.77380  0.09290  0.35300  Biso   1.000  C
  C130     1.0000 0.70530  0.06040  0.37470  Biso   1.000  C
  H95      1.0000 0.68860  0.02990  0.36400  Biso   1.000  H
  C131     1.0000 0.66020  0.07190  0.41220  Biso   1.000  C
  H96      1.0000 0.61370  0.04940  0.42710  Biso   1.000  H
  C132     1.0000 0.81690  0.08020  0.31220  Biso   1.000  C
  O49      1.0000 0.67630  0.64230  0.44356  Biso   1.000  O
  O50      1.0000 0.87220  0.75940  0.29587  Biso   1.000  O
  O51      1.0000 0.98400  0.69340  0.29091  Biso   1.000  O
  O52      1.0000 0.73240  0.63910  0.53960  Biso   1.000  O
  O53      1.0000 0.98310  0.86970  0.29356  Biso   1.000  O
  O54      1.0000 0.92280  0.94440  0.29750  Biso   1.000  O
  O55      1.0000 0.42130  0.64800  0.55940  Biso   1.000  O
  O56      1.0000 0.12560  0.78760  0.29000  Biso   1.000  O
  O57      1.0000 0.24330  0.72280  0.29659  Biso   1.000  O
  O58      1.0000 0.35630  0.63310  0.46252  Biso   1.000  O
  O59      1.0000 0.79760  0.03930  0.20040  Biso   1.000  O
  O60      1.0000 0.12890  0.61180  0.29265  Biso   1.000  O
  C133     1.0000 0.54570  0.64020  0.50080  Biso   1.000  C
  C134     1.0000 0.60470  0.67150  0.46930  Biso   1.000  C
  H97      1.0000 0.65930  0.69550  0.48180  Biso   1.000  H
  H98      1.0000 0.53880  0.68820  0.45430  Biso   1.000  H
  C135     1.0000 0.64180  0.60870  0.52200  Biso   1.000  C
  H99      1.0000 0.68260  0.58700  0.50300  Biso   1.000  H
  H100     1.0000 0.60000  0.58930  0.54240  Biso   1.000  H
  C136     1.0000 0.48530  0.67500  0.53010  Biso   1.000  C
  H101     1.0000 0.42570  0.69610  0.51630  Biso   1.000  H
  H102     1.0000 0.55040  0.69500  0.54260  Biso   1.000  H
  C137     1.0000 0.45290  0.60560  0.48230  Biso   1.000  C
  H103     1.0000 0.41500  0.58540  0.50290  Biso   1.000  H
  H104     1.0000 0.49620  0.58490  0.46320  Biso   1.000  H
  C138     1.0000 0.72760  0.66320  0.41080  Biso   1.000  C
  C139     1.0000 0.70980  0.71020  0.40030  Biso   1.000  C
  H105     1.0000 0.66070  0.73050  0.41640  Biso   1.000  H
  C140     1.0000 0.76420  0.72760  0.36600  Biso   1.000  C
  H106     1.0000 0.74840  0.75930  0.35800  Biso   1.000  H
  C141     1.0000 0.84170  0.69870  0.34340  Biso   1.000  C
  C142     1.0000 0.85780  0.65150  0.35400  Biso   1.000  C
  H107     1.0000 0.90830  0.63120  0.33830  Biso   1.000  H
  C143     1.0000 0.80050  0.63390  0.38740  Biso   1.000  C
  H108     1.0000 0.81120  0.60150  0.39440  Biso   1.000  H
  C144     1.0000 0.90410  0.71890  0.30680  Biso   1.000  C
  C145     1.0000 0.78520  0.62480  0.57450  Biso   1.000  C
  C146     1.0000 0.84580  0.66060  0.59540  Biso   1.000  C
  H109     1.0000 0.85210  0.69160  0.58450  Biso   1.000  H
  C147     1.0000 0.89610  0.65100  0.63150  Biso   1.000  C
  H110     1.0000 0.93810  0.67530  0.64560  Biso   1.000  H
  C148     1.0000 0.88620  0.60600  0.64760  Biso   1.000  C
  C149     1.0000 0.83410  0.57000  0.62570  Biso   1.000  C
  H111     1.0000 0.83260  0.53860  0.63590  Biso   1.000  H
  C150     1.0000 0.78380  0.57920  0.58890  Biso   1.000  C
  H112     1.0000 0.74870  0.55420  0.57370  Biso   1.000  H
  C151     1.0000 0.93240  0.90310  0.31150  Biso   1.000  C
  C152     1.0000 0.37420  0.67210  0.59130  Biso   1.000  C
  C153     1.0000 0.39800  0.71960  0.59940  Biso   1.000  C
  H113     1.0000 0.44830  0.73800  0.58210  Biso   1.000  H
  C154     1.0000 0.34710  0.73970  0.63300  Biso   1.000  C
  H114     1.0000 0.36600  0.77170  0.63940  Biso   1.000  H
  C155     1.0000 0.26930  0.71370  0.65720  Biso   1.000  C
  C156     1.0000 0.24640  0.66670  0.64860  Biso   1.000  C
  H115     1.0000 0.19360  0.64860  0.66530  Biso   1.000  H
  C157     1.0000 0.29860  0.64580  0.61640  Biso   1.000  C
  H116     1.0000 0.28330  0.61320  0.61110  Biso   1.000  H
  C158     1.0000 0.20890  0.76380  0.30690  Biso   1.000  C
  C159     1.0000 0.31490  0.61720  0.42730  Biso   1.000  C
  C160     1.0000 0.24300  0.64930  0.40620  Biso   1.000  C
  H117     1.0000 0.22320  0.67950  0.41710  Biso   1.000  H
  C161     1.0000 0.20050  0.63700  0.36900  Biso   1.000  C
  H118     1.0000 0.15290  0.65920  0.35430  Biso   1.000  H
  C162     1.0000 0.22620  0.59290  0.35300  Biso   1.000  C
  C163     1.0000 0.29470  0.56040  0.37470  Biso   1.000  C
  H119     1.0000 0.31140  0.52990  0.36400  Biso   1.000  H
  C164     1.0000 0.33980  0.57190  0.41220  Biso   1.000  C
  H120     1.0000 0.38630  0.54940  0.42710  Biso   1.000  H
  C165     1.0000 0.18310  0.58020  0.31220  Biso   1.000  C
  O61      1.0000 0.32370  0.35770  0.94356  Biso   1.000  O
  O62      1.0000 0.12780  0.24060  0.79587  Biso   1.000  O
  O63      1.0000 0.01600  0.30660  0.79091  Biso   1.000  O
  O64      1.0000 0.26760  0.36090  0.03960  Biso   1.000  O
  O65      1.0000 0.01690  0.13030  0.79356  Biso   1.000  O
  O66      1.0000 0.07720  0.05560  0.79750  Biso   1.000  O
  O67      1.0000 0.57870  0.35200  0.05940  Biso   1.000  O
  O68      1.0000 0.87440  0.21240  0.79000  Biso   1.000  O
  O69      1.0000 0.75670  0.27720  0.79659  Biso   1.000  O
  O70      1.0000 0.64370  0.36690  0.96252  Biso   1.000  O
  O71      1.0000 0.20240  0.96070  0.70040  Biso   1.000  O
  O72      1.0000 0.87110  0.38820  0.79265  Biso   1.000  O
  C166     1.0000 0.45430  0.35980  0.00080  Biso   1.000  C
  C167     1.0000 0.39530  0.32850  0.96930  Biso   1.000  C
  H121     1.0000 0.34070  0.30450  0.98180  Biso   1.000  H
  H122     1.0000 0.46120  0.31180  0.95430  Biso   1.000  H
  C168     1.0000 0.35820  0.39130  0.02200  Biso   1.000  C
  H123     1.0000 0.31740  0.41300  0.00300  Biso   1.000  H
  H124     1.0000 0.40000  0.41070  0.04240  Biso   1.000  H
  C169     1.0000 0.51470  0.32500  0.03010  Biso   1.000  C
  H125     1.0000 0.57430  0.30390  0.01630  Biso   1.000  H
  H126     1.0000 0.44960  0.30500  0.04260  Biso   1.000  H
  C170     1.0000 0.54710  0.39440  0.98230  Biso   1.000  C
  H127     1.0000 0.58500  0.41460  0.00290  Biso   1.000  H
  H128     1.0000 0.50380  0.41510  0.96320  Biso   1.000  H
  C171     1.0000 0.27240  0.33680  0.91080  Biso   1.000  C
  C172     1.0000 0.29020  0.28980  0.90030  Biso   1.000  C
  H129     1.0000 0.33930  0.26950  0.91640  Biso   1.000  H
  C173     1.0000 0.23580  0.27240  0.86600  Biso   1.000  C
  H130     1.0000 0.25160  0.24070  0.85800  Biso   1.000  H
  C174     1.0000 0.15830  0.30130  0.84340  Biso   1.000  C
  C175     1.0000 0.14220  0.34850  0.85400  Biso   1.000  C
  H131     1.0000 0.09170  0.36880  0.83830  Biso   1.000  H
  C176     1.0000 0.19950  0.36610  0.88740  Biso   1.000  C
  H132     1.0000 0.18880  0.39850  0.89440  Biso   1.000  H
  C177     1.0000 0.09590  0.28110  0.80680  Biso   1.000  C
  C178     1.0000 0.21480  0.37520  0.07450  Biso   1.000  C
  C179     1.0000 0.15420  0.33940  0.09540  Biso   1.000  C
  H133     1.0000 0.14790  0.30840  0.08450  Biso   1.000  H
  C180     1.0000 0.10390  0.34900  0.13150  Biso   1.000  C
  H134     1.0000 0.06190  0.32470  0.14560  Biso   1.000  H
  C181     1.0000 0.11380  0.39400  0.14760  Biso   1.000  C
  C182     1.0000 0.16590  0.43000  0.12570  Biso   1.000  C
  H135     1.0000 0.16740  0.46140  0.13590  Biso   1.000  H
  C183     1.0000 0.21620  0.42080  0.08890  Biso   1.000  C
  H136     1.0000 0.25130  0.44580  0.07370  Biso   1.000  H
  C184     1.0000 0.06760  0.09690  0.81150  Biso   1.000  C
  C185     1.0000 0.62580  0.32790  0.09130  Biso   1.000  C
  C186     1.0000 0.60200  0.28040  0.09940  Biso   1.000  C
  H137     1.0000 0.55170  0.26200  0.08210  Biso   1.000  H
  C187     1.0000 0.65290  0.26030  0.13300  Biso   1.000  C
  H138     1.0000 0.63400  0.22830  0.13940  Biso   1.000  H
  C188     1.0000 0.73070  0.28630  0.15720  Biso   1.000  C
  C189     1.0000 0.75360  0.33330  0.14860  Biso   1.000  C
  H139     1.0000 0.80640  0.35140  0.16530  Biso   1.000  H
  C190     1.0000 0.70140  0.35420  0.11640  Biso   1.000  C
  H140     1.0000 0.71670  0.38680  0.11110  Biso   1.000  H
  C191     1.0000 0.79110  0.23620  0.80690  Biso   1.000  C
  C192     1.0000 0.68510  0.38280  0.92730  Biso   1.000  C
  C193     1.0000 0.75700  0.35070  0.90620  Biso   1.000  C
  H141     1.0000 0.77680  0.32050  0.91710  Biso   1.000  H
  C194     1.0000 0.79950  0.36300  0.86900  Biso   1.000  C
  H142     1.0000 0.84710  0.34080  0.85430  Biso   1.000  H
  C195     1.0000 0.77380  0.40710  0.85300  Biso   1.000  C
  C196     1.0000 0.70530  0.43960  0.87470  Biso   1.000  C
  H143     1.0000 0.68860  0.47010  0.86400  Biso   1.000  H
  C197     1.0000 0.66020  0.42810  0.91220  Biso   1.000  C
  H144     1.0000 0.61370  0.45060  0.92710  Biso   1.000  H
  C198     1.0000 0.81690  0.41980  0.81220  Biso   1.000  C
  O73      1.0000 0.32370  0.14230  0.05644  Biso   1.000  O
  O74      1.0000 0.12780  0.25940  0.20413  Biso   1.000  O
  O75      1.0000 0.01600  0.19340  0.20909  Biso   1.000  O
  O76      1.0000 0.26760  0.13910  0.96040  Biso   1.000  O
  O77      1.0000 0.01690  0.36970  0.20644  Biso   1.000  O
  O78      1.0000 0.07720  0.44440  0.20250  Biso   1.000  O
  O79      1.0000 0.57870  0.14800  0.94060  Biso   1.000  O
  O80      1.0000 0.87440  0.28760  0.21000  Biso   1.000  O
  O81      1.0000 0.75670  0.22280  0.20341  Biso   1.000  O
  O82      1.0000 0.64370  0.13310  0.03748  Biso   1.000  O
  O83      1.0000 0.20240  0.53930  0.29960  Biso   1.000  O
  O84      1.0000 0.87110  0.11180  0.20735  Biso   1.000  O
  C199     1.0000 0.45430  0.14020  0.99920  Biso   1.000  C
  C200     1.0000 0.39530  0.17150  0.03070  Biso   1.000  C
  H145     1.0000 0.34070  0.19550  0.01820  Biso   1.000  H
  H146     1.0000 0.46120  0.18820  0.04570  Biso   1.000  H
  C201     1.0000 0.35820  0.10870  0.97800  Biso   1.000  C
  H147     1.0000 0.31740  0.08700  0.99700  Biso   1.000  H
  H148     1.0000 0.40000  0.08930  0.95760  Biso   1.000  H
  C202     1.0000 0.51470  0.17500  0.96990  Biso   1.000  C
  H149     1.0000 0.57430  0.19610  0.98370  Biso   1.000  H
  H150     1.0000 0.44960  0.19500  0.95740  Biso   1.000  H
  C203     1.0000 0.54710  0.10560  0.01770  Biso   1.000  C
  H151     1.0000 0.58500  0.08540  0.99710  Biso   1.000  H
  H152     1.0000 0.50380  0.08490  0.03680  Biso   1.000  H
  C204     1.0000 0.27240  0.16320  0.08920  Biso   1.000  C
  C205     1.0000 0.29020  0.21020  0.09970  Biso   1.000  C
  H153     1.0000 0.33930  0.23050  0.08360  Biso   1.000  H
  C206     1.0000 0.23580  0.22760  0.13400  Biso   1.000  C
  H154     1.0000 0.25160  0.25930  0.14200  Biso   1.000  H
  C207     1.0000 0.15830  0.19870  0.15660  Biso   1.000  C
  C208     1.0000 0.14220  0.15150  0.14600  Biso   1.000  C
  H155     1.0000 0.09170  0.13120  0.16170  Biso   1.000  H
  C209     1.0000 0.19950  0.13390  0.11260  Biso   1.000  C
  H156     1.0000 0.18880  0.10150  0.10560  Biso   1.000  H
  C210     1.0000 0.09590  0.21890  0.19320  Biso   1.000  C
  C211     1.0000 0.21480  0.12480  0.92550  Biso   1.000  C
  C212     1.0000 0.15420  0.16060  0.90460  Biso   1.000  C
  H157     1.0000 0.14790  0.19160  0.91550  Biso   1.000  H
  C213     1.0000 0.10390  0.15100  0.86850  Biso   1.000  C
  H158     1.0000 0.06190  0.17530  0.85440  Biso   1.000  H
  C214     1.0000 0.11380  0.10600  0.85240  Biso   1.000  C
  C215     1.0000 0.16590  0.07000  0.87430  Biso   1.000  C
  H159     1.0000 0.16740  0.03860  0.86410  Biso   1.000  H
  C216     1.0000 0.21620  0.07920  0.91110  Biso   1.000  C
  H160     1.0000 0.25130  0.05420  0.92630  Biso   1.000  H
  C217     1.0000 0.06760  0.40310  0.18850  Biso   1.000  C
  C218     1.0000 0.62580  0.17210  0.90870  Biso   1.000  C
  C219     1.0000 0.60200  0.21960  0.90060  Biso   1.000  C
  H161     1.0000 0.55170  0.23800  0.91790  Biso   1.000  H
  C220     1.0000 0.65290  0.23970  0.86700  Biso   1.000  C
  H162     1.0000 0.63400  0.27170  0.86060  Biso   1.000  H
  C221     1.0000 0.73070  0.21370  0.84280  Biso   1.000  C
  C222     1.0000 0.75360  0.16670  0.85140  Biso   1.000  C
  H163     1.0000 0.80640  0.14860  0.83470  Biso   1.000  H
  C223     1.0000 0.70140  0.14580  0.88360  Biso   1.000  C
  H164     1.0000 0.71670  0.11320  0.88890  Biso   1.000  H
  C224     1.0000 0.79110  0.26380  0.19310  Biso   1.000  C
  C225     1.0000 0.68510  0.11720  0.07270  Biso   1.000  C
  C226     1.0000 0.75700  0.14930  0.09380  Biso   1.000  C
  H165     1.0000 0.77680  0.17950  0.08290  Biso   1.000  H
  C227     1.0000 0.79950  0.13700  0.13100  Biso   1.000  C
  H166     1.0000 0.84710  0.15920  0.14570  Biso   1.000  H
  C228     1.0000 0.77380  0.09290  0.14700  Biso   1.000  C
  C229     1.0000 0.70530  0.06040  0.12530  Biso   1.000  C
  H167     1.0000 0.68860  0.02990  0.13600  Biso   1.000  H
  C230     1.0000 0.66020  0.07190  0.08780  Biso   1.000  C
  H168     1.0000 0.61370  0.04940  0.07290  Biso   1.000  H
  C231     1.0000 0.81690  0.08020  0.18780  Biso   1.000  C
  O85      1.0000 0.67630  0.85770  0.55644  Biso   1.000  O
  O86      1.0000 0.87220  0.74060  0.70413  Biso   1.000  O
  O87      1.0000 0.98400  0.80660  0.70909  Biso   1.000  O
  O88      1.0000 0.73240  0.86090  0.46040  Biso   1.000  O
  O89      1.0000 0.98310  0.63030  0.70644  Biso   1.000  O
  O90      1.0000 0.92280  0.55560  0.70250  Biso   1.000  O
  O91      1.0000 0.42130  0.85200  0.44060  Biso   1.000  O
  O92      1.0000 0.12560  0.71240  0.71000  Biso   1.000  O
  O93      1.0000 0.24330  0.77720  0.70341  Biso   1.000  O
  O94      1.0000 0.35630  0.86690  0.53748  Biso   1.000  O
  O95      1.0000 0.79760  0.46070  0.79960  Biso   1.000  O
  O96      1.0000 0.12890  0.88820  0.70735  Biso   1.000  O
  C232     1.0000 0.54570  0.85980  0.49920  Biso   1.000  C
  C233     1.0000 0.60470  0.82850  0.53070  Biso   1.000  C
  H169     1.0000 0.65930  0.80450  0.51820  Biso   1.000  H
  H170     1.0000 0.53880  0.81180  0.54570  Biso   1.000  H
  C234     1.0000 0.64180  0.89130  0.47800  Biso   1.000  C
  H171     1.0000 0.68260  0.91300  0.49700  Biso   1.000  H
  H172     1.0000 0.60000  0.91070  0.45760  Biso   1.000  H
  C235     1.0000 0.48530  0.82500  0.46990  Biso   1.000  C
  H173     1.0000 0.42570  0.80390  0.48370  Biso   1.000  H
  H174     1.0000 0.55040  0.80500  0.45740  Biso   1.000  H
  C236     1.0000 0.45290  0.89440  0.51770  Biso   1.000  C
  H175     1.0000 0.41500  0.91460  0.49710  Biso   1.000  H
  H176     1.0000 0.49620  0.91510  0.53680  Biso   1.000  H
  C237     1.0000 0.72760  0.83680  0.58920  Biso   1.000  C
  C238     1.0000 0.70980  0.78980  0.59970  Biso   1.000  C
  H177     1.0000 0.66070  0.76950  0.58360  Biso   1.000  H
  C239     1.0000 0.76420  0.77240  0.63400  Biso   1.000  C
  H178     1.0000 0.74840  0.74070  0.64200  Biso   1.000  H
  C240     1.0000 0.84170  0.80130  0.65660  Biso   1.000  C
  C241     1.0000 0.85780  0.84850  0.64600  Biso   1.000  C
  H179     1.0000 0.90830  0.86880  0.66170  Biso   1.000  H
  C242     1.0000 0.80050  0.86610  0.61260  Biso   1.000  C
  H180     1.0000 0.81120  0.89850  0.60560  Biso   1.000  H
  C243     1.0000 0.90410  0.78110  0.69320  Biso   1.000  C
  C244     1.0000 0.78520  0.87520  0.42550  Biso   1.000  C
  C245     1.0000 0.84580  0.83940  0.40460  Biso   1.000  C
  H181     1.0000 0.85210  0.80840  0.41550  Biso   1.000  H
  C246     1.0000 0.89610  0.84900  0.36850  Biso   1.000  C
  H182     1.0000 0.93810  0.82470  0.35440  Biso   1.000  H
  C247     1.0000 0.88620  0.89400  0.35240  Biso   1.000  C
  C248     1.0000 0.83410  0.93000  0.37430  Biso   1.000  C
  H183     1.0000 0.83260  0.96140  0.36410  Biso   1.000  H
  C249     1.0000 0.78380  0.92080  0.41110  Biso   1.000  C
  H184     1.0000 0.74870  0.94580  0.42630  Biso   1.000  H
  C250     1.0000 0.93240  0.59690  0.68850  Biso   1.000  C
  C251     1.0000 0.37420  0.82790  0.40870  Biso   1.000  C
  C252     1.0000 0.39800  0.78040  0.40060  Biso   1.000  C
  H185     1.0000 0.44830  0.76200  0.41790  Biso   1.000  H
  C253     1.0000 0.34710  0.76030  0.36700  Biso   1.000  C
  H186     1.0000 0.36600  0.72830  0.36060  Biso   1.000  H
  C254     1.0000 0.26930  0.78630  0.34280  Biso   1.000  C
  C255     1.0000 0.24640  0.83330  0.35140  Biso   1.000  C
  H187     1.0000 0.19360  0.85140  0.33470  Biso   1.000  H
  C256     1.0000 0.29860  0.85420  0.38360  Biso   1.000  C
  H188     1.0000 0.28330  0.88680  0.38890  Biso   1.000  H
  C257     1.0000 0.20890  0.73620  0.69310  Biso   1.000  C
  C258     1.0000 0.31490  0.88280  0.57270  Biso   1.000  C
  C259     1.0000 0.24300  0.85070  0.59380  Biso   1.000  C
  H189     1.0000 0.22320  0.82050  0.58290  Biso   1.000  H
  C260     1.0000 0.20050  0.86300  0.63100  Biso   1.000  C
  H190     1.0000 0.15290  0.84080  0.64570  Biso   1.000  H
  C261     1.0000 0.22620  0.90710  0.64700  Biso   1.000  C
  C262     1.0000 0.29470  0.93960  0.62530  Biso   1.000  C
  H191     1.0000 0.31140  0.97010  0.63600  Biso   1.000  H
  C263     1.0000 0.33980  0.92810  0.58780  Biso   1.000  C
  H192     1.0000 0.38630  0.95060  0.57290  Biso   1.000  H
  C264     1.0000 0.18310  0.91980  0.68780  Biso   1.000  C
  Dy1      1.0000 0.03356  0.19094  0.75000  Biso   1.000  Dy
  Dy2      1.0000 0.85371  0.32561  0.75000  Biso   1.000  Dy
  Dy3      1.0000 0.17890  0.01253  0.75000  Biso   1.000  Dy
  N1       1.0000 0.91660  0.99600  0.75000  Biso   1.000  N
  O97      1.0000 0.95400  0.03590  0.75000  Biso   1.000  O
  O98      1.0000 0.98630  0.96360  0.75000  Biso   1.000  O
  O99      1.0000 0.80580  0.98890  0.75000  Biso   1.000  O
  O100     1.0000 0.40000  0.56980  0.75000  Biso   1.000  O
  Dy4      1.0000 0.88610  0.50574  0.75000  Biso   1.000  Dy
  N2       1.0000 0.62400  0.53020  0.75000  Biso   1.000  N
  O101     1.0000 0.65630  0.48940  0.75000  Biso   1.000  O
  O102     1.0000 0.70250  0.56030  0.75000  Biso   1.000  O
  O103     1.0000 0.51700  0.54010  0.75000  Biso   1.000  O
  Dy5      1.0000 0.96644  0.80906  0.25000  Biso   1.000  Dy
  Dy6      1.0000 0.14629  0.67439  0.25000  Biso   1.000  Dy
  Dy7      1.0000 0.82110  0.98747  0.25000  Biso   1.000  Dy
  N3       1.0000 0.08340  0.00400  0.25000  Biso   1.000  N
  O104     1.0000 0.04600  0.96410  0.25000  Biso   1.000  O
  O105     1.0000 0.01370  0.03640  0.25000  Biso   1.000  O
  O106     1.0000 0.19420  0.01110  0.25000  Biso   1.000  O
  O107     1.0000 0.60000  0.43020  0.25000  Biso   1.000  O
  Dy8      1.0000 0.11390  0.49426  0.25000  Biso   1.000  Dy
  N4       1.0000 0.37600  0.46980  0.25000  Biso   1.000  N
  O108     1.0000 0.34370  0.51060  0.25000  Biso   1.000  O
  O109     1.0000 0.29750  0.43970  0.25000  Biso   1.000  O
  O110     1.0000 0.48300  0.45990  0.25000  Biso   1.000  O
  Dy9      1.0000 0.96644  0.69094  0.75000  Biso   1.000  Dy
  Dy10     1.0000 0.14629  0.82561  0.75000  Biso   1.000  Dy
  Dy11     1.0000 0.82110  0.51253  0.75000  Biso   1.000  Dy
  N5       1.0000 0.08340  0.49600  0.75000  Biso   1.000  N
  O111     1.0000 0.04600  0.53590  0.75000  Biso   1.000  O
  O112     1.0000 0.01370  0.46360  0.75000  Biso   1.000  O
  O113     1.0000 0.19420  0.48890  0.75000  Biso   1.000  O
  O114     1.0000 0.60000  0.06980  0.75000  Biso   1.000  O
  Dy12     1.0000 0.11390  0.00574  0.75000  Biso   1.000  Dy
  N6       1.0000 0.37600  0.03020  0.75000  Biso   1.000  N
  O115     1.0000 0.34370  0.98940  0.75000  Biso   1.000  O
  O116     1.0000 0.29750  0.06030  0.75000  Biso   1.000  O
  O117     1.0000 0.48300  0.04010  0.75000  Biso   1.000  O
  Dy13     1.0000 0.03356  0.30906  0.25000  Biso   1.000  Dy
  Dy14     1.0000 0.85371  0.17439  0.25000  Biso   1.000  Dy
  Dy15     1.0000 0.17890  0.48747  0.25000  Biso   1.000  Dy
  N7       1.0000 0.91660  0.50400  0.25000  Biso   1.000  N
  O118     1.0000 0.95400  0.46410  0.25000  Biso   1.000  O
  O119     1.0000 0.98630  0.53640  0.25000  Biso   1.000  O
  O120     1.0000 0.80580  0.51110  0.25000  Biso   1.000  O
  O121     1.0000 0.40000  0.93020  0.25000  Biso   1.000  O
  Dy16     1.0000 0.88610  0.99426  0.25000  Biso   1.000  Dy
  N8       1.0000 0.62400  0.96980  0.25000  Biso   1.000  N
  O122     1.0000 0.65630  0.01060  0.25000  Biso   1.000  O
  O123     1.0000 0.70250  0.93970  0.25000  Biso   1.000  O
  O124     1.0000 0.51700  0.95990  0.25000  Biso   1.000  O
