data_image0
_cell_length_a       18.7824
_cell_length_b       19.6842
_cell_length_c       12.049
_cell_angle_alpha    90
_cell_angle_beta     90
_cell_angle_gamma    90

_symmetry_space_group_name_H-M    "P 1"
_symmetry_int_tables_number       1

loop_
  _symmetry_equiv_pos_as_xyz
  'x, y, z'

loop_
  _atom_site_label
  _atom_site_occupancy
  _atom_site_fract_x
  _atom_site_fract_y
  _atom_site_fract_z
  _atom_site_thermal_displace_type
  _atom_site_B_iso_or_equiv
  _atom_site_type_symbol
  Co1      1.0000 0.30798  0.83751  0.32270  Biso   1.000  Co
  C1       1.0000 0.21490  0.96150  0.38100  Biso   1.000  C
  H1       1.0000 0.18840  0.94530  0.31940  Biso   1.000  H
  C2       1.0000 0.18960  0.01820  0.43810  Biso   1.000  C
  H2       1.0000 0.14650  0.03940  0.41560  Biso   1.000  H
  C3       1.0000 0.22660  0.04290  0.52550  Biso   1.000  C
  C4       1.0000 0.29050  0.00970  0.55570  Biso   1.000  C
  H3       1.0000 0.31780  0.02500  0.61720  Biso   1.000  H
  C5       1.0000 0.31220  0.95460  0.49420  Biso   1.000  C
  H4       1.0000 0.35610  0.93340  0.51280  Biso   1.000  H
  C6       1.0000 0.20250  0.10460  0.59010  Biso   1.000  C
  C7       1.0000 0.99160  0.80720  0.42570  Biso   1.000  C
  H5       1.0000 0.96740  0.84920  0.43520  Biso   1.000  H
  C8       1.0000 0.06300  0.80920  0.40310  Biso   1.000  C
  H6       1.0000 0.08710  0.85150  0.39900  Biso   1.000  H
  C9       1.0000 0.30240  0.79580  0.82170  Biso   1.000  C
  H7       1.0000 0.27500  0.82890  0.86010  Biso   1.000  H
  C10      1.0000 0.30350  0.79670  0.70430  Biso   1.000  C
  H8       1.0000 0.27800  0.83110  0.66580  Biso   1.000  H
  N1       1.0000 0.27410  0.92930  0.40870  Biso   1.000  N
  H9       1.0000 0.38370  0.75820  0.25850  Biso   1.000  H
  O1       1.0000 0.16210  0.14530  0.54290  Biso   1.000  O
  O2       1.0000 0.22750  0.11060  0.68620  Biso   1.000  O
  O3       1.0000 0.20440  0.80410  0.33980  Biso   1.000  O
  O4       1.0000 0.34130  0.80510  0.47710  Biso   1.000  O
  C11      1.0000 0.12660  0.29790  0.32270  Biso   1.000  C
  C12      1.0000 0.12460  0.30060  0.20770  Biso   1.000  C
  H10      1.0000 0.10180  0.33190  0.36320  Biso   1.000  H
  H11      1.0000 0.09980  0.33610  0.17090  Biso   1.000  H
  Co2      1.0000 0.19202  0.16249  0.82270  Biso   1.000  Co
  C13      1.0000 0.28510  0.03850  0.88100  Biso   1.000  C
  H12      1.0000 0.31160  0.05470  0.81940  Biso   1.000  H
  C14      1.0000 0.31040  0.98180  0.93810  Biso   1.000  C
  H13      1.0000 0.35350  0.96060  0.91560  Biso   1.000  H
  C15      1.0000 0.27340  0.95710  0.02550  Biso   1.000  C
  C16      1.0000 0.20950  0.99030  0.05570  Biso   1.000  C
  H14      1.0000 0.18220  0.97500  0.11720  Biso   1.000  H
  C17      1.0000 0.18780  0.04540  0.99420  Biso   1.000  C
  H15      1.0000 0.14390  0.06660  0.01280  Biso   1.000  H
  C18      1.0000 0.29750  0.89540  0.09010  Biso   1.000  C
  C19      1.0000 0.50840  0.19280  0.92570  Biso   1.000  C
  H16      1.0000 0.53260  0.15080  0.93520  Biso   1.000  H
  C20      1.0000 0.43700  0.19080  0.90310  Biso   1.000  C
  H17      1.0000 0.41290  0.14850  0.89900  Biso   1.000  H
  C21      1.0000 0.19760  0.20420  0.32170  Biso   1.000  C
  H18      1.0000 0.22500  0.17110  0.36010  Biso   1.000  H
  C22      1.0000 0.19650  0.20330  0.20430  Biso   1.000  C
  H19      1.0000 0.22200  0.16890  0.16580  Biso   1.000  H
  N2       1.0000 0.22590  0.07070  0.90870  Biso   1.000  N
  H20      1.0000 0.11630  0.24180  0.75850  Biso   1.000  H
  O5       1.0000 0.33790  0.85470  0.04290  Biso   1.000  O
  O6       1.0000 0.27250  0.88940  0.18620  Biso   1.000  O
  O7       1.0000 0.29560  0.19590  0.83980  Biso   1.000  O
  O8       1.0000 0.15870  0.19490  0.97710  Biso   1.000  O
  C23      1.0000 0.37340  0.70210  0.82270  Biso   1.000  C
  C24      1.0000 0.37540  0.69940  0.70770  Biso   1.000  C
  H21      1.0000 0.39820  0.66810  0.86320  Biso   1.000  H
  H22      1.0000 0.40020  0.66390  0.67090  Biso   1.000  H
  Co3      1.0000 0.69202  0.33751  0.67730  Biso   1.000  Co
  C25      1.0000 0.78510  0.46150  0.61900  Biso   1.000  C
  H23      1.0000 0.81160  0.44530  0.68060  Biso   1.000  H
  C26      1.0000 0.81040  0.51820  0.56190  Biso   1.000  C
  H24      1.0000 0.85350  0.53940  0.58440  Biso   1.000  H
  C27      1.0000 0.77340  0.54290  0.47450  Biso   1.000  C
  C28      1.0000 0.70950  0.50970  0.44430  Biso   1.000  C
  H25      1.0000 0.68220  0.52500  0.38280  Biso   1.000  H
  C29      1.0000 0.68780  0.45460  0.50580  Biso   1.000  C
  H26      1.0000 0.64390  0.43340  0.48720  Biso   1.000  H
  C30      1.0000 0.79750  0.60460  0.40990  Biso   1.000  C
  C31      1.0000 0.00840  0.30720  0.57430  Biso   1.000  C
  H27      1.0000 0.03260  0.34920  0.56480  Biso   1.000  H
  C32      1.0000 0.93700  0.30920  0.59690  Biso   1.000  C
  H28      1.0000 0.91290  0.35150  0.60100  Biso   1.000  H
  C33      1.0000 0.69760  0.29580  0.17830  Biso   1.000  C
  H29      1.0000 0.72500  0.32890  0.13990  Biso   1.000  H
  C34      1.0000 0.69650  0.29670  0.29570  Biso   1.000  C
  H30      1.0000 0.72200  0.33110  0.33420  Biso   1.000  H
  N3       1.0000 0.72590  0.42930  0.59130  Biso   1.000  N
  H31      1.0000 0.61630  0.25820  0.74150  Biso   1.000  H
  O9       1.0000 0.83790  0.64530  0.45710  Biso   1.000  O
  O10      1.0000 0.77250  0.61060  0.31380  Biso   1.000  O
  O11      1.0000 0.79560  0.30410  0.66020  Biso   1.000  O
  O12      1.0000 0.65870  0.30510  0.52290  Biso   1.000  O
  C35      1.0000 0.87340  0.79790  0.67730  Biso   1.000  C
  C36      1.0000 0.87540  0.80060  0.79230  Biso   1.000  C
  H32      1.0000 0.89820  0.83190  0.63680  Biso   1.000  H
  H33      1.0000 0.90020  0.83610  0.82910  Biso   1.000  H
  Co4      1.0000 0.80798  0.66249  0.17730  Biso   1.000  Co
  C37      1.0000 0.71490  0.53850  0.11900  Biso   1.000  C
  H34      1.0000 0.68840  0.55470  0.18060  Biso   1.000  H
  C38      1.0000 0.68960  0.48180  0.06190  Biso   1.000  C
  H35      1.0000 0.64650  0.46060  0.08440  Biso   1.000  H
  C39      1.0000 0.72660  0.45710  0.97450  Biso   1.000  C
  C40      1.0000 0.79050  0.49030  0.94430  Biso   1.000  C
  H36      1.0000 0.81780  0.47500  0.88280  Biso   1.000  H
  C41      1.0000 0.81220  0.54540  0.00580  Biso   1.000  C
  H37      1.0000 0.85610  0.56660  0.98720  Biso   1.000  H
  C42      1.0000 0.70250  0.39540  0.90990  Biso   1.000  C
  C43      1.0000 0.49160  0.69280  0.07430  Biso   1.000  C
  H38      1.0000 0.46740  0.65080  0.06480  Biso   1.000  H
  C44      1.0000 0.56300  0.69080  0.09690  Biso   1.000  C
  H39      1.0000 0.58710  0.64850  0.10100  Biso   1.000  H
  C45      1.0000 0.80240  0.70420  0.67830  Biso   1.000  C
  H40      1.0000 0.77500  0.67110  0.63990  Biso   1.000  H
  C46      1.0000 0.80350  0.70330  0.79570  Biso   1.000  C
  H41      1.0000 0.77800  0.66890  0.83420  Biso   1.000  H
  N4       1.0000 0.77410  0.57070  0.09130  Biso   1.000  N
  H42      1.0000 0.88370  0.74180  0.24150  Biso   1.000  H
  O13      1.0000 0.66210  0.35470  0.95710  Biso   1.000  O
  O14      1.0000 0.72750  0.38940  0.81380  Biso   1.000  O
  O15      1.0000 0.70440  0.69590  0.16020  Biso   1.000  O
  O16      1.0000 0.84130  0.69490  0.02290  Biso   1.000  O
  C47      1.0000 0.62660  0.20210  0.17730  Biso   1.000  C
  C48      1.0000 0.62460  0.19940  0.29230  Biso   1.000  C
  H43      1.0000 0.60180  0.16810  0.13680  Biso   1.000  H
  H44      1.0000 0.59980  0.16390  0.32910  Biso   1.000  H
  Co5      1.0000 0.69202  0.16249  0.67730  Biso   1.000  Co
  C49      1.0000 0.78510  0.03850  0.61900  Biso   1.000  C
  H45      1.0000 0.81160  0.05470  0.68060  Biso   1.000  H
  C50      1.0000 0.81040  0.98180  0.56190  Biso   1.000  C
  H46      1.0000 0.85350  0.96060  0.58440  Biso   1.000  H
  C51      1.0000 0.77340  0.95710  0.47450  Biso   1.000  C
  C52      1.0000 0.70950  0.99030  0.44430  Biso   1.000  C
  H47      1.0000 0.68220  0.97500  0.38280  Biso   1.000  H
  C53      1.0000 0.68780  0.04540  0.50580  Biso   1.000  C
  H48      1.0000 0.64390  0.06660  0.48720  Biso   1.000  H
  C54      1.0000 0.79750  0.89540  0.40990  Biso   1.000  C
  C55      1.0000 0.00840  0.19280  0.57430  Biso   1.000  C
  H49      1.0000 0.03260  0.15080  0.56480  Biso   1.000  H
  C56      1.0000 0.93700  0.19080  0.59690  Biso   1.000  C
  H50      1.0000 0.91290  0.14850  0.60100  Biso   1.000  H
  C57      1.0000 0.69760  0.20420  0.17830  Biso   1.000  C
  H51      1.0000 0.72500  0.17110  0.13990  Biso   1.000  H
  C58      1.0000 0.69650  0.20330  0.29570  Biso   1.000  C
  H52      1.0000 0.72200  0.16890  0.33420  Biso   1.000  H
  N5       1.0000 0.72590  0.07070  0.59130  Biso   1.000  N
  H53      1.0000 0.61630  0.24180  0.74150  Biso   1.000  H
  O17      1.0000 0.83790  0.85470  0.45710  Biso   1.000  O
  O18      1.0000 0.77250  0.88940  0.31380  Biso   1.000  O
  O19      1.0000 0.79560  0.19590  0.66020  Biso   1.000  O
  O20      1.0000 0.65870  0.19490  0.52290  Biso   1.000  O
  C59      1.0000 0.87340  0.70210  0.67730  Biso   1.000  C
  C60      1.0000 0.87540  0.69940  0.79230  Biso   1.000  C
  H54      1.0000 0.89820  0.66810  0.63680  Biso   1.000  H
  H55      1.0000 0.90020  0.66390  0.82910  Biso   1.000  H
  Co6      1.0000 0.80798  0.83751  0.17730  Biso   1.000  Co
  C61      1.0000 0.71490  0.96150  0.11900  Biso   1.000  C
  H56      1.0000 0.68840  0.94530  0.18060  Biso   1.000  H
  C62      1.0000 0.68960  0.01820  0.06190  Biso   1.000  C
  H57      1.0000 0.64650  0.03940  0.08440  Biso   1.000  H
  C63      1.0000 0.72660  0.04290  0.97450  Biso   1.000  C
  C64      1.0000 0.79050  0.00970  0.94430  Biso   1.000  C
  H58      1.0000 0.81780  0.02500  0.88280  Biso   1.000  H
  C65      1.0000 0.81220  0.95460  0.00580  Biso   1.000  C
  H59      1.0000 0.85610  0.93340  0.98720  Biso   1.000  H
  C66      1.0000 0.70250  0.10460  0.90990  Biso   1.000  C
  C67      1.0000 0.49160  0.80720  0.07430  Biso   1.000  C
  H60      1.0000 0.46740  0.84920  0.06480  Biso   1.000  H
  C68      1.0000 0.56300  0.80920  0.09690  Biso   1.000  C
  H61      1.0000 0.58710  0.85150  0.10100  Biso   1.000  H
  C69      1.0000 0.80240  0.79580  0.67830  Biso   1.000  C
  H62      1.0000 0.77500  0.82890  0.63990  Biso   1.000  H
  C70      1.0000 0.80350  0.79670  0.79570  Biso   1.000  C
  H63      1.0000 0.77800  0.83110  0.83420  Biso   1.000  H
  N6       1.0000 0.77410  0.92930  0.09130  Biso   1.000  N
  H64      1.0000 0.88370  0.75820  0.24150  Biso   1.000  H
  O21      1.0000 0.66210  0.14530  0.95710  Biso   1.000  O
  O22      1.0000 0.72750  0.11060  0.81380  Biso   1.000  O
  O23      1.0000 0.70440  0.80410  0.16020  Biso   1.000  O
  O24      1.0000 0.84130  0.80510  0.02290  Biso   1.000  O
  C71      1.0000 0.62660  0.29790  0.17730  Biso   1.000  C
  C72      1.0000 0.62460  0.30060  0.29230  Biso   1.000  C
  H65      1.0000 0.60180  0.33190  0.13680  Biso   1.000  H
  H66      1.0000 0.59980  0.33610  0.32910  Biso   1.000  H
  Co7      1.0000 0.30798  0.66249  0.32270  Biso   1.000  Co
  C73      1.0000 0.21490  0.53850  0.38100  Biso   1.000  C
  H67      1.0000 0.18840  0.55470  0.31940  Biso   1.000  H
  C74      1.0000 0.18960  0.48180  0.43810  Biso   1.000  C
  H68      1.0000 0.14650  0.46060  0.41560  Biso   1.000  H
  C75      1.0000 0.22660  0.45710  0.52550  Biso   1.000  C
  C76      1.0000 0.29050  0.49030  0.55570  Biso   1.000  C
  H69      1.0000 0.31780  0.47500  0.61720  Biso   1.000  H
  C77      1.0000 0.31220  0.54540  0.49420  Biso   1.000  C
  H70      1.0000 0.35610  0.56660  0.51280  Biso   1.000  H
  C78      1.0000 0.20250  0.39540  0.59010  Biso   1.000  C
  C79      1.0000 0.99160  0.69280  0.42570  Biso   1.000  C
  H71      1.0000 0.96740  0.65080  0.43520  Biso   1.000  H
  C80      1.0000 0.06300  0.69080  0.40310  Biso   1.000  C
  H72      1.0000 0.08710  0.64850  0.39900  Biso   1.000  H
  C81      1.0000 0.30240  0.70420  0.82170  Biso   1.000  C
  H73      1.0000 0.27500  0.67110  0.86010  Biso   1.000  H
  C82      1.0000 0.30350  0.70330  0.70430  Biso   1.000  C
  H74      1.0000 0.27800  0.66890  0.66580  Biso   1.000  H
  N7       1.0000 0.27410  0.57070  0.40870  Biso   1.000  N
  H75      1.0000 0.38370  0.74180  0.25850  Biso   1.000  H
  O25      1.0000 0.16210  0.35470  0.54290  Biso   1.000  O
  O26      1.0000 0.22750  0.38940  0.68620  Biso   1.000  O
  O27      1.0000 0.20440  0.69590  0.33980  Biso   1.000  O
  O28      1.0000 0.34130  0.69490  0.47710  Biso   1.000  O
  C83      1.0000 0.12660  0.20210  0.32270  Biso   1.000  C
  C84      1.0000 0.12460  0.19940  0.20770  Biso   1.000  C
  H76      1.0000 0.10180  0.16810  0.36320  Biso   1.000  H
  H77      1.0000 0.09980  0.16390  0.17090  Biso   1.000  H
  Co8      1.0000 0.19202  0.33751  0.82270  Biso   1.000  Co
  C85      1.0000 0.28510  0.46150  0.88100  Biso   1.000  C
  H78      1.0000 0.31160  0.44530  0.81940  Biso   1.000  H
  C86      1.0000 0.31040  0.51820  0.93810  Biso   1.000  C
  H79      1.0000 0.35350  0.53940  0.91560  Biso   1.000  H
  C87      1.0000 0.27340  0.54290  0.02550  Biso   1.000  C
  C88      1.0000 0.20950  0.50970  0.05570  Biso   1.000  C
  H80      1.0000 0.18220  0.52500  0.11720  Biso   1.000  H
  C89      1.0000 0.18780  0.45460  0.99420  Biso   1.000  C
  H81      1.0000 0.14390  0.43340  0.01280  Biso   1.000  H
  C90      1.0000 0.29750  0.60460  0.09010  Biso   1.000  C
  C91      1.0000 0.50840  0.30720  0.92570  Biso   1.000  C
  H82      1.0000 0.53260  0.34920  0.93520  Biso   1.000  H
  C92      1.0000 0.43700  0.30920  0.90310  Biso   1.000  C
  H83      1.0000 0.41290  0.35150  0.89900  Biso   1.000  H
  C93      1.0000 0.19760  0.29580  0.32170  Biso   1.000  C
  H84      1.0000 0.22500  0.32890  0.36010  Biso   1.000  H
  C94      1.0000 0.19650  0.29670  0.20430  Biso   1.000  C
  H85      1.0000 0.22200  0.33110  0.16580  Biso   1.000  H
  N8       1.0000 0.22590  0.42930  0.90870  Biso   1.000  N
  H86      1.0000 0.11630  0.25820  0.75850  Biso   1.000  H
  O29      1.0000 0.33790  0.64530  0.04290  Biso   1.000  O
  O30      1.0000 0.27250  0.61060  0.18620  Biso   1.000  O
  O31      1.0000 0.29560  0.30410  0.83980  Biso   1.000  O
  O32      1.0000 0.15870  0.30510  0.97710  Biso   1.000  O
  C95      1.0000 0.37340  0.79790  0.82270  Biso   1.000  C
  C96      1.0000 0.37540  0.80060  0.70770  Biso   1.000  C
  H87      1.0000 0.39820  0.83190  0.86320  Biso   1.000  H
  H88      1.0000 0.40020  0.83610  0.67090  Biso   1.000  H
  Co9      1.0000 0.84040  0.75000  0.43741  Biso   1.000  Co
  C97      1.0000 0.09920  0.75000  0.38640  Biso   1.000  C
  C98      1.0000 0.17660  0.75000  0.35310  Biso   1.000  C
  C99      1.0000 0.34010  0.75000  0.64620  Biso   1.000  C
  C100     1.0000 0.33820  0.75000  0.52200  Biso   1.000  C
  O33      1.0000 0.34120  0.75000  0.23810  Biso   1.000  O
  N9       1.0000 0.95400  0.75000  0.43610  Biso   1.000  N
  N10      1.0000 0.33840  0.75000  0.87980  Biso   1.000  N
  Co10     1.0000 0.65960  0.25000  0.93741  Biso   1.000  Co
  C101     1.0000 0.40080  0.25000  0.88640  Biso   1.000  C
  C102     1.0000 0.32340  0.25000  0.85310  Biso   1.000  C
  C103     1.0000 0.15990  0.25000  0.14620  Biso   1.000  C
  C104     1.0000 0.16180  0.25000  0.02200  Biso   1.000  C
  O34      1.0000 0.15880  0.25000  0.73810  Biso   1.000  O
  N11      1.0000 0.54600  0.25000  0.93610  Biso   1.000  N
  N12      1.0000 0.16160  0.25000  0.37980  Biso   1.000  N
  Co11     1.0000 0.15960  0.25000  0.56259  Biso   1.000  Co
  C105     1.0000 0.90080  0.25000  0.61360  Biso   1.000  C
  C106     1.0000 0.82340  0.25000  0.64690  Biso   1.000  C
  C107     1.0000 0.65990  0.25000  0.35380  Biso   1.000  C
  C108     1.0000 0.66180  0.25000  0.47800  Biso   1.000  C
  O35      1.0000 0.65880  0.25000  0.76190  Biso   1.000  O
  N13      1.0000 0.04600  0.25000  0.56390  Biso   1.000  N
  N14      1.0000 0.66160  0.25000  0.12020  Biso   1.000  N
  Co12     1.0000 0.34040  0.75000  0.06259  Biso   1.000  Co
  C109     1.0000 0.59920  0.75000  0.11360  Biso   1.000  C
  C110     1.0000 0.67660  0.75000  0.14690  Biso   1.000  C
  C111     1.0000 0.84010  0.75000  0.85380  Biso   1.000  C
  C112     1.0000 0.83820  0.75000  0.97800  Biso   1.000  C
  O36      1.0000 0.84120  0.75000  0.26190  Biso   1.000  O
  N15      1.0000 0.45400  0.75000  0.06390  Biso   1.000  N
  N16      1.0000 0.83840  0.75000  0.62020  Biso   1.000  N
