data_image0
_cell_length_a       18.986
_cell_length_b       19.683
_cell_length_c       12.081
_cell_angle_alpha    90
_cell_angle_beta     90
_cell_angle_gamma    90

_symmetry_space_group_name_H-M    "P 1"
_symmetry_int_tables_number       1

loop_
  _symmetry_equiv_pos_as_xyz
  'x, y, z'

loop_
  _atom_site_label
  _atom_site_occupancy
  _atom_site_fract_x
  _atom_site_fract_y
  _atom_site_fract_z
  _atom_site_thermal_displace_type
  _atom_site_B_iso_or_equiv
  _atom_site_type_symbol
  Co1      1.0000 0.30923  0.16208  0.67025  Biso   1.000  Co
  C1       1.0000 0.21350  0.03820  0.61180  Biso   1.000  C
  H1       1.0000 0.18700  0.05580  0.67200  Biso   1.000  H
  C2       1.0000 0.18910  0.98180  0.55830  Biso   1.000  C
  H2       1.0000 0.14700  0.96020  0.58220  Biso   1.000  H
  C3       1.0000 0.22680  0.95600  0.46750  Biso   1.000  C
  C4       1.0000 0.28840  0.98890  0.43810  Biso   1.000  C
  H3       1.0000 0.31620  0.97290  0.37810  Biso   1.000  H
  C5       1.0000 0.30870  0.04520  0.49760  Biso   1.000  C
  H4       1.0000 0.35070  0.06750  0.47540  Biso   1.000  H
  C6       1.0000 0.20180  0.89560  0.40320  Biso   1.000  C
  C7       1.0000 0.00790  0.69210  0.42100  Biso   1.000  C
  H5       1.0000 0.03250  0.65040  0.42900  Biso   1.000  H
  C8       1.0000 0.93530  0.69020  0.40060  Biso   1.000  C
  H6       1.0000 0.91130  0.64800  0.39400  Biso   1.000  H
  C9       1.0000 0.19120  0.79830  0.67290  Biso   1.000  C
  H7       1.0000 0.21720  0.83210  0.63440  Biso   1.000  H
  C10      1.0000 0.18900  0.80110  0.78570  Biso   1.000  C
  H8       1.0000 0.20960  0.83840  0.82360  Biso   1.000  H
  N1       1.0000 0.27480  0.07050  0.58240  Biso   1.000  N
  O1       1.0000 0.15990  0.85490  0.45040  Biso   1.000  O
  O2       1.0000 0.22480  0.89010  0.30700  Biso   1.000  O
  O3       1.0000 0.79280  0.69480  0.34780  Biso   1.000  O
  O4       1.0000 0.15910  0.80540  0.01560  Biso   1.000  O
  C11      1.0000 0.12530  0.70120  0.67030  Biso   1.000  C
  C12      1.0000 0.12370  0.69840  0.78510  Biso   1.000  C
  H9       1.0000 0.10180  0.66660  0.62990  Biso   1.000  H
  H10      1.0000 0.10050  0.66220  0.82230  Biso   1.000  H
  Co2      1.0000 0.19077  0.83792  0.17025  Biso   1.000  Co
  C13      1.0000 0.28650  0.96180  0.11180  Biso   1.000  C
  H11      1.0000 0.31300  0.94420  0.17200  Biso   1.000  H
  C14      1.0000 0.31090  0.01820  0.05830  Biso   1.000  C
  H12      1.0000 0.35300  0.03980  0.08220  Biso   1.000  H
  C15      1.0000 0.27320  0.04400  0.96750  Biso   1.000  C
  C16      1.0000 0.21160  0.01110  0.93810  Biso   1.000  C
  H13      1.0000 0.18380  0.02710  0.87810  Biso   1.000  H
  C17      1.0000 0.19130  0.95480  0.99760  Biso   1.000  C
  H14      1.0000 0.14930  0.93250  0.97540  Biso   1.000  H
  C18      1.0000 0.29820  0.10440  0.90320  Biso   1.000  C
  C19      1.0000 0.49210  0.30790  0.92100  Biso   1.000  C
  H15      1.0000 0.46750  0.34960  0.92900  Biso   1.000  H
  C20      1.0000 0.56470  0.30980  0.90060  Biso   1.000  C
  H16      1.0000 0.58870  0.35200  0.89400  Biso   1.000  H
  C21      1.0000 0.30880  0.20170  0.17290  Biso   1.000  C
  H17      1.0000 0.28280  0.16790  0.13440  Biso   1.000  H
  C22      1.0000 0.31100  0.19890  0.28570  Biso   1.000  C
  H18      1.0000 0.29040  0.16160  0.32360  Biso   1.000  H
  N2       1.0000 0.22520  0.92950  0.08240  Biso   1.000  N
  O5       1.0000 0.34010  0.14510  0.95040  Biso   1.000  O
  O6       1.0000 0.27520  0.10990  0.80700  Biso   1.000  O
  O7       1.0000 0.70720  0.30520  0.84780  Biso   1.000  O
  O8       1.0000 0.34090  0.19460  0.51560  Biso   1.000  O
  C23      1.0000 0.37470  0.29880  0.17030  Biso   1.000  C
  C24      1.0000 0.37630  0.30160  0.28510  Biso   1.000  C
  H19      1.0000 0.39820  0.33340  0.12990  Biso   1.000  H
  H20      1.0000 0.39950  0.33780  0.32230  Biso   1.000  H
  Co3      1.0000 0.69077  0.66208  0.32975  Biso   1.000  Co
  C25      1.0000 0.78650  0.53820  0.38820  Biso   1.000  C
  H21      1.0000 0.81300  0.55580  0.32800  Biso   1.000  H
  C26      1.0000 0.81090  0.48180  0.44170  Biso   1.000  C
  H22      1.0000 0.85300  0.46020  0.41780  Biso   1.000  H
  C27      1.0000 0.77320  0.45600  0.53250  Biso   1.000  C
  C28      1.0000 0.71160  0.48890  0.56190  Biso   1.000  C
  H23      1.0000 0.68380  0.47290  0.62190  Biso   1.000  H
  C29      1.0000 0.69130  0.54520  0.50240  Biso   1.000  C
  H24      1.0000 0.64930  0.56750  0.52460  Biso   1.000  H
  C30      1.0000 0.79820  0.39560  0.59680  Biso   1.000  C
  C31      1.0000 0.99210  0.19210  0.57900  Biso   1.000  C
  H25      1.0000 0.96750  0.15040  0.57100  Biso   1.000  H
  C32      1.0000 0.06470  0.19020  0.59940  Biso   1.000  C
  H26      1.0000 0.08870  0.14800  0.60600  Biso   1.000  H
  C33      1.0000 0.80880  0.29830  0.32710  Biso   1.000  C
  H27      1.0000 0.78280  0.33210  0.36560  Biso   1.000  H
  C34      1.0000 0.81100  0.30110  0.21430  Biso   1.000  C
  H28      1.0000 0.79040  0.33840  0.17640  Biso   1.000  H
  N3       1.0000 0.72520  0.57050  0.41760  Biso   1.000  N
  O9       1.0000 0.84010  0.35490  0.54960  Biso   1.000  O
  O10      1.0000 0.77520  0.39010  0.69300  Biso   1.000  O
  O11      1.0000 0.20720  0.19480  0.65220  Biso   1.000  O
  O12      1.0000 0.84090  0.30540  0.98440  Biso   1.000  O
  C35      1.0000 0.87470  0.20120  0.32970  Biso   1.000  C
  C36      1.0000 0.87630  0.19840  0.21490  Biso   1.000  C
  H29      1.0000 0.89820  0.16660  0.37010  Biso   1.000  H
  H30      1.0000 0.89950  0.16220  0.17770  Biso   1.000  H
  Co4      1.0000 0.80923  0.33792  0.82975  Biso   1.000  Co
  C37      1.0000 0.71350  0.46180  0.88820  Biso   1.000  C
  H31      1.0000 0.68700  0.44420  0.82800  Biso   1.000  H
  C38      1.0000 0.68910  0.51820  0.94170  Biso   1.000  C
  H32      1.0000 0.64700  0.53980  0.91780  Biso   1.000  H
  C39      1.0000 0.72680  0.54400  0.03250  Biso   1.000  C
  C40      1.0000 0.78840  0.51110  0.06190  Biso   1.000  C
  H33      1.0000 0.81620  0.52710  0.12190  Biso   1.000  H
  C41      1.0000 0.80870  0.45480  0.00240  Biso   1.000  C
  H34      1.0000 0.85070  0.43250  0.02460  Biso   1.000  H
  C42      1.0000 0.70180  0.60440  0.09680  Biso   1.000  C
  C43      1.0000 0.50790  0.80790  0.07900  Biso   1.000  C
  H35      1.0000 0.53250  0.84960  0.07100  Biso   1.000  H
  C44      1.0000 0.43530  0.80980  0.09940  Biso   1.000  C
  H36      1.0000 0.41130  0.85200  0.10600  Biso   1.000  H
  C45      1.0000 0.69120  0.70170  0.82710  Biso   1.000  C
  H37      1.0000 0.71720  0.66790  0.86560  Biso   1.000  H
  C46      1.0000 0.68900  0.69890  0.71430  Biso   1.000  C
  H38      1.0000 0.70960  0.66160  0.67640  Biso   1.000  H
  N4       1.0000 0.77480  0.42950  0.91760  Biso   1.000  N
  O13      1.0000 0.65990  0.64510  0.04960  Biso   1.000  O
  O14      1.0000 0.72480  0.60990  0.19300  Biso   1.000  O
  O15      1.0000 0.29280  0.80520  0.15220  Biso   1.000  O
  O16      1.0000 0.65910  0.69460  0.48440  Biso   1.000  O
  C47      1.0000 0.62530  0.79880  0.82970  Biso   1.000  C
  C48      1.0000 0.62370  0.80160  0.71490  Biso   1.000  C
  H39      1.0000 0.60180  0.83340  0.87010  Biso   1.000  H
  H40      1.0000 0.60050  0.83780  0.67770  Biso   1.000  H
  Co5      1.0000 0.69077  0.83792  0.32975  Biso   1.000  Co
  C49      1.0000 0.78650  0.96180  0.38820  Biso   1.000  C
  H41      1.0000 0.81300  0.94420  0.32800  Biso   1.000  H
  C50      1.0000 0.81090  0.01820  0.44170  Biso   1.000  C
  H42      1.0000 0.85300  0.03980  0.41780  Biso   1.000  H
  C51      1.0000 0.77320  0.04400  0.53250  Biso   1.000  C
  C52      1.0000 0.71160  0.01110  0.56190  Biso   1.000  C
  H43      1.0000 0.68380  0.02710  0.62190  Biso   1.000  H
  C53      1.0000 0.69130  0.95480  0.50240  Biso   1.000  C
  H44      1.0000 0.64930  0.93250  0.52460  Biso   1.000  H
  C54      1.0000 0.79820  0.10440  0.59680  Biso   1.000  C
  C55      1.0000 0.99210  0.30790  0.57900  Biso   1.000  C
  H45      1.0000 0.96750  0.34960  0.57100  Biso   1.000  H
  C56      1.0000 0.06470  0.30980  0.59940  Biso   1.000  C
  H46      1.0000 0.08870  0.35200  0.60600  Biso   1.000  H
  C57      1.0000 0.80880  0.20170  0.32710  Biso   1.000  C
  H47      1.0000 0.78280  0.16790  0.36560  Biso   1.000  H
  C58      1.0000 0.81100  0.19890  0.21430  Biso   1.000  C
  H48      1.0000 0.79040  0.16160  0.17640  Biso   1.000  H
  N5       1.0000 0.72520  0.92950  0.41760  Biso   1.000  N
  O17      1.0000 0.84010  0.14510  0.54960  Biso   1.000  O
  O18      1.0000 0.77520  0.10990  0.69300  Biso   1.000  O
  O19      1.0000 0.20720  0.30520  0.65220  Biso   1.000  O
  O20      1.0000 0.84090  0.19460  0.98440  Biso   1.000  O
  C59      1.0000 0.87470  0.29880  0.32970  Biso   1.000  C
  C60      1.0000 0.87630  0.30160  0.21490  Biso   1.000  C
  H49      1.0000 0.89820  0.33340  0.37010  Biso   1.000  H
  H50      1.0000 0.89950  0.33780  0.17770  Biso   1.000  H
  Co6      1.0000 0.80923  0.16208  0.82975  Biso   1.000  Co
  C61      1.0000 0.71350  0.03820  0.88820  Biso   1.000  C
  H51      1.0000 0.68700  0.05580  0.82800  Biso   1.000  H
  C62      1.0000 0.68910  0.98180  0.94170  Biso   1.000  C
  H52      1.0000 0.64700  0.96020  0.91780  Biso   1.000  H
  C63      1.0000 0.72680  0.95600  0.03250  Biso   1.000  C
  C64      1.0000 0.78840  0.98890  0.06190  Biso   1.000  C
  H53      1.0000 0.81620  0.97290  0.12190  Biso   1.000  H
  C65      1.0000 0.80870  0.04520  0.00240  Biso   1.000  C
  H54      1.0000 0.85070  0.06750  0.02460  Biso   1.000  H
  C66      1.0000 0.70180  0.89560  0.09680  Biso   1.000  C
  C67      1.0000 0.50790  0.69210  0.07900  Biso   1.000  C
  H55      1.0000 0.53250  0.65040  0.07100  Biso   1.000  H
  C68      1.0000 0.43530  0.69020  0.09940  Biso   1.000  C
  H56      1.0000 0.41130  0.64800  0.10600  Biso   1.000  H
  C69      1.0000 0.69120  0.79830  0.82710  Biso   1.000  C
  H57      1.0000 0.71720  0.83210  0.86560  Biso   1.000  H
  C70      1.0000 0.68900  0.80110  0.71430  Biso   1.000  C
  H58      1.0000 0.70960  0.83840  0.67640  Biso   1.000  H
  N6       1.0000 0.77480  0.07050  0.91760  Biso   1.000  N
  O21      1.0000 0.65990  0.85490  0.04960  Biso   1.000  O
  O22      1.0000 0.72480  0.89010  0.19300  Biso   1.000  O
  O23      1.0000 0.29280  0.69480  0.15220  Biso   1.000  O
  O24      1.0000 0.65910  0.80540  0.48440  Biso   1.000  O
  C71      1.0000 0.62530  0.70120  0.82970  Biso   1.000  C
  C72      1.0000 0.62370  0.69840  0.71490  Biso   1.000  C
  H59      1.0000 0.60180  0.66660  0.87010  Biso   1.000  H
  H60      1.0000 0.60050  0.66220  0.67770  Biso   1.000  H
  Co7      1.0000 0.30923  0.33792  0.67025  Biso   1.000  Co
  C73      1.0000 0.21350  0.46180  0.61180  Biso   1.000  C
  H61      1.0000 0.18700  0.44420  0.67200  Biso   1.000  H
  C74      1.0000 0.18910  0.51820  0.55830  Biso   1.000  C
  H62      1.0000 0.14700  0.53980  0.58220  Biso   1.000  H
  C75      1.0000 0.22680  0.54400  0.46750  Biso   1.000  C
  C76      1.0000 0.28840  0.51110  0.43810  Biso   1.000  C
  H63      1.0000 0.31620  0.52710  0.37810  Biso   1.000  H
  C77      1.0000 0.30870  0.45480  0.49760  Biso   1.000  C
  H64      1.0000 0.35070  0.43250  0.47540  Biso   1.000  H
  C78      1.0000 0.20180  0.60440  0.40320  Biso   1.000  C
  C79      1.0000 0.00790  0.80790  0.42100  Biso   1.000  C
  H65      1.0000 0.03250  0.84960  0.42900  Biso   1.000  H
  C80      1.0000 0.93530  0.80980  0.40060  Biso   1.000  C
  H66      1.0000 0.91130  0.85200  0.39400  Biso   1.000  H
  C81      1.0000 0.19120  0.70170  0.67290  Biso   1.000  C
  H67      1.0000 0.21720  0.66790  0.63440  Biso   1.000  H
  C82      1.0000 0.18900  0.69890  0.78570  Biso   1.000  C
  H68      1.0000 0.20960  0.66160  0.82360  Biso   1.000  H
  N7       1.0000 0.27480  0.42950  0.58240  Biso   1.000  N
  O25      1.0000 0.15990  0.64510  0.45040  Biso   1.000  O
  O26      1.0000 0.22480  0.60990  0.30700  Biso   1.000  O
  O27      1.0000 0.79280  0.80520  0.34780  Biso   1.000  O
  O28      1.0000 0.15910  0.69460  0.01560  Biso   1.000  O
  C83      1.0000 0.12530  0.79880  0.67030  Biso   1.000  C
  C84      1.0000 0.12370  0.80160  0.78510  Biso   1.000  C
  H69      1.0000 0.10180  0.83340  0.62990  Biso   1.000  H
  H70      1.0000 0.10050  0.83780  0.82230  Biso   1.000  H
  Co8      1.0000 0.19077  0.66208  0.17025  Biso   1.000  Co
  C85      1.0000 0.28650  0.53820  0.11180  Biso   1.000  C
  H71      1.0000 0.31300  0.55580  0.17200  Biso   1.000  H
  C86      1.0000 0.31090  0.48180  0.05830  Biso   1.000  C
  H72      1.0000 0.35300  0.46020  0.08220  Biso   1.000  H
  C87      1.0000 0.27320  0.45600  0.96750  Biso   1.000  C
  C88      1.0000 0.21160  0.48890  0.93810  Biso   1.000  C
  H73      1.0000 0.18380  0.47290  0.87810  Biso   1.000  H
  C89      1.0000 0.19130  0.54520  0.99760  Biso   1.000  C
  H74      1.0000 0.14930  0.56750  0.97540  Biso   1.000  H
  C90      1.0000 0.29820  0.39560  0.90320  Biso   1.000  C
  C91      1.0000 0.49210  0.19210  0.92100  Biso   1.000  C
  H75      1.0000 0.46750  0.15040  0.92900  Biso   1.000  H
  C92      1.0000 0.56470  0.19020  0.90060  Biso   1.000  C
  H76      1.0000 0.58870  0.14800  0.89400  Biso   1.000  H
  C93      1.0000 0.30880  0.29830  0.17290  Biso   1.000  C
  H77      1.0000 0.28280  0.33210  0.13440  Biso   1.000  H
  C94      1.0000 0.31100  0.30110  0.28570  Biso   1.000  C
  H78      1.0000 0.29040  0.33840  0.32360  Biso   1.000  H
  N8       1.0000 0.22520  0.57050  0.08240  Biso   1.000  N
  O29      1.0000 0.34010  0.35490  0.95040  Biso   1.000  O
  O30      1.0000 0.27520  0.39010  0.80700  Biso   1.000  O
  O31      1.0000 0.70720  0.19480  0.84780  Biso   1.000  O
  O32      1.0000 0.34090  0.30540  0.51560  Biso   1.000  O
  C95      1.0000 0.37470  0.20120  0.17030  Biso   1.000  C
  C96      1.0000 0.37630  0.19840  0.28510  Biso   1.000  C
  H79      1.0000 0.39820  0.16660  0.12990  Biso   1.000  H
  H80      1.0000 0.39950  0.16220  0.32230  Biso   1.000  H
  Co9      1.0000 0.15669  0.75000  0.42999  Biso   1.000  Co
  C97      1.0000 0.89960  0.75000  0.39050  Biso   1.000  C
  C98      1.0000 0.82200  0.75000  0.35910  Biso   1.000  C
  C99      1.0000 0.15690  0.75000  0.84440  Biso   1.000  C
  C100     1.0000 0.15930  0.75000  0.97130  Biso   1.000  C
  N9       1.0000 0.04410  0.75000  0.42960  Biso   1.000  N
  N10      1.0000 0.15840  0.75000  0.61350  Biso   1.000  N
  O33      1.0000 0.15630  0.75000  0.25500  Biso   1.000  O
  H81      1.0000 0.11500  0.75000  0.24000  Biso   1.000  H
  Co10     1.0000 0.34331  0.25000  0.92999  Biso   1.000  Co
  C101     1.0000 0.60040  0.25000  0.89050  Biso   1.000  C
  C102     1.0000 0.67800  0.25000  0.85910  Biso   1.000  C
  C103     1.0000 0.34310  0.25000  0.34440  Biso   1.000  C
  C104     1.0000 0.34070  0.25000  0.47130  Biso   1.000  C
  N11      1.0000 0.45590  0.25000  0.92960  Biso   1.000  N
  N12      1.0000 0.34160  0.25000  0.11350  Biso   1.000  N
  O34      1.0000 0.34370  0.25000  0.75500  Biso   1.000  O
  H82      1.0000 0.38500  0.25000  0.74000  Biso   1.000  H
  Co11     1.0000 0.84331  0.25000  0.57001  Biso   1.000  Co
  C105     1.0000 0.10040  0.25000  0.60950  Biso   1.000  C
  C106     1.0000 0.17800  0.25000  0.64090  Biso   1.000  C
  C107     1.0000 0.84310  0.25000  0.15560  Biso   1.000  C
  C108     1.0000 0.84070  0.25000  0.02870  Biso   1.000  C
  N13      1.0000 0.95590  0.25000  0.57040  Biso   1.000  N
  N14      1.0000 0.84160  0.25000  0.38650  Biso   1.000  N
  O35      1.0000 0.84370  0.25000  0.74500  Biso   1.000  O
  H83      1.0000 0.88500  0.25000  0.76000  Biso   1.000  H
  Co12     1.0000 0.65669  0.75000  0.07001  Biso   1.000  Co
  C109     1.0000 0.39960  0.75000  0.10950  Biso   1.000  C
  C110     1.0000 0.32200  0.75000  0.14090  Biso   1.000  C
  C111     1.0000 0.65690  0.75000  0.65560  Biso   1.000  C
  C112     1.0000 0.65930  0.75000  0.52870  Biso   1.000  C
  N15      1.0000 0.54410  0.75000  0.07040  Biso   1.000  N
  N16      1.0000 0.65840  0.75000  0.88650  Biso   1.000  N
  O36      1.0000 0.65630  0.75000  0.24500  Biso   1.000  O
  H84      1.0000 0.61500  0.75000  0.26000  Biso   1.000  H
