data_image0
_cell_length_a       18.9542
_cell_length_b       19.697
_cell_length_c       12.0228
_cell_angle_alpha    90
_cell_angle_beta     90
_cell_angle_gamma    90

_symmetry_space_group_name_H-M    "P 1"
_symmetry_int_tables_number       1

loop_
  _symmetry_equiv_pos_as_xyz
  'x, y, z'

loop_
  _atom_site_label
  _atom_site_occupancy
  _atom_site_fract_x
  _atom_site_fract_y
  _atom_site_fract_z
  _atom_site_thermal_displace_type
  _atom_site_B_iso_or_equiv
  _atom_site_type_symbol
  Co1      1.0000 0.80589  0.16279  0.32238  Biso   1.000  Co
  C1       1.0000 0.72640  0.95660  0.52490  Biso   1.000  C
  C2       1.0000 0.68840  0.98120  0.43430  Biso   1.000  C
  H1       1.0000 0.64650  0.95910  0.41050  Biso   1.000  H
  C3       1.0000 0.71240  0.03820  0.37970  Biso   1.000  C
  H2       1.0000 0.68590  0.05490  0.31840  Biso   1.000  H
  C4       1.0000 0.80720  0.04820  0.49580  Biso   1.000  C
  H3       1.0000 0.84830  0.07200  0.51880  Biso   1.000  H
  C5       1.0000 0.78750  0.99100  0.55470  Biso   1.000  C
  H4       1.0000 0.81550  0.97540  0.61510  Biso   1.000  H
  C6       1.0000 0.70330  0.89460  0.58960  Biso   1.000  C
  C7       1.0000 0.43800  0.69060  0.59910  Biso   1.000  C
  H5       1.0000 0.41430  0.64830  0.60500  Biso   1.000  H
  C8       1.0000 0.50930  0.69250  0.57610  Biso   1.000  C
  H6       1.0000 0.53360  0.65070  0.56660  Biso   1.000  H
  C9       1.0000 0.69380  0.70090  0.20960  Biso   1.000  C
  H7       1.0000 0.71810  0.66540  0.17220  Biso   1.000  H
  C10      1.0000 0.62400  0.80060  0.20800  Biso   1.000  C
  H8       1.0000 0.60040  0.83630  0.17000  Biso   1.000  H
  C11      1.0000 0.69320  0.70280  0.32250  Biso   1.000  C
  H9       1.0000 0.71850  0.66870  0.36170  Biso   1.000  H
  C12      1.0000 0.62410  0.79790  0.32290  Biso   1.000  C
  H10      1.0000 0.59840  0.83140  0.36260  Biso   1.000  H
  N1       1.0000 0.77180  0.07140  0.40920  Biso   1.000  N
  H11      1.0000 0.61750  0.75810  0.76120  Biso   1.000  H
  O1       1.0000 0.66090  0.85470  0.54370  Biso   1.000  O
  O2       1.0000 0.72930  0.88810  0.68440  Biso   1.000  O
  O3       1.0000 0.29660  0.69550  0.65720  Biso   1.000  O
  O4       1.0000 0.66250  0.80520  0.97710  Biso   1.000  O
  Co2      1.0000 0.69411  0.83721  0.82238  Biso   1.000  Co
  C13      1.0000 0.77360  0.04340  0.02490  Biso   1.000  C
  C14      1.0000 0.81160  0.01880  0.93430  Biso   1.000  C
  H12      1.0000 0.85350  0.04090  0.91050  Biso   1.000  H
  C15      1.0000 0.78760  0.96180  0.87970  Biso   1.000  C
  H13      1.0000 0.81410  0.94510  0.81840  Biso   1.000  H
  C16      1.0000 0.69280  0.95180  0.99580  Biso   1.000  C
  H14      1.0000 0.65170  0.92800  0.01880  Biso   1.000  H
  C17      1.0000 0.71250  0.00900  0.05470  Biso   1.000  C
  H15      1.0000 0.68450  0.02460  0.11510  Biso   1.000  H
  C18      1.0000 0.79670  0.10540  0.08960  Biso   1.000  C
  C19      1.0000 0.06200  0.30940  0.09910  Biso   1.000  C
  H16      1.0000 0.08570  0.35170  0.10500  Biso   1.000  H
  C20      1.0000 0.99070  0.30750  0.07610  Biso   1.000  C
  H17      1.0000 0.96640  0.34930  0.06660  Biso   1.000  H
  C21      1.0000 0.80620  0.29910  0.70960  Biso   1.000  C
  H18      1.0000 0.78190  0.33460  0.67220  Biso   1.000  H
  C22      1.0000 0.87600  0.19940  0.70800  Biso   1.000  C
  H19      1.0000 0.89960  0.16370  0.67000  Biso   1.000  H
  C23      1.0000 0.80680  0.29720  0.82250  Biso   1.000  C
  H20      1.0000 0.78150  0.33130  0.86170  Biso   1.000  H
  C24      1.0000 0.87590  0.20210  0.82290  Biso   1.000  C
  H21      1.0000 0.90160  0.16860  0.86260  Biso   1.000  H
  N2       1.0000 0.72820  0.92860  0.90920  Biso   1.000  N
  H22      1.0000 0.88250  0.24190  0.26120  Biso   1.000  H
  O5       1.0000 0.83910  0.14530  0.04370  Biso   1.000  O
  O6       1.0000 0.77070  0.11190  0.18440  Biso   1.000  O
  O7       1.0000 0.20340  0.30450  0.15720  Biso   1.000  O
  O8       1.0000 0.83750  0.19480  0.47710  Biso   1.000  O
  Co3      1.0000 0.19411  0.66279  0.67762  Biso   1.000  Co
  C25      1.0000 0.27360  0.45660  0.47510  Biso   1.000  C
  C26      1.0000 0.31160  0.48120  0.56570  Biso   1.000  C
  H23      1.0000 0.35350  0.45910  0.58950  Biso   1.000  H
  C27      1.0000 0.28760  0.53820  0.62030  Biso   1.000  C
  H24      1.0000 0.31410  0.55490  0.68160  Biso   1.000  H
  C28      1.0000 0.19280  0.54820  0.50420  Biso   1.000  C
  H25      1.0000 0.15170  0.57200  0.48120  Biso   1.000  H
  C29      1.0000 0.21250  0.49100  0.44530  Biso   1.000  C
  H26      1.0000 0.18450  0.47540  0.38490  Biso   1.000  H
  C30      1.0000 0.29670  0.39460  0.41040  Biso   1.000  C
  C31      1.0000 0.56200  0.19060  0.40090  Biso   1.000  C
  H27      1.0000 0.58570  0.14830  0.39500  Biso   1.000  H
  C32      1.0000 0.49070  0.19250  0.42390  Biso   1.000  C
  H28      1.0000 0.46640  0.15070  0.43340  Biso   1.000  H
  C33      1.0000 0.30620  0.20090  0.79040  Biso   1.000  C
  H29      1.0000 0.28190  0.16540  0.82780  Biso   1.000  H
  C34      1.0000 0.37600  0.30060  0.79200  Biso   1.000  C
  H30      1.0000 0.39960  0.33630  0.83000  Biso   1.000  H
  C35      1.0000 0.30680  0.20280  0.67750  Biso   1.000  C
  H31      1.0000 0.28150  0.16870  0.63830  Biso   1.000  H
  C36      1.0000 0.37590  0.29790  0.67710  Biso   1.000  C
  H32      1.0000 0.40160  0.33140  0.63740  Biso   1.000  H
  N3       1.0000 0.22820  0.57140  0.59080  Biso   1.000  N
  H33      1.0000 0.38250  0.25810  0.23880  Biso   1.000  H
  O9       1.0000 0.33910  0.35470  0.45630  Biso   1.000  O
  O10      1.0000 0.27070  0.38810  0.31560  Biso   1.000  O
  O11      1.0000 0.70340  0.19550  0.34280  Biso   1.000  O
  O12      1.0000 0.33750  0.30520  0.02290  Biso   1.000  O
  Co4      1.0000 0.30589  0.33721  0.17762  Biso   1.000  Co
  C37      1.0000 0.22640  0.54340  0.97510  Biso   1.000  C
  C38      1.0000 0.18840  0.51880  0.06570  Biso   1.000  C
  H34      1.0000 0.14650  0.54090  0.08950  Biso   1.000  H
  C39      1.0000 0.21240  0.46180  0.12030  Biso   1.000  C
  H35      1.0000 0.18590  0.44510  0.18160  Biso   1.000  H
  C40      1.0000 0.30720  0.45180  0.00420  Biso   1.000  C
  H36      1.0000 0.34830  0.42800  0.98120  Biso   1.000  H
  C41      1.0000 0.28750  0.50900  0.94530  Biso   1.000  C
  H37      1.0000 0.31550  0.52460  0.88490  Biso   1.000  H
  C42      1.0000 0.20330  0.60540  0.91040  Biso   1.000  C
  C43      1.0000 0.93800  0.80940  0.90090  Biso   1.000  C
  H38      1.0000 0.91430  0.85170  0.89500  Biso   1.000  H
  C44      1.0000 0.00930  0.80750  0.92390  Biso   1.000  C
  H39      1.0000 0.03360  0.84930  0.93340  Biso   1.000  H
  C45      1.0000 0.19380  0.79910  0.29040  Biso   1.000  C
  H40      1.0000 0.21810  0.83460  0.32780  Biso   1.000  H
  C46      1.0000 0.12400  0.69940  0.29200  Biso   1.000  C
  H41      1.0000 0.10040  0.66370  0.33000  Biso   1.000  H
  C47      1.0000 0.19320  0.79720  0.17750  Biso   1.000  C
  H42      1.0000 0.21850  0.83130  0.13830  Biso   1.000  H
  C48      1.0000 0.12410  0.70210  0.17710  Biso   1.000  C
  H43      1.0000 0.09840  0.66860  0.13740  Biso   1.000  H
  N4       1.0000 0.27180  0.42860  0.09080  Biso   1.000  N
  H44      1.0000 0.11750  0.74190  0.73880  Biso   1.000  H
  O13      1.0000 0.16090  0.64530  0.95630  Biso   1.000  O
  O14      1.0000 0.22930  0.61190  0.81560  Biso   1.000  O
  O15      1.0000 0.79660  0.80450  0.84280  Biso   1.000  O
  O16      1.0000 0.16250  0.69480  0.52290  Biso   1.000  O
  Co5      1.0000 0.19411  0.83721  0.67762  Biso   1.000  Co
  C49      1.0000 0.27360  0.04340  0.47510  Biso   1.000  C
  C50      1.0000 0.31160  0.01880  0.56570  Biso   1.000  C
  H45      1.0000 0.35350  0.04090  0.58950  Biso   1.000  H
  C51      1.0000 0.28760  0.96180  0.62030  Biso   1.000  C
  H46      1.0000 0.31410  0.94510  0.68160  Biso   1.000  H
  C52      1.0000 0.19280  0.95180  0.50420  Biso   1.000  C
  H47      1.0000 0.15170  0.92800  0.48120  Biso   1.000  H
  C53      1.0000 0.21250  0.00900  0.44530  Biso   1.000  C
  H48      1.0000 0.18450  0.02460  0.38490  Biso   1.000  H
  C54      1.0000 0.29670  0.10540  0.41040  Biso   1.000  C
  C55      1.0000 0.56200  0.30940  0.40090  Biso   1.000  C
  H49      1.0000 0.58570  0.35170  0.39500  Biso   1.000  H
  C56      1.0000 0.49070  0.30750  0.42390  Biso   1.000  C
  H50      1.0000 0.46640  0.34930  0.43340  Biso   1.000  H
  C57      1.0000 0.30620  0.29910  0.79040  Biso   1.000  C
  H51      1.0000 0.28190  0.33460  0.82780  Biso   1.000  H
  C58      1.0000 0.37600  0.19940  0.79200  Biso   1.000  C
  H52      1.0000 0.39960  0.16370  0.83000  Biso   1.000  H
  C59      1.0000 0.30680  0.29720  0.67750  Biso   1.000  C
  H53      1.0000 0.28150  0.33130  0.63830  Biso   1.000  H
  C60      1.0000 0.37590  0.20210  0.67710  Biso   1.000  C
  H54      1.0000 0.40160  0.16860  0.63740  Biso   1.000  H
  N5       1.0000 0.22820  0.92860  0.59080  Biso   1.000  N
  H55      1.0000 0.38250  0.24190  0.23880  Biso   1.000  H
  O17      1.0000 0.33910  0.14530  0.45630  Biso   1.000  O
  O18      1.0000 0.27070  0.11190  0.31560  Biso   1.000  O
  O19      1.0000 0.70340  0.30450  0.34280  Biso   1.000  O
  O20      1.0000 0.33750  0.19480  0.02290  Biso   1.000  O
  Co6      1.0000 0.30589  0.16279  0.17762  Biso   1.000  Co
  C61      1.0000 0.22640  0.95660  0.97510  Biso   1.000  C
  C62      1.0000 0.18840  0.98120  0.06570  Biso   1.000  C
  H56      1.0000 0.14650  0.95910  0.08950  Biso   1.000  H
  C63      1.0000 0.21240  0.03820  0.12030  Biso   1.000  C
  H57      1.0000 0.18590  0.05490  0.18160  Biso   1.000  H
  C64      1.0000 0.30720  0.04820  0.00420  Biso   1.000  C
  H58      1.0000 0.34830  0.07200  0.98120  Biso   1.000  H
  C65      1.0000 0.28750  0.99100  0.94530  Biso   1.000  C
  H59      1.0000 0.31550  0.97540  0.88490  Biso   1.000  H
  C66      1.0000 0.20330  0.89460  0.91040  Biso   1.000  C
  C67      1.0000 0.93800  0.69060  0.90090  Biso   1.000  C
  H60      1.0000 0.91430  0.64830  0.89500  Biso   1.000  H
  C68      1.0000 0.00930  0.69250  0.92390  Biso   1.000  C
  H61      1.0000 0.03360  0.65070  0.93340  Biso   1.000  H
  C69      1.0000 0.19380  0.70090  0.29040  Biso   1.000  C
  H62      1.0000 0.21810  0.66540  0.32780  Biso   1.000  H
  C70      1.0000 0.12400  0.80060  0.29200  Biso   1.000  C
  H63      1.0000 0.10040  0.83630  0.33000  Biso   1.000  H
  C71      1.0000 0.19320  0.70280  0.17750  Biso   1.000  C
  H64      1.0000 0.21850  0.66870  0.13830  Biso   1.000  H
  C72      1.0000 0.12410  0.79790  0.17710  Biso   1.000  C
  H65      1.0000 0.09840  0.83140  0.13740  Biso   1.000  H
  N6       1.0000 0.27180  0.07140  0.09080  Biso   1.000  N
  H66      1.0000 0.11750  0.75810  0.73880  Biso   1.000  H
  O21      1.0000 0.16090  0.85470  0.95630  Biso   1.000  O
  O22      1.0000 0.22930  0.88810  0.81560  Biso   1.000  O
  O23      1.0000 0.79660  0.69550  0.84280  Biso   1.000  O
  O24      1.0000 0.16250  0.80520  0.52290  Biso   1.000  O
  Co7      1.0000 0.80589  0.33721  0.32238  Biso   1.000  Co
  C73      1.0000 0.72640  0.54340  0.52490  Biso   1.000  C
  C74      1.0000 0.68840  0.51880  0.43430  Biso   1.000  C
  H67      1.0000 0.64650  0.54090  0.41050  Biso   1.000  H
  C75      1.0000 0.71240  0.46180  0.37970  Biso   1.000  C
  H68      1.0000 0.68590  0.44510  0.31840  Biso   1.000  H
  C76      1.0000 0.80720  0.45180  0.49580  Biso   1.000  C
  H69      1.0000 0.84830  0.42800  0.51880  Biso   1.000  H
  C77      1.0000 0.78750  0.50900  0.55470  Biso   1.000  C
  H70      1.0000 0.81550  0.52460  0.61510  Biso   1.000  H
  C78      1.0000 0.70330  0.60540  0.58960  Biso   1.000  C
  C79      1.0000 0.43800  0.80940  0.59910  Biso   1.000  C
  H71      1.0000 0.41430  0.85170  0.60500  Biso   1.000  H
  C80      1.0000 0.50930  0.80750  0.57610  Biso   1.000  C
  H72      1.0000 0.53360  0.84930  0.56660  Biso   1.000  H
  C81      1.0000 0.69380  0.79910  0.20960  Biso   1.000  C
  H73      1.0000 0.71810  0.83460  0.17220  Biso   1.000  H
  C82      1.0000 0.62400  0.69940  0.20800  Biso   1.000  C
  H74      1.0000 0.60040  0.66370  0.17000  Biso   1.000  H
  C83      1.0000 0.69320  0.79720  0.32250  Biso   1.000  C
  H75      1.0000 0.71850  0.83130  0.36170  Biso   1.000  H
  C84      1.0000 0.62410  0.70210  0.32290  Biso   1.000  C
  H76      1.0000 0.59840  0.66860  0.36260  Biso   1.000  H
  N7       1.0000 0.77180  0.42860  0.40920  Biso   1.000  N
  H77      1.0000 0.61750  0.74190  0.76120  Biso   1.000  H
  O25      1.0000 0.66090  0.64530  0.54370  Biso   1.000  O
  O26      1.0000 0.72930  0.61190  0.68440  Biso   1.000  O
  O27      1.0000 0.29660  0.80450  0.65720  Biso   1.000  O
  O28      1.0000 0.66250  0.69480  0.97710  Biso   1.000  O
  Co8      1.0000 0.69411  0.66279  0.82238  Biso   1.000  Co
  C85      1.0000 0.77360  0.45660  0.02490  Biso   1.000  C
  C86      1.0000 0.81160  0.48120  0.93430  Biso   1.000  C
  H78      1.0000 0.85350  0.45910  0.91050  Biso   1.000  H
  C87      1.0000 0.78760  0.53820  0.87970  Biso   1.000  C
  H79      1.0000 0.81410  0.55490  0.81840  Biso   1.000  H
  C88      1.0000 0.69280  0.54820  0.99580  Biso   1.000  C
  H80      1.0000 0.65170  0.57200  0.01880  Biso   1.000  H
  C89      1.0000 0.71250  0.49100  0.05470  Biso   1.000  C
  H81      1.0000 0.68450  0.47540  0.11510  Biso   1.000  H
  C90      1.0000 0.79670  0.39460  0.08960  Biso   1.000  C
  C91      1.0000 0.06200  0.19060  0.09910  Biso   1.000  C
  H82      1.0000 0.08570  0.14830  0.10500  Biso   1.000  H
  C92      1.0000 0.99070  0.19250  0.07610  Biso   1.000  C
  H83      1.0000 0.96640  0.15070  0.06660  Biso   1.000  H
  C93      1.0000 0.80620  0.20090  0.70960  Biso   1.000  C
  H84      1.0000 0.78190  0.16540  0.67220  Biso   1.000  H
  C94      1.0000 0.87600  0.30060  0.70800  Biso   1.000  C
  H85      1.0000 0.89960  0.33630  0.67000  Biso   1.000  H
  C95      1.0000 0.80680  0.20280  0.82250  Biso   1.000  C
  H86      1.0000 0.78150  0.16870  0.86170  Biso   1.000  H
  C96      1.0000 0.87590  0.29790  0.82290  Biso   1.000  C
  H87      1.0000 0.90160  0.33140  0.86260  Biso   1.000  H
  N8       1.0000 0.72820  0.57140  0.90920  Biso   1.000  N
  H88      1.0000 0.88250  0.25810  0.26120  Biso   1.000  H
  O29      1.0000 0.83910  0.35470  0.04370  Biso   1.000  O
  O30      1.0000 0.77070  0.38810  0.18440  Biso   1.000  O
  O31      1.0000 0.20340  0.19550  0.15720  Biso   1.000  O
  O32      1.0000 0.83750  0.30520  0.47710  Biso   1.000  O
  Co9      1.0000 0.65833  0.75000  0.56412  Biso   1.000  Co
  C97      1.0000 0.40170  0.75000  0.61330  Biso   1.000  C
  C98      1.0000 0.32510  0.75000  0.64630  Biso   1.000  C
  C99      1.0000 0.65940  0.75000  0.14910  Biso   1.000  C
  N9       1.0000 0.54550  0.75000  0.56650  Biso   1.000  N
  N10      1.0000 0.65900  0.75000  0.38150  Biso   1.000  N
  O33      1.0000 0.65930  0.75000  0.73940  Biso   1.000  O
  O34      1.0000 0.77170  0.75000  0.57290  Biso   1.000  O
  H89      1.0000 0.78850  0.75000  0.50830  Biso   1.000  H
  C100     1.0000 0.66210  0.75000  0.02260  Biso   1.000  C
  Co10     1.0000 0.84167  0.25000  0.06412  Biso   1.000  Co
  C101     1.0000 0.09830  0.25000  0.11330  Biso   1.000  C
  C102     1.0000 0.17490  0.25000  0.14630  Biso   1.000  C
  C103     1.0000 0.84060  0.25000  0.64910  Biso   1.000  C
  N11      1.0000 0.95450  0.25000  0.06650  Biso   1.000  N
  N12      1.0000 0.84100  0.25000  0.88150  Biso   1.000  N
  O35      1.0000 0.84070  0.25000  0.23940  Biso   1.000  O
  O36      1.0000 0.72830  0.25000  0.07290  Biso   1.000  O
  H90      1.0000 0.71150  0.25000  0.00830  Biso   1.000  H
  C104     1.0000 0.83790  0.25000  0.52260  Biso   1.000  C
  Co11     1.0000 0.34167  0.25000  0.43588  Biso   1.000  Co
  C105     1.0000 0.59830  0.25000  0.38670  Biso   1.000  C
  C106     1.0000 0.67490  0.25000  0.35370  Biso   1.000  C
  C107     1.0000 0.34060  0.25000  0.85090  Biso   1.000  C
  N13      1.0000 0.45450  0.25000  0.43350  Biso   1.000  N
  N14      1.0000 0.34100  0.25000  0.61850  Biso   1.000  N
  O37      1.0000 0.34070  0.25000  0.26060  Biso   1.000  O
  O38      1.0000 0.22830  0.25000  0.42710  Biso   1.000  O
  H91      1.0000 0.21150  0.25000  0.49170  Biso   1.000  H
  C108     1.0000 0.33790  0.25000  0.97740  Biso   1.000  C
  Co12     1.0000 0.15833  0.75000  0.93588  Biso   1.000  Co
  C109     1.0000 0.90170  0.75000  0.88670  Biso   1.000  C
  C110     1.0000 0.82510  0.75000  0.85370  Biso   1.000  C
  C111     1.0000 0.15940  0.75000  0.35090  Biso   1.000  C
  N15      1.0000 0.04550  0.75000  0.93350  Biso   1.000  N
  N16      1.0000 0.15900  0.75000  0.11850  Biso   1.000  N
  O39      1.0000 0.15930  0.75000  0.76060  Biso   1.000  O
  O40      1.0000 0.27170  0.75000  0.92710  Biso   1.000  O
  H92      1.0000 0.28850  0.75000  0.99170  Biso   1.000  H
  C112     1.0000 0.16210  0.75000  0.47740  Biso   1.000  C
