data_image0
_cell_length_a       22.7374
_cell_length_b       22.7374
_cell_length_c       17.8238
_cell_angle_alpha    90
_cell_angle_beta     90
_cell_angle_gamma    120

_symmetry_space_group_name_H-M    "P 1"
_symmetry_int_tables_number       1

loop_
  _symmetry_equiv_pos_as_xyz
  'x, y, z'

loop_
  _atom_site_label
  _atom_site_occupancy
  _atom_site_fract_x
  _atom_site_fract_y
  _atom_site_fract_z
  _atom_site_thermal_displace_type
  _atom_site_B_iso_or_equiv
  _atom_site_type_symbol
  O1       1.0000 0.05280  0.24080  0.09390  Biso   1.000  O
  C1       1.0000 0.94170  0.27000  0.20320  Biso   1.000  C
  H1       1.0000 0.90300  0.24600  0.17110  Biso   1.000  H
  C2       1.0000 0.94180  0.31220  0.25970  Biso   1.000  C
  H2       1.0000 0.90300  0.31750  0.26730  Biso   1.000  H
  C3       1.0000 0.05650  0.34260  0.29210  Biso   1.000  C
  H3       1.0000 0.09540  0.36680  0.32390  Biso   1.000  H
  C4       1.0000 0.05430  0.29810  0.23750  Biso   1.000  C
  H4       1.0000 0.09300  0.29210  0.23140  Biso   1.000  H
  H5       1.0000 0.16520  0.34200  0.96020  Biso   1.000  H
  H6       1.0000 0.02010  0.10150  0.24480  Biso   1.000  H
  O2       1.0000 0.04230  0.20140  0.14110  Biso   1.000  O
  O3       1.0000 0.75920  0.81200  0.09390  Biso   1.000  O
  C5       1.0000 0.73000  0.67170  0.20320  Biso   1.000  C
  H7       1.0000 0.75400  0.65700  0.17110  Biso   1.000  H
  C6       1.0000 0.68780  0.62960  0.25970  Biso   1.000  C
  H8       1.0000 0.68250  0.58550  0.26730  Biso   1.000  H
  C7       1.0000 0.65740  0.71390  0.29210  Biso   1.000  C
  H9       1.0000 0.63320  0.72860  0.32390  Biso   1.000  H
  C8       1.0000 0.70190  0.75620  0.23750  Biso   1.000  C
  H10      1.0000 0.70790  0.80090  0.23140  Biso   1.000  H
  H11      1.0000 0.65800  0.82320  0.96020  Biso   1.000  H
  H12      1.0000 0.89850  0.91860  0.24480  Biso   1.000  H
  O4       1.0000 0.79860  0.84090  0.14110  Biso   1.000  O
  O5       1.0000 0.18800  0.94720  0.09390  Biso   1.000  O
  C9       1.0000 0.32830  0.05830  0.20320  Biso   1.000  C
  H13      1.0000 0.34300  0.09700  0.17110  Biso   1.000  H
  C10      1.0000 0.37040  0.05820  0.25970  Biso   1.000  C
  H14      1.0000 0.41450  0.09700  0.26730  Biso   1.000  H
  C11      1.0000 0.28610  0.94350  0.29210  Biso   1.000  C
  H15      1.0000 0.27140  0.90460  0.32390  Biso   1.000  H
  C12      1.0000 0.24380  0.94570  0.23750  Biso   1.000  C
  H16      1.0000 0.19910  0.90700  0.23140  Biso   1.000  H
  H17      1.0000 0.17680  0.83480  0.96020  Biso   1.000  H
  H18      1.0000 0.08140  0.97990  0.24480  Biso   1.000  H
  O6       1.0000 0.15910  0.95770  0.14110  Biso   1.000  O
  O7       1.0000 0.94720  0.75920  0.09390  Biso   1.000  O
  C13      1.0000 0.05830  0.73000  0.20320  Biso   1.000  C
  H19      1.0000 0.09700  0.75400  0.17110  Biso   1.000  H
  C14      1.0000 0.05820  0.68780  0.25970  Biso   1.000  C
  H20      1.0000 0.09700  0.68250  0.26730  Biso   1.000  H
  C15      1.0000 0.94350  0.65740  0.29210  Biso   1.000  C
  H21      1.0000 0.90460  0.63320  0.32390  Biso   1.000  H
  C16      1.0000 0.94570  0.70190  0.23750  Biso   1.000  C
  H22      1.0000 0.90700  0.70790  0.23140  Biso   1.000  H
  H23      1.0000 0.83480  0.65800  0.96020  Biso   1.000  H
  H24      1.0000 0.97990  0.89850  0.24480  Biso   1.000  H
  O8       1.0000 0.95770  0.79860  0.14110  Biso   1.000  O
  O9       1.0000 0.24080  0.18800  0.09390  Biso   1.000  O
  C17      1.0000 0.27000  0.32830  0.20320  Biso   1.000  C
  H25      1.0000 0.24600  0.34300  0.17110  Biso   1.000  H
  C18      1.0000 0.31220  0.37040  0.25970  Biso   1.000  C
  H26      1.0000 0.31750  0.41450  0.26730  Biso   1.000  H
  C19      1.0000 0.34260  0.28610  0.29210  Biso   1.000  C
  H27      1.0000 0.36680  0.27140  0.32390  Biso   1.000  H
  C20      1.0000 0.29810  0.24380  0.23750  Biso   1.000  C
  H28      1.0000 0.29210  0.19910  0.23140  Biso   1.000  H
  H29      1.0000 0.34200  0.17680  0.96020  Biso   1.000  H
  H30      1.0000 0.10150  0.08140  0.24480  Biso   1.000  H
  O10      1.0000 0.20140  0.15910  0.14110  Biso   1.000  O
  O11      1.0000 0.81200  0.05280  0.09390  Biso   1.000  O
  C21      1.0000 0.67170  0.94170  0.20320  Biso   1.000  C
  H31      1.0000 0.65700  0.90300  0.17110  Biso   1.000  H
  C22      1.0000 0.62960  0.94180  0.25970  Biso   1.000  C
  H32      1.0000 0.58550  0.90300  0.26730  Biso   1.000  H
  C23      1.0000 0.71390  0.05650  0.29210  Biso   1.000  C
  H33      1.0000 0.72860  0.09540  0.32390  Biso   1.000  H
  C24      1.0000 0.75620  0.05430  0.23750  Biso   1.000  C
  H34      1.0000 0.80090  0.09300  0.23140  Biso   1.000  H
  H35      1.0000 0.82320  0.16520  0.96020  Biso   1.000  H
  H36      1.0000 0.91860  0.02010  0.24480  Biso   1.000  H
  O12      1.0000 0.84090  0.04230  0.14110  Biso   1.000  O
  O13      1.0000 0.24080  0.05280  0.90610  Biso   1.000  O
  C25      1.0000 0.27000  0.94170  0.79680  Biso   1.000  C
  H37      1.0000 0.24600  0.90300  0.82890  Biso   1.000  H
  C26      1.0000 0.31220  0.94180  0.74030  Biso   1.000  C
  H38      1.0000 0.31750  0.90300  0.73270  Biso   1.000  H
  C27      1.0000 0.34260  0.05650  0.70790  Biso   1.000  C
  H39      1.0000 0.36680  0.09540  0.67610  Biso   1.000  H
  C28      1.0000 0.29810  0.05430  0.76250  Biso   1.000  C
  H40      1.0000 0.29210  0.09300  0.76860  Biso   1.000  H
  H41      1.0000 0.34200  0.16520  0.03980  Biso   1.000  H
  H42      1.0000 0.10150  0.02010  0.75520  Biso   1.000  H
  O14      1.0000 0.20140  0.04230  0.85890  Biso   1.000  O
  O15      1.0000 0.81200  0.75920  0.90610  Biso   1.000  O
  C29      1.0000 0.67170  0.73000  0.79680  Biso   1.000  C
  H43      1.0000 0.65700  0.75400  0.82890  Biso   1.000  H
  C30      1.0000 0.62960  0.68780  0.74030  Biso   1.000  C
  H44      1.0000 0.58550  0.68250  0.73270  Biso   1.000  H
  C31      1.0000 0.71390  0.65740  0.70790  Biso   1.000  C
  H45      1.0000 0.72860  0.63320  0.67610  Biso   1.000  H
  C32      1.0000 0.75620  0.70190  0.76250  Biso   1.000  C
  H46      1.0000 0.80090  0.70790  0.76860  Biso   1.000  H
  H47      1.0000 0.82320  0.65800  0.03980  Biso   1.000  H
  H48      1.0000 0.91860  0.89850  0.75520  Biso   1.000  H
  O16      1.0000 0.84090  0.79860  0.85890  Biso   1.000  O
  O17      1.0000 0.94720  0.18800  0.90610  Biso   1.000  O
  C33      1.0000 0.05830  0.32830  0.79680  Biso   1.000  C
  H49      1.0000 0.09700  0.34300  0.82890  Biso   1.000  H
  C34      1.0000 0.05820  0.37040  0.74030  Biso   1.000  C
  H50      1.0000 0.09700  0.41450  0.73270  Biso   1.000  H
  C35      1.0000 0.94350  0.28610  0.70790  Biso   1.000  C
  H51      1.0000 0.90460  0.27140  0.67610  Biso   1.000  H
  C36      1.0000 0.94570  0.24380  0.76250  Biso   1.000  C
  H52      1.0000 0.90700  0.19910  0.76860  Biso   1.000  H
  H53      1.0000 0.83480  0.17680  0.03980  Biso   1.000  H
  H54      1.0000 0.97990  0.08140  0.75520  Biso   1.000  H
  O18      1.0000 0.95770  0.15910  0.85890  Biso   1.000  O
  O19      1.0000 0.75920  0.94720  0.90610  Biso   1.000  O
  C37      1.0000 0.73000  0.05830  0.79680  Biso   1.000  C
  H55      1.0000 0.75400  0.09700  0.82890  Biso   1.000  H
  C38      1.0000 0.68780  0.05820  0.74030  Biso   1.000  C
  H56      1.0000 0.68250  0.09700  0.73270  Biso   1.000  H
  C39      1.0000 0.65740  0.94350  0.70790  Biso   1.000  C
  H57      1.0000 0.63320  0.90460  0.67610  Biso   1.000  H
  C40      1.0000 0.70190  0.94570  0.76250  Biso   1.000  C
  H58      1.0000 0.70790  0.90700  0.76860  Biso   1.000  H
  H59      1.0000 0.65800  0.83480  0.03980  Biso   1.000  H
  H60      1.0000 0.89850  0.97990  0.75520  Biso   1.000  H
  O20      1.0000 0.79860  0.95770  0.85890  Biso   1.000  O
  O21      1.0000 0.18800  0.24080  0.90610  Biso   1.000  O
  C41      1.0000 0.32830  0.27000  0.79680  Biso   1.000  C
  H61      1.0000 0.34300  0.24600  0.82890  Biso   1.000  H
  C42      1.0000 0.37040  0.31220  0.74030  Biso   1.000  C
  H62      1.0000 0.41450  0.31750  0.73270  Biso   1.000  H
  C43      1.0000 0.28610  0.34260  0.70790  Biso   1.000  C
  H63      1.0000 0.27140  0.36680  0.67610  Biso   1.000  H
  C44      1.0000 0.24380  0.29810  0.76250  Biso   1.000  C
  H64      1.0000 0.19910  0.29210  0.76860  Biso   1.000  H
  H65      1.0000 0.17680  0.34200  0.03980  Biso   1.000  H
  H66      1.0000 0.08140  0.10150  0.75520  Biso   1.000  H
  O22      1.0000 0.15910  0.20140  0.85890  Biso   1.000  O
  O23      1.0000 0.05280  0.81200  0.90610  Biso   1.000  O
  C45      1.0000 0.94170  0.67170  0.79680  Biso   1.000  C
  H67      1.0000 0.90300  0.65700  0.82890  Biso   1.000  H
  C46      1.0000 0.94180  0.62960  0.74030  Biso   1.000  C
  H68      1.0000 0.90300  0.58550  0.73270  Biso   1.000  H
  C47      1.0000 0.05650  0.71390  0.70790  Biso   1.000  C
  H69      1.0000 0.09540  0.72860  0.67610  Biso   1.000  H
  C48      1.0000 0.05430  0.75620  0.76250  Biso   1.000  C
  H70      1.0000 0.09300  0.80090  0.76860  Biso   1.000  H
  H71      1.0000 0.16520  0.82320  0.03980  Biso   1.000  H
  H72      1.0000 0.02010  0.91860  0.75520  Biso   1.000  H
  O24      1.0000 0.04230  0.84090  0.85890  Biso   1.000  O
  O25      1.0000 0.94720  0.75920  0.90610  Biso   1.000  O
  C49      1.0000 0.05830  0.73000  0.79680  Biso   1.000  C
  H73      1.0000 0.09700  0.75400  0.82890  Biso   1.000  H
  C50      1.0000 0.05820  0.68780  0.74030  Biso   1.000  C
  H74      1.0000 0.09700  0.68250  0.73270  Biso   1.000  H
  C51      1.0000 0.94350  0.65740  0.70790  Biso   1.000  C
  H75      1.0000 0.90460  0.63320  0.67610  Biso   1.000  H
  C52      1.0000 0.94570  0.70190  0.76250  Biso   1.000  C
  H76      1.0000 0.90700  0.70790  0.76860  Biso   1.000  H
  H77      1.0000 0.83480  0.65800  0.03980  Biso   1.000  H
  H78      1.0000 0.97990  0.89850  0.75520  Biso   1.000  H
  O26      1.0000 0.95770  0.79860  0.85890  Biso   1.000  O
  O27      1.0000 0.24080  0.18800  0.90610  Biso   1.000  O
  C53      1.0000 0.27000  0.32830  0.79680  Biso   1.000  C
  H79      1.0000 0.24600  0.34300  0.82890  Biso   1.000  H
  C54      1.0000 0.31220  0.37040  0.74030  Biso   1.000  C
  H80      1.0000 0.31750  0.41450  0.73270  Biso   1.000  H
  C55      1.0000 0.34260  0.28610  0.70790  Biso   1.000  C
  H81      1.0000 0.36680  0.27140  0.67610  Biso   1.000  H
  C56      1.0000 0.29810  0.24380  0.76250  Biso   1.000  C
  H82      1.0000 0.29210  0.19910  0.76860  Biso   1.000  H
  H83      1.0000 0.34200  0.17680  0.03980  Biso   1.000  H
  H84      1.0000 0.10150  0.08140  0.75520  Biso   1.000  H
  O28      1.0000 0.20140  0.15910  0.85890  Biso   1.000  O
  O29      1.0000 0.81200  0.05280  0.90610  Biso   1.000  O
  C57      1.0000 0.67170  0.94170  0.79680  Biso   1.000  C
  H85      1.0000 0.65700  0.90300  0.82890  Biso   1.000  H
  C58      1.0000 0.62960  0.94180  0.74030  Biso   1.000  C
  H86      1.0000 0.58550  0.90300  0.73270  Biso   1.000  H
  C59      1.0000 0.71390  0.05650  0.70790  Biso   1.000  C
  H87      1.0000 0.72860  0.09540  0.67610  Biso   1.000  H
  C60      1.0000 0.75620  0.05430  0.76250  Biso   1.000  C
  H88      1.0000 0.80090  0.09300  0.76860  Biso   1.000  H
  H89      1.0000 0.82320  0.16520  0.03980  Biso   1.000  H
  H90      1.0000 0.91860  0.02010  0.75520  Biso   1.000  H
  O30      1.0000 0.84090  0.04230  0.85890  Biso   1.000  O
  O31      1.0000 0.05280  0.24080  0.90610  Biso   1.000  O
  C61      1.0000 0.94170  0.27000  0.79680  Biso   1.000  C
  H91      1.0000 0.90300  0.24600  0.82890  Biso   1.000  H
  C62      1.0000 0.94180  0.31220  0.74030  Biso   1.000  C
  H92      1.0000 0.90300  0.31750  0.73270  Biso   1.000  H
  C63      1.0000 0.05650  0.34260  0.70790  Biso   1.000  C
  H93      1.0000 0.09540  0.36680  0.67610  Biso   1.000  H
  C64      1.0000 0.05430  0.29810  0.76250  Biso   1.000  C
  H94      1.0000 0.09300  0.29210  0.76860  Biso   1.000  H
  H95      1.0000 0.16520  0.34200  0.03980  Biso   1.000  H
  H96      1.0000 0.02010  0.10150  0.75520  Biso   1.000  H
  O32      1.0000 0.04230  0.20140  0.85890  Biso   1.000  O
  O33      1.0000 0.75920  0.81200  0.90610  Biso   1.000  O
  C65      1.0000 0.73000  0.67170  0.79680  Biso   1.000  C
  H97      1.0000 0.75400  0.65700  0.82890  Biso   1.000  H
  C66      1.0000 0.68780  0.62960  0.74030  Biso   1.000  C
  H98      1.0000 0.68250  0.58550  0.73270  Biso   1.000  H
  C67      1.0000 0.65740  0.71390  0.70790  Biso   1.000  C
  H99      1.0000 0.63320  0.72860  0.67610  Biso   1.000  H
  C68      1.0000 0.70190  0.75620  0.76250  Biso   1.000  C
  H100     1.0000 0.70790  0.80090  0.76860  Biso   1.000  H
  H101     1.0000 0.65800  0.82320  0.03980  Biso   1.000  H
  H102     1.0000 0.89850  0.91860  0.75520  Biso   1.000  H
  O34      1.0000 0.79860  0.84090  0.85890  Biso   1.000  O
  O35      1.0000 0.18800  0.94720  0.90610  Biso   1.000  O
  C69      1.0000 0.32830  0.05830  0.79680  Biso   1.000  C
  H103     1.0000 0.34300  0.09700  0.82890  Biso   1.000  H
  C70      1.0000 0.37040  0.05820  0.74030  Biso   1.000  C
  H104     1.0000 0.41450  0.09700  0.73270  Biso   1.000  H
  C71      1.0000 0.28610  0.94350  0.70790  Biso   1.000  C
  H105     1.0000 0.27140  0.90460  0.67610  Biso   1.000  H
  C72      1.0000 0.24380  0.94570  0.76250  Biso   1.000  C
  H106     1.0000 0.19910  0.90700  0.76860  Biso   1.000  H
  H107     1.0000 0.17680  0.83480  0.03980  Biso   1.000  H
  H108     1.0000 0.08140  0.97990  0.75520  Biso   1.000  H
  O36      1.0000 0.15910  0.95770  0.85890  Biso   1.000  O
  O37      1.0000 0.75920  0.94720  0.09390  Biso   1.000  O
  C73      1.0000 0.73000  0.05830  0.20320  Biso   1.000  C
  H109     1.0000 0.75400  0.09700  0.17110  Biso   1.000  H
  C74      1.0000 0.68780  0.05820  0.25970  Biso   1.000  C
  H110     1.0000 0.68250  0.09700  0.26730  Biso   1.000  H
  C75      1.0000 0.65740  0.94350  0.29210  Biso   1.000  C
  H111     1.0000 0.63320  0.90460  0.32390  Biso   1.000  H
  C76      1.0000 0.70190  0.94570  0.23750  Biso   1.000  C
  H112     1.0000 0.70790  0.90700  0.23140  Biso   1.000  H
  H113     1.0000 0.65800  0.83480  0.96020  Biso   1.000  H
  H114     1.0000 0.89850  0.97990  0.24480  Biso   1.000  H
  O38      1.0000 0.79860  0.95770  0.14110  Biso   1.000  O
  O39      1.0000 0.18800  0.24080  0.09390  Biso   1.000  O
  C77      1.0000 0.32830  0.27000  0.20320  Biso   1.000  C
  H115     1.0000 0.34300  0.24600  0.17110  Biso   1.000  H
  C78      1.0000 0.37040  0.31220  0.25970  Biso   1.000  C
  H116     1.0000 0.41450  0.31750  0.26730  Biso   1.000  H
  C79      1.0000 0.28610  0.34260  0.29210  Biso   1.000  C
  H117     1.0000 0.27140  0.36680  0.32390  Biso   1.000  H
  C80      1.0000 0.24380  0.29810  0.23750  Biso   1.000  C
  H118     1.0000 0.19910  0.29210  0.23140  Biso   1.000  H
  H119     1.0000 0.17680  0.34200  0.96020  Biso   1.000  H
  H120     1.0000 0.08140  0.10150  0.24480  Biso   1.000  H
  O40      1.0000 0.15910  0.20140  0.14110  Biso   1.000  O
  O41      1.0000 0.05280  0.81200  0.09390  Biso   1.000  O
  C81      1.0000 0.94170  0.67170  0.20320  Biso   1.000  C
  H121     1.0000 0.90300  0.65700  0.17110  Biso   1.000  H
  C82      1.0000 0.94180  0.62960  0.25970  Biso   1.000  C
  H122     1.0000 0.90300  0.58550  0.26730  Biso   1.000  H
  C83      1.0000 0.05650  0.71390  0.29210  Biso   1.000  C
  H123     1.0000 0.09540  0.72860  0.32390  Biso   1.000  H
  C84      1.0000 0.05430  0.75620  0.23750  Biso   1.000  C
  H124     1.0000 0.09300  0.80090  0.23140  Biso   1.000  H
  H125     1.0000 0.16520  0.82320  0.96020  Biso   1.000  H
  H126     1.0000 0.02010  0.91860  0.24480  Biso   1.000  H
  O42      1.0000 0.04230  0.84090  0.14110  Biso   1.000  O
  O43      1.0000 0.24080  0.05280  0.09390  Biso   1.000  O
  C85      1.0000 0.27000  0.94170  0.20320  Biso   1.000  C
  H127     1.0000 0.24600  0.90300  0.17110  Biso   1.000  H
  C86      1.0000 0.31220  0.94180  0.25970  Biso   1.000  C
  H128     1.0000 0.31750  0.90300  0.26730  Biso   1.000  H
  C87      1.0000 0.34260  0.05650  0.29210  Biso   1.000  C
  H129     1.0000 0.36680  0.09540  0.32390  Biso   1.000  H
  C88      1.0000 0.29810  0.05430  0.23750  Biso   1.000  C
  H130     1.0000 0.29210  0.09300  0.23140  Biso   1.000  H
  H131     1.0000 0.34200  0.16520  0.96020  Biso   1.000  H
  H132     1.0000 0.10150  0.02010  0.24480  Biso   1.000  H
  O44      1.0000 0.20140  0.04230  0.14110  Biso   1.000  O
  O45      1.0000 0.81200  0.75920  0.09390  Biso   1.000  O
  C89      1.0000 0.67170  0.73000  0.20320  Biso   1.000  C
  H133     1.0000 0.65700  0.75400  0.17110  Biso   1.000  H
  C90      1.0000 0.62960  0.68780  0.25970  Biso   1.000  C
  H134     1.0000 0.58550  0.68250  0.26730  Biso   1.000  H
  C91      1.0000 0.71390  0.65740  0.29210  Biso   1.000  C
  H135     1.0000 0.72860  0.63320  0.32390  Biso   1.000  H
  C92      1.0000 0.75620  0.70190  0.23750  Biso   1.000  C
  H136     1.0000 0.80090  0.70790  0.23140  Biso   1.000  H
  H137     1.0000 0.82320  0.65800  0.96020  Biso   1.000  H
  H138     1.0000 0.91860  0.89850  0.24480  Biso   1.000  H
  O46      1.0000 0.84090  0.79860  0.14110  Biso   1.000  O
  O47      1.0000 0.94720  0.18800  0.09390  Biso   1.000  O
  C93      1.0000 0.05830  0.32830  0.20320  Biso   1.000  C
  H139     1.0000 0.09700  0.34300  0.17110  Biso   1.000  H
  C94      1.0000 0.05820  0.37040  0.25970  Biso   1.000  C
  H140     1.0000 0.09700  0.41450  0.26730  Biso   1.000  H
  C95      1.0000 0.94350  0.28610  0.29210  Biso   1.000  C
  H141     1.0000 0.90460  0.27140  0.32390  Biso   1.000  H
  C96      1.0000 0.94570  0.24380  0.23750  Biso   1.000  C
  H142     1.0000 0.90700  0.19910  0.23140  Biso   1.000  H
  H143     1.0000 0.83480  0.17680  0.96020  Biso   1.000  H
  H144     1.0000 0.97990  0.08140  0.24480  Biso   1.000  H
  O48      1.0000 0.95770  0.15910  0.14110  Biso   1.000  O
  Gd1      1.0000 0.05684  0.11369  0.10801  Biso   1.000  Gd
  O49      1.0000 0.04265  0.08530  0.22360  Biso   1.000  O
  Gd2      1.0000 0.88631  0.94316  0.10801  Biso   1.000  Gd
  O50      1.0000 0.91470  0.95735  0.22360  Biso   1.000  O
  Gd3      1.0000 0.05684  0.94316  0.10801  Biso   1.000  Gd
  O51      1.0000 0.04265  0.95735  0.22360  Biso   1.000  O
  Gd4      1.0000 0.94316  0.88631  0.10801  Biso   1.000  Gd
  O52      1.0000 0.95735  0.91470  0.22360  Biso   1.000  O
  Gd5      1.0000 0.11369  0.05684  0.10801  Biso   1.000  Gd
  O53      1.0000 0.08530  0.04265  0.22360  Biso   1.000  O
  Gd6      1.0000 0.94315  0.05684  0.10801  Biso   1.000  Gd
  O54      1.0000 0.95735  0.04265  0.22360  Biso   1.000  O
  Gd7      1.0000 0.11369  0.05684  0.89199  Biso   1.000  Gd
  O55      1.0000 0.08530  0.04265  0.77640  Biso   1.000  O
  Gd8      1.0000 0.94315  0.88631  0.89199  Biso   1.000  Gd
  O56      1.0000 0.95735  0.91470  0.77640  Biso   1.000  O
  Gd9      1.0000 0.94316  0.05684  0.89199  Biso   1.000  Gd
  O57      1.0000 0.95735  0.04265  0.77640  Biso   1.000  O
  Gd10     1.0000 0.88631  0.94316  0.89199  Biso   1.000  Gd
  O58      1.0000 0.91470  0.95735  0.77640  Biso   1.000  O
  Gd11     1.0000 0.05684  0.11369  0.89199  Biso   1.000  Gd
  O59      1.0000 0.04265  0.08530  0.77640  Biso   1.000  O
  Gd12     1.0000 0.05684  0.94316  0.89199  Biso   1.000  Gd
  O60      1.0000 0.04265  0.95735  0.77640  Biso   1.000  O
  Gd13     1.0000 0.10329  0.20659  0.00000  Biso   1.000  Gd
  Gd14     1.0000 0.79341  0.89671  0.00000  Biso   1.000  Gd
  Gd15     1.0000 0.10329  0.89671  0.00000  Biso   1.000  Gd
  Gd16     1.0000 0.89671  0.79341  0.00000  Biso   1.000  Gd
  Gd17     1.0000 0.20659  0.10329  0.00000  Biso   1.000  Gd
  Gd18     1.0000 0.89671  0.10329  0.00000  Biso   1.000  Gd
  N1       1.0000 0.00000  0.40910  0.50000  Biso   1.000  N
  N2       1.0000 0.59090  0.59090  0.50000  Biso   1.000  N
  N3       1.0000 0.40910  0.00000  0.50000  Biso   1.000  N
  N4       1.0000 0.00000  0.59090  0.50000  Biso   1.000  N
  N5       1.0000 0.40910  0.40910  0.50000  Biso   1.000  N
  N6       1.0000 0.59090  0.00000  0.50000  Biso   1.000  N
  N7       1.0000 0.00000  0.50000  0.39030  Biso   1.000  N
  H145     1.0000 0.00000  0.50000  0.43850  Biso   1.000  H
  N8       1.0000 0.50000  0.50000  0.39030  Biso   1.000  N
  H146     1.0000 0.50000  0.50000  0.43850  Biso   1.000  H
  N9       1.0000 0.50000  0.00000  0.39030  Biso   1.000  N
  H147     1.0000 0.50000  0.00000  0.43850  Biso   1.000  H
  N10      1.0000 0.50000  0.00000  0.60970  Biso   1.000  N
  H148     1.0000 0.50000  0.00000  0.56150  Biso   1.000  H
  N11      1.0000 0.50000  0.50000  0.60970  Biso   1.000  N
  H149     1.0000 0.50000  0.50000  0.56150  Biso   1.000  H
  N12      1.0000 0.00000  0.50000  0.60970  Biso   1.000  N
  H150     1.0000 0.00000  0.50000  0.56150  Biso   1.000  H
  O61      1.0000 0.00000  0.12190  0.00000  Biso   1.000  O
  O62      1.0000 0.87810  0.87810  0.00000  Biso   1.000  O
  O63      1.0000 0.12190  0.00000  0.00000  Biso   1.000  O
  O64      1.0000 0.00000  0.87810  0.00000  Biso   1.000  O
  O65      1.0000 0.12190  0.12190  0.00000  Biso   1.000  O
  O66      1.0000 0.87810  0.00000  0.00000  Biso   1.000  O
  O67      1.0000 0.00000  0.00000  0.07590  Biso   1.000  O
  H151     1.0000 0.00000  0.00000  0.02820  Biso   1.000  H
  O68      1.0000 0.00000  0.00000  0.92410  Biso   1.000  O
  H152     1.0000 0.00000  0.00000  0.97180  Biso   1.000  H
  O69      1.0000 0.14250  0.32440  0.00000  Biso   1.000  O
  O70      1.0000 0.67560  0.81810  0.00000  Biso   1.000  O
  O71      1.0000 0.18190  0.85750  0.00000  Biso   1.000  O
  O72      1.0000 0.85750  0.67560  0.00000  Biso   1.000  O
  O73      1.0000 0.32440  0.18190  0.00000  Biso   1.000  O
  O74      1.0000 0.81810  0.14250  0.00000  Biso   1.000  O
  O75      1.0000 0.32440  0.14250  0.00000  Biso   1.000  O
  O76      1.0000 0.81810  0.67560  0.00000  Biso   1.000  O
  O77      1.0000 0.85750  0.18190  0.00000  Biso   1.000  O
  O78      1.0000 0.67560  0.85750  0.00000  Biso   1.000  O
  O79      1.0000 0.18190  0.32440  0.00000  Biso   1.000  O
  O80      1.0000 0.14250  0.81810  0.00000  Biso   1.000  O
  C97      1.0000 0.00000  0.21790  0.13020  Biso   1.000  C
  C98      1.0000 0.00000  0.26440  0.19230  Biso   1.000  C
  C99      1.0000 0.00000  0.34840  0.30470  Biso   1.000  C
  C100     1.0000 0.00000  0.39440  0.36510  Biso   1.000  C
  C101     1.0000 0.00000  0.37600  0.43980  Biso   1.000  C
  C102     1.0000 0.00000  0.31810  0.46590  Biso   1.000  C
  H153     1.0000 0.00000  0.28470  0.43570  Biso   1.000  H
  C103     1.0000 0.00000  0.45280  0.34240  Biso   1.000  C
  C104     1.0000 0.00000  0.47120  0.26690  Biso   1.000  C
  H154     1.0000 0.00000  0.44700  0.22490  Biso   1.000  H
  C105     1.0000 0.78210  0.78210  0.13020  Biso   1.000  C
  C106     1.0000 0.73560  0.73560  0.19230  Biso   1.000  C
  C107     1.0000 0.65160  0.65160  0.30470  Biso   1.000  C
  C108     1.0000 0.60560  0.60560  0.36510  Biso   1.000  C
  C109     1.0000 0.62400  0.62400  0.43980  Biso   1.000  C
  C110     1.0000 0.68190  0.68190  0.46590  Biso   1.000  C
  H155     1.0000 0.71530  0.71530  0.43570  Biso   1.000  H
  C111     1.0000 0.54720  0.54720  0.34240  Biso   1.000  C
  C112     1.0000 0.52880  0.52880  0.26690  Biso   1.000  C
  H156     1.0000 0.55300  0.55300  0.22490  Biso   1.000  H
  C113     1.0000 0.21790  0.00000  0.13020  Biso   1.000  C
  C114     1.0000 0.26440  0.00000  0.19230  Biso   1.000  C
  C115     1.0000 0.34840  0.00000  0.30470  Biso   1.000  C
  C116     1.0000 0.39440  0.00000  0.36510  Biso   1.000  C
  C117     1.0000 0.37600  0.00000  0.43980  Biso   1.000  C
  C118     1.0000 0.31810  0.00000  0.46590  Biso   1.000  C
  H157     1.0000 0.28470  0.00000  0.43570  Biso   1.000  H
  C119     1.0000 0.45280  0.00000  0.34240  Biso   1.000  C
  C120     1.0000 0.47120  0.00000  0.26690  Biso   1.000  C
  H158     1.0000 0.44700  0.00000  0.22490  Biso   1.000  H
  C121     1.0000 0.00000  0.78210  0.13020  Biso   1.000  C
  C122     1.0000 0.00000  0.73560  0.19230  Biso   1.000  C
  C123     1.0000 0.00000  0.65160  0.30470  Biso   1.000  C
  C124     1.0000 0.00000  0.60560  0.36510  Biso   1.000  C
  C125     1.0000 0.00000  0.62400  0.43980  Biso   1.000  C
  C126     1.0000 0.00000  0.68190  0.46590  Biso   1.000  C
  H159     1.0000 0.00000  0.71530  0.43570  Biso   1.000  H
  C127     1.0000 0.00000  0.54720  0.34240  Biso   1.000  C
  C128     1.0000 0.00000  0.52880  0.26690  Biso   1.000  C
  H160     1.0000 0.00000  0.55300  0.22490  Biso   1.000  H
  C129     1.0000 0.21790  0.21790  0.13020  Biso   1.000  C
  C130     1.0000 0.26440  0.26440  0.19230  Biso   1.000  C
  C131     1.0000 0.34840  0.34840  0.30470  Biso   1.000  C
  C132     1.0000 0.39440  0.39440  0.36510  Biso   1.000  C
  C133     1.0000 0.37600  0.37600  0.43980  Biso   1.000  C
  C134     1.0000 0.31810  0.31810  0.46590  Biso   1.000  C
  H161     1.0000 0.28470  0.28470  0.43570  Biso   1.000  H
  C135     1.0000 0.45280  0.45280  0.34240  Biso   1.000  C
  C136     1.0000 0.47120  0.47120  0.26690  Biso   1.000  C
  H162     1.0000 0.44700  0.44700  0.22490  Biso   1.000  H
  C137     1.0000 0.78210  0.00000  0.13020  Biso   1.000  C
  C138     1.0000 0.73560  0.00000  0.19230  Biso   1.000  C
  C139     1.0000 0.65160  0.00000  0.30470  Biso   1.000  C
  C140     1.0000 0.60560  0.00000  0.36510  Biso   1.000  C
  C141     1.0000 0.62400  0.00000  0.43980  Biso   1.000  C
  C142     1.0000 0.68190  0.00000  0.46590  Biso   1.000  C
  H163     1.0000 0.71530  0.00000  0.43570  Biso   1.000  H
  C143     1.0000 0.54720  0.00000  0.34240  Biso   1.000  C
  C144     1.0000 0.52880  0.00000  0.26690  Biso   1.000  C
  H164     1.0000 0.55300  0.00000  0.22490  Biso   1.000  H
  C145     1.0000 0.21790  0.00000  0.86980  Biso   1.000  C
  C146     1.0000 0.26440  0.00000  0.80770  Biso   1.000  C
  C147     1.0000 0.34840  0.00000  0.69530  Biso   1.000  C
  C148     1.0000 0.39440  0.00000  0.63490  Biso   1.000  C
  C149     1.0000 0.37600  0.00000  0.56020  Biso   1.000  C
  C150     1.0000 0.31810  0.00000  0.53410  Biso   1.000  C
  H165     1.0000 0.28470  0.00000  0.56430  Biso   1.000  H
  C151     1.0000 0.45280  0.00000  0.65760  Biso   1.000  C
  C152     1.0000 0.47120  0.00000  0.73310  Biso   1.000  C
  H166     1.0000 0.44700  0.00000  0.77510  Biso   1.000  H
  C153     1.0000 0.78210  0.78210  0.86980  Biso   1.000  C
  C154     1.0000 0.73560  0.73560  0.80770  Biso   1.000  C
  C155     1.0000 0.65160  0.65160  0.69530  Biso   1.000  C
  C156     1.0000 0.60560  0.60560  0.63490  Biso   1.000  C
  C157     1.0000 0.62400  0.62400  0.56020  Biso   1.000  C
  C158     1.0000 0.68190  0.68190  0.53410  Biso   1.000  C
  H167     1.0000 0.71530  0.71530  0.56430  Biso   1.000  H
  C159     1.0000 0.54720  0.54720  0.65760  Biso   1.000  C
  C160     1.0000 0.52880  0.52880  0.73310  Biso   1.000  C
  H168     1.0000 0.55300  0.55300  0.77510  Biso   1.000  H
  C161     1.0000 0.00000  0.21790  0.86980  Biso   1.000  C
  C162     1.0000 0.00000  0.26440  0.80770  Biso   1.000  C
  C163     1.0000 0.00000  0.34840  0.69530  Biso   1.000  C
  C164     1.0000 0.00000  0.39440  0.63490  Biso   1.000  C
  C165     1.0000 0.00000  0.37600  0.56020  Biso   1.000  C
  C166     1.0000 0.00000  0.31810  0.53410  Biso   1.000  C
  H169     1.0000 0.00000  0.28470  0.56430  Biso   1.000  H
  C167     1.0000 0.00000  0.45280  0.65760  Biso   1.000  C
  C168     1.0000 0.00000  0.47120  0.73310  Biso   1.000  C
  H170     1.0000 0.00000  0.44700  0.77510  Biso   1.000  H
  C169     1.0000 0.78210  0.00000  0.86980  Biso   1.000  C
  C170     1.0000 0.73560  0.00000  0.80770  Biso   1.000  C
  C171     1.0000 0.65160  0.00000  0.69530  Biso   1.000  C
  C172     1.0000 0.60560  0.00000  0.63490  Biso   1.000  C
  C173     1.0000 0.62400  0.00000  0.56020  Biso   1.000  C
  C174     1.0000 0.68190  0.00000  0.53410  Biso   1.000  C
  H171     1.0000 0.71530  0.00000  0.56430  Biso   1.000  H
  C175     1.0000 0.54720  0.00000  0.65760  Biso   1.000  C
  C176     1.0000 0.52880  0.00000  0.73310  Biso   1.000  C
  H172     1.0000 0.55300  0.00000  0.77510  Biso   1.000  H
  C177     1.0000 0.21790  0.21790  0.86980  Biso   1.000  C
  C178     1.0000 0.26440  0.26440  0.80770  Biso   1.000  C
  C179     1.0000 0.34840  0.34840  0.69530  Biso   1.000  C
  C180     1.0000 0.39440  0.39440  0.63490  Biso   1.000  C
  C181     1.0000 0.37600  0.37600  0.56020  Biso   1.000  C
  C182     1.0000 0.31810  0.31810  0.53410  Biso   1.000  C
  H173     1.0000 0.28470  0.28470  0.56430  Biso   1.000  H
  C183     1.0000 0.45280  0.45280  0.65760  Biso   1.000  C
  C184     1.0000 0.47120  0.47120  0.73310  Biso   1.000  C
  H174     1.0000 0.44700  0.44700  0.77510  Biso   1.000  H
  C185     1.0000 0.00000  0.78210  0.86980  Biso   1.000  C
  C186     1.0000 0.00000  0.73560  0.80770  Biso   1.000  C
  C187     1.0000 0.00000  0.65160  0.69530  Biso   1.000  C
  C188     1.0000 0.00000  0.60560  0.63490  Biso   1.000  C
  C189     1.0000 0.00000  0.62400  0.56020  Biso   1.000  C
  C190     1.0000 0.00000  0.68190  0.53410  Biso   1.000  C
  H175     1.0000 0.00000  0.71530  0.56430  Biso   1.000  H
  C191     1.0000 0.00000  0.54720  0.65760  Biso   1.000  C
  C192     1.0000 0.00000  0.52880  0.73310  Biso   1.000  C
  H176     1.0000 0.00000  0.55300  0.77510  Biso   1.000  H
