data_image0
_cell_length_a       22.7374
_cell_length_b       22.7374
_cell_length_c       17.8238
_cell_angle_alpha    90
_cell_angle_beta     90
_cell_angle_gamma    120

_symmetry_space_group_name_H-M    "P 1"
_symmetry_int_tables_number       1

loop_
  _symmetry_equiv_pos_as_xyz
  'x, y, z'

loop_
  _atom_site_label
  _atom_site_occupancy
  _atom_site_fract_x
  _atom_site_fract_y
  _atom_site_fract_z
  _atom_site_thermal_displace_type
  _atom_site_B_iso_or_equiv
  _atom_site_type_symbol
  O1       1.0000 0.05050  0.24130  0.08650  Biso   1.000  O
  C1       1.0000 0.94090  0.26920  0.20210  Biso   1.000  C
  H1       1.0000 0.90210  0.24510  0.17000  Biso   1.000  H
  C2       1.0000 0.94110  0.31130  0.25830  Biso   1.000  C
  H2       1.0000 0.90230  0.31660  0.26590  Biso   1.000  H
  O2       1.0000 0.04200  0.20210  0.13910  Biso   1.000  O
  C3       1.0000 0.05530  0.34090  0.28970  Biso   1.000  C
  H3       1.0000 0.09430  0.36510  0.32140  Biso   1.000  H
  C4       1.0000 0.05610  0.29910  0.23430  Biso   1.000  C
  H4       1.0000 0.09480  0.29310  0.22830  Biso   1.000  H
  H5       1.0000 0.01870  0.10350  0.24610  Biso   1.000  H
  O3       1.0000 0.75870  0.80920  0.08650  Biso   1.000  O
  C5       1.0000 0.73080  0.67170  0.20210  Biso   1.000  C
  H6       1.0000 0.75490  0.65700  0.17000  Biso   1.000  H
  C6       1.0000 0.68870  0.62980  0.25830  Biso   1.000  C
  H7       1.0000 0.68340  0.58570  0.26590  Biso   1.000  H
  O4       1.0000 0.79790  0.83990  0.13910  Biso   1.000  O
  C7       1.0000 0.65910  0.71440  0.28970  Biso   1.000  C
  H8       1.0000 0.63490  0.72920  0.32140  Biso   1.000  H
  C8       1.0000 0.70090  0.75700  0.23430  Biso   1.000  C
  H9       1.0000 0.70690  0.80170  0.22830  Biso   1.000  H
  H10      1.0000 0.89650  0.91520  0.24610  Biso   1.000  H
  O5       1.0000 0.19080  0.94950  0.08650  Biso   1.000  O
  C9       1.0000 0.32830  0.05910  0.20210  Biso   1.000  C
  H11      1.0000 0.34300  0.09790  0.17000  Biso   1.000  H
  C10      1.0000 0.37020  0.05890  0.25830  Biso   1.000  C
  H12      1.0000 0.41430  0.09770  0.26590  Biso   1.000  H
  O6       1.0000 0.16010  0.95800  0.13910  Biso   1.000  O
  C11      1.0000 0.28560  0.94470  0.28970  Biso   1.000  C
  H13      1.0000 0.27080  0.90570  0.32140  Biso   1.000  H
  C12      1.0000 0.24300  0.94390  0.23430  Biso   1.000  C
  H14      1.0000 0.19830  0.90520  0.22830  Biso   1.000  H
  H15      1.0000 0.08480  0.98130  0.24610  Biso   1.000  H
  O7       1.0000 0.94950  0.75870  0.08650  Biso   1.000  O
  C13      1.0000 0.05910  0.73080  0.20210  Biso   1.000  C
  H16      1.0000 0.09790  0.75490  0.17000  Biso   1.000  H
  C14      1.0000 0.05890  0.68870  0.25830  Biso   1.000  C
  H17      1.0000 0.09770  0.68340  0.26590  Biso   1.000  H
  O8       1.0000 0.95800  0.79790  0.13910  Biso   1.000  O
  C15      1.0000 0.94470  0.65910  0.28970  Biso   1.000  C
  H18      1.0000 0.90570  0.63490  0.32140  Biso   1.000  H
  C16      1.0000 0.94390  0.70090  0.23430  Biso   1.000  C
  H19      1.0000 0.90520  0.70690  0.22830  Biso   1.000  H
  H20      1.0000 0.98130  0.89650  0.24610  Biso   1.000  H
  O9       1.0000 0.24130  0.19080  0.08650  Biso   1.000  O
  C17      1.0000 0.26920  0.32830  0.20210  Biso   1.000  C
  H21      1.0000 0.24510  0.34300  0.17000  Biso   1.000  H
  C18      1.0000 0.31130  0.37020  0.25830  Biso   1.000  C
  H22      1.0000 0.31660  0.41430  0.26590  Biso   1.000  H
  O10      1.0000 0.20210  0.16010  0.13910  Biso   1.000  O
  C19      1.0000 0.34090  0.28560  0.28970  Biso   1.000  C
  H23      1.0000 0.36510  0.27080  0.32140  Biso   1.000  H
  C20      1.0000 0.29910  0.24300  0.23430  Biso   1.000  C
  H24      1.0000 0.29310  0.19830  0.22830  Biso   1.000  H
  H25      1.0000 0.10350  0.08480  0.24610  Biso   1.000  H
  O11      1.0000 0.80920  0.05050  0.08650  Biso   1.000  O
  C21      1.0000 0.67170  0.94090  0.20210  Biso   1.000  C
  H26      1.0000 0.65700  0.90210  0.17000  Biso   1.000  H
  C22      1.0000 0.62980  0.94110  0.25830  Biso   1.000  C
  H27      1.0000 0.58570  0.90230  0.26590  Biso   1.000  H
  O12      1.0000 0.83990  0.04200  0.13910  Biso   1.000  O
  C23      1.0000 0.71440  0.05530  0.28970  Biso   1.000  C
  H28      1.0000 0.72920  0.09430  0.32140  Biso   1.000  H
  C24      1.0000 0.75700  0.05610  0.23430  Biso   1.000  C
  H29      1.0000 0.80170  0.09480  0.22830  Biso   1.000  H
  H30      1.0000 0.91520  0.01870  0.24610  Biso   1.000  H
  O13      1.0000 0.24130  0.05050  0.91350  Biso   1.000  O
  C25      1.0000 0.26920  0.94090  0.79790  Biso   1.000  C
  H31      1.0000 0.24510  0.90210  0.83000  Biso   1.000  H
  C26      1.0000 0.31130  0.94110  0.74170  Biso   1.000  C
  H32      1.0000 0.31660  0.90230  0.73410  Biso   1.000  H
  O14      1.0000 0.20210  0.04200  0.86090  Biso   1.000  O
  C27      1.0000 0.34090  0.05530  0.71030  Biso   1.000  C
  H33      1.0000 0.36510  0.09430  0.67860  Biso   1.000  H
  C28      1.0000 0.29910  0.05610  0.76570  Biso   1.000  C
  H34      1.0000 0.29310  0.09480  0.77170  Biso   1.000  H
  H35      1.0000 0.10350  0.01870  0.75390  Biso   1.000  H
  O15      1.0000 0.80920  0.75870  0.91350  Biso   1.000  O
  C29      1.0000 0.67170  0.73080  0.79790  Biso   1.000  C
  H36      1.0000 0.65700  0.75490  0.83000  Biso   1.000  H
  C30      1.0000 0.62980  0.68870  0.74170  Biso   1.000  C
  H37      1.0000 0.58570  0.68340  0.73410  Biso   1.000  H
  O16      1.0000 0.83990  0.79790  0.86090  Biso   1.000  O
  C31      1.0000 0.71440  0.65910  0.71030  Biso   1.000  C
  H38      1.0000 0.72920  0.63490  0.67860  Biso   1.000  H
  C32      1.0000 0.75700  0.70090  0.76570  Biso   1.000  C
  H39      1.0000 0.80170  0.70690  0.77170  Biso   1.000  H
  H40      1.0000 0.91520  0.89650  0.75390  Biso   1.000  H
  O17      1.0000 0.94950  0.19080  0.91350  Biso   1.000  O
  C33      1.0000 0.05910  0.32830  0.79790  Biso   1.000  C
  H41      1.0000 0.09790  0.34300  0.83000  Biso   1.000  H
  C34      1.0000 0.05890  0.37020  0.74170  Biso   1.000  C
  H42      1.0000 0.09770  0.41430  0.73410  Biso   1.000  H
  O18      1.0000 0.95800  0.16010  0.86090  Biso   1.000  O
  C35      1.0000 0.94470  0.28560  0.71030  Biso   1.000  C
  H43      1.0000 0.90570  0.27080  0.67860  Biso   1.000  H
  C36      1.0000 0.94390  0.24300  0.76570  Biso   1.000  C
  H44      1.0000 0.90520  0.19830  0.77170  Biso   1.000  H
  H45      1.0000 0.98130  0.08480  0.75390  Biso   1.000  H
  O19      1.0000 0.75870  0.94950  0.91350  Biso   1.000  O
  C37      1.0000 0.73080  0.05910  0.79790  Biso   1.000  C
  H46      1.0000 0.75490  0.09790  0.83000  Biso   1.000  H
  C38      1.0000 0.68870  0.05890  0.74170  Biso   1.000  C
  H47      1.0000 0.68340  0.09770  0.73410  Biso   1.000  H
  O20      1.0000 0.79790  0.95800  0.86090  Biso   1.000  O
  C39      1.0000 0.65910  0.94470  0.71030  Biso   1.000  C
  H48      1.0000 0.63490  0.90570  0.67860  Biso   1.000  H
  C40      1.0000 0.70090  0.94390  0.76570  Biso   1.000  C
  H49      1.0000 0.70690  0.90520  0.77170  Biso   1.000  H
  H50      1.0000 0.89650  0.98130  0.75390  Biso   1.000  H
  O21      1.0000 0.19080  0.24130  0.91350  Biso   1.000  O
  C41      1.0000 0.32830  0.26920  0.79790  Biso   1.000  C
  H51      1.0000 0.34300  0.24510  0.83000  Biso   1.000  H
  C42      1.0000 0.37020  0.31130  0.74170  Biso   1.000  C
  H52      1.0000 0.41430  0.31660  0.73410  Biso   1.000  H
  O22      1.0000 0.16010  0.20210  0.86090  Biso   1.000  O
  C43      1.0000 0.28560  0.34090  0.71030  Biso   1.000  C
  H53      1.0000 0.27080  0.36510  0.67860  Biso   1.000  H
  C44      1.0000 0.24300  0.29910  0.76570  Biso   1.000  C
  H54      1.0000 0.19830  0.29310  0.77170  Biso   1.000  H
  H55      1.0000 0.08480  0.10350  0.75390  Biso   1.000  H
  O23      1.0000 0.05050  0.80920  0.91350  Biso   1.000  O
  C45      1.0000 0.94090  0.67170  0.79790  Biso   1.000  C
  H56      1.0000 0.90210  0.65700  0.83000  Biso   1.000  H
  C46      1.0000 0.94110  0.62980  0.74170  Biso   1.000  C
  H57      1.0000 0.90230  0.58570  0.73410  Biso   1.000  H
  O24      1.0000 0.04200  0.83990  0.86090  Biso   1.000  O
  C47      1.0000 0.05530  0.71440  0.71030  Biso   1.000  C
  H58      1.0000 0.09430  0.72920  0.67860  Biso   1.000  H
  C48      1.0000 0.05610  0.75700  0.76570  Biso   1.000  C
  H59      1.0000 0.09480  0.80170  0.77170  Biso   1.000  H
  H60      1.0000 0.01870  0.91520  0.75390  Biso   1.000  H
  O25      1.0000 0.94950  0.75870  0.91350  Biso   1.000  O
  C49      1.0000 0.05910  0.73080  0.79790  Biso   1.000  C
  H61      1.0000 0.09790  0.75490  0.83000  Biso   1.000  H
  C50      1.0000 0.05890  0.68870  0.74170  Biso   1.000  C
  H62      1.0000 0.09770  0.68340  0.73410  Biso   1.000  H
  O26      1.0000 0.95800  0.79790  0.86090  Biso   1.000  O
  C51      1.0000 0.94470  0.65910  0.71030  Biso   1.000  C
  H63      1.0000 0.90570  0.63490  0.67860  Biso   1.000  H
  C52      1.0000 0.94390  0.70090  0.76570  Biso   1.000  C
  H64      1.0000 0.90520  0.70690  0.77170  Biso   1.000  H
  H65      1.0000 0.98130  0.89650  0.75390  Biso   1.000  H
  O27      1.0000 0.24130  0.19080  0.91350  Biso   1.000  O
  C53      1.0000 0.26920  0.32830  0.79790  Biso   1.000  C
  H66      1.0000 0.24510  0.34300  0.83000  Biso   1.000  H
  C54      1.0000 0.31130  0.37020  0.74170  Biso   1.000  C
  H67      1.0000 0.31660  0.41430  0.73410  Biso   1.000  H
  O28      1.0000 0.20210  0.16010  0.86090  Biso   1.000  O
  C55      1.0000 0.34090  0.28560  0.71030  Biso   1.000  C
  H68      1.0000 0.36510  0.27080  0.67860  Biso   1.000  H
  C56      1.0000 0.29910  0.24300  0.76570  Biso   1.000  C
  H69      1.0000 0.29310  0.19830  0.77170  Biso   1.000  H
  H70      1.0000 0.10350  0.08480  0.75390  Biso   1.000  H
  O29      1.0000 0.80920  0.05050  0.91350  Biso   1.000  O
  C57      1.0000 0.67170  0.94090  0.79790  Biso   1.000  C
  H71      1.0000 0.65700  0.90210  0.83000  Biso   1.000  H
  C58      1.0000 0.62980  0.94110  0.74170  Biso   1.000  C
  H72      1.0000 0.58570  0.90230  0.73410  Biso   1.000  H
  O30      1.0000 0.83990  0.04200  0.86090  Biso   1.000  O
  C59      1.0000 0.71440  0.05530  0.71030  Biso   1.000  C
  H73      1.0000 0.72920  0.09430  0.67860  Biso   1.000  H
  C60      1.0000 0.75700  0.05610  0.76570  Biso   1.000  C
  H74      1.0000 0.80170  0.09480  0.77170  Biso   1.000  H
  H75      1.0000 0.91520  0.01870  0.75390  Biso   1.000  H
  O31      1.0000 0.05050  0.24130  0.91350  Biso   1.000  O
  C61      1.0000 0.94090  0.26920  0.79790  Biso   1.000  C
  H76      1.0000 0.90210  0.24510  0.83000  Biso   1.000  H
  C62      1.0000 0.94110  0.31130  0.74170  Biso   1.000  C
  H77      1.0000 0.90230  0.31660  0.73410  Biso   1.000  H
  O32      1.0000 0.04200  0.20210  0.86090  Biso   1.000  O
  C63      1.0000 0.05530  0.34090  0.71030  Biso   1.000  C
  H78      1.0000 0.09430  0.36510  0.67860  Biso   1.000  H
  C64      1.0000 0.05610  0.29910  0.76570  Biso   1.000  C
  H79      1.0000 0.09480  0.29310  0.77170  Biso   1.000  H
  H80      1.0000 0.01870  0.10350  0.75390  Biso   1.000  H
  O33      1.0000 0.75870  0.80920  0.91350  Biso   1.000  O
  C65      1.0000 0.73080  0.67170  0.79790  Biso   1.000  C
  H81      1.0000 0.75490  0.65700  0.83000  Biso   1.000  H
  C66      1.0000 0.68870  0.62980  0.74170  Biso   1.000  C
  H82      1.0000 0.68340  0.58570  0.73410  Biso   1.000  H
  O34      1.0000 0.79790  0.83990  0.86090  Biso   1.000  O
  C67      1.0000 0.65910  0.71440  0.71030  Biso   1.000  C
  H83      1.0000 0.63490  0.72920  0.67860  Biso   1.000  H
  C68      1.0000 0.70090  0.75700  0.76570  Biso   1.000  C
  H84      1.0000 0.70690  0.80170  0.77170  Biso   1.000  H
  H85      1.0000 0.89650  0.91520  0.75390  Biso   1.000  H
  O35      1.0000 0.19080  0.94950  0.91350  Biso   1.000  O
  C69      1.0000 0.32830  0.05910  0.79790  Biso   1.000  C
  H86      1.0000 0.34300  0.09790  0.83000  Biso   1.000  H
  C70      1.0000 0.37020  0.05890  0.74170  Biso   1.000  C
  H87      1.0000 0.41430  0.09770  0.73410  Biso   1.000  H
  O36      1.0000 0.16010  0.95800  0.86090  Biso   1.000  O
  C71      1.0000 0.28560  0.94470  0.71030  Biso   1.000  C
  H88      1.0000 0.27080  0.90570  0.67860  Biso   1.000  H
  C72      1.0000 0.24300  0.94390  0.76570  Biso   1.000  C
  H89      1.0000 0.19830  0.90520  0.77170  Biso   1.000  H
  H90      1.0000 0.08480  0.98130  0.75390  Biso   1.000  H
  O37      1.0000 0.75870  0.94950  0.08650  Biso   1.000  O
  C73      1.0000 0.73080  0.05910  0.20210  Biso   1.000  C
  H91      1.0000 0.75490  0.09790  0.17000  Biso   1.000  H
  C74      1.0000 0.68870  0.05890  0.25830  Biso   1.000  C
  H92      1.0000 0.68340  0.09770  0.26590  Biso   1.000  H
  O38      1.0000 0.79790  0.95800  0.13910  Biso   1.000  O
  C75      1.0000 0.65910  0.94470  0.28970  Biso   1.000  C
  H93      1.0000 0.63490  0.90570  0.32140  Biso   1.000  H
  C76      1.0000 0.70090  0.94390  0.23430  Biso   1.000  C
  H94      1.0000 0.70690  0.90520  0.22830  Biso   1.000  H
  H95      1.0000 0.89650  0.98130  0.24610  Biso   1.000  H
  O39      1.0000 0.19080  0.24130  0.08650  Biso   1.000  O
  C77      1.0000 0.32830  0.26920  0.20210  Biso   1.000  C
  H96      1.0000 0.34300  0.24510  0.17000  Biso   1.000  H
  C78      1.0000 0.37020  0.31130  0.25830  Biso   1.000  C
  H97      1.0000 0.41430  0.31660  0.26590  Biso   1.000  H
  O40      1.0000 0.16010  0.20210  0.13910  Biso   1.000  O
  C79      1.0000 0.28560  0.34090  0.28970  Biso   1.000  C
  H98      1.0000 0.27080  0.36510  0.32140  Biso   1.000  H
  C80      1.0000 0.24300  0.29910  0.23430  Biso   1.000  C
  H99      1.0000 0.19830  0.29310  0.22830  Biso   1.000  H
  H100     1.0000 0.08480  0.10350  0.24610  Biso   1.000  H
  O41      1.0000 0.05050  0.80920  0.08650  Biso   1.000  O
  C81      1.0000 0.94090  0.67170  0.20210  Biso   1.000  C
  H101     1.0000 0.90210  0.65700  0.17000  Biso   1.000  H
  C82      1.0000 0.94110  0.62980  0.25830  Biso   1.000  C
  H102     1.0000 0.90230  0.58570  0.26590  Biso   1.000  H
  O42      1.0000 0.04200  0.83990  0.13910  Biso   1.000  O
  C83      1.0000 0.05530  0.71440  0.28970  Biso   1.000  C
  H103     1.0000 0.09430  0.72920  0.32140  Biso   1.000  H
  C84      1.0000 0.05610  0.75700  0.23430  Biso   1.000  C
  H104     1.0000 0.09480  0.80170  0.22830  Biso   1.000  H
  H105     1.0000 0.01870  0.91520  0.24610  Biso   1.000  H
  O43      1.0000 0.24130  0.05050  0.08650  Biso   1.000  O
  C85      1.0000 0.26920  0.94090  0.20210  Biso   1.000  C
  H106     1.0000 0.24510  0.90210  0.17000  Biso   1.000  H
  C86      1.0000 0.31130  0.94110  0.25830  Biso   1.000  C
  H107     1.0000 0.31660  0.90230  0.26590  Biso   1.000  H
  O44      1.0000 0.20210  0.04200  0.13910  Biso   1.000  O
  C87      1.0000 0.34090  0.05530  0.28970  Biso   1.000  C
  H108     1.0000 0.36510  0.09430  0.32140  Biso   1.000  H
  C88      1.0000 0.29910  0.05610  0.23430  Biso   1.000  C
  H109     1.0000 0.29310  0.09480  0.22830  Biso   1.000  H
  H110     1.0000 0.10350  0.01870  0.24610  Biso   1.000  H
  O45      1.0000 0.80920  0.75870  0.08650  Biso   1.000  O
  C89      1.0000 0.67170  0.73080  0.20210  Biso   1.000  C
  H111     1.0000 0.65700  0.75490  0.17000  Biso   1.000  H
  C90      1.0000 0.62980  0.68870  0.25830  Biso   1.000  C
  H112     1.0000 0.58570  0.68340  0.26590  Biso   1.000  H
  O46      1.0000 0.83990  0.79790  0.13910  Biso   1.000  O
  C91      1.0000 0.71440  0.65910  0.28970  Biso   1.000  C
  H113     1.0000 0.72920  0.63490  0.32140  Biso   1.000  H
  C92      1.0000 0.75700  0.70090  0.23430  Biso   1.000  C
  H114     1.0000 0.80170  0.70690  0.22830  Biso   1.000  H
  H115     1.0000 0.91520  0.89650  0.24610  Biso   1.000  H
  O47      1.0000 0.94950  0.19080  0.08650  Biso   1.000  O
  C93      1.0000 0.05910  0.32830  0.20210  Biso   1.000  C
  H116     1.0000 0.09790  0.34300  0.17000  Biso   1.000  H
  C94      1.0000 0.05890  0.37020  0.25830  Biso   1.000  C
  H117     1.0000 0.09770  0.41430  0.26590  Biso   1.000  H
  O48      1.0000 0.95800  0.16010  0.13910  Biso   1.000  O
  C95      1.0000 0.94470  0.28560  0.28970  Biso   1.000  C
  H118     1.0000 0.90570  0.27080  0.32140  Biso   1.000  H
  C96      1.0000 0.94390  0.24300  0.23430  Biso   1.000  C
  H119     1.0000 0.90520  0.19830  0.22830  Biso   1.000  H
  H120     1.0000 0.98130  0.08480  0.24610  Biso   1.000  H
  Dy1      1.0000 0.05632  0.11264  0.10739  Biso   1.000  Dy
  O49      1.0000 0.04095  0.08190  0.22550  Biso   1.000  O
  H121     1.0000 0.16535  0.33070  0.96040  Biso   1.000  H
  Dy2      1.0000 0.88736  0.94368  0.10739  Biso   1.000  Dy
  O50      1.0000 0.91810  0.95905  0.22550  Biso   1.000  O
  H122     1.0000 0.66930  0.83465  0.96040  Biso   1.000  H
  Dy3      1.0000 0.05632  0.94368  0.10739  Biso   1.000  Dy
  O51      1.0000 0.04095  0.95905  0.22550  Biso   1.000  O
  H123     1.0000 0.16535  0.83465  0.96040  Biso   1.000  H
  Dy4      1.0000 0.94368  0.88736  0.10739  Biso   1.000  Dy
  O52      1.0000 0.95905  0.91810  0.22550  Biso   1.000  O
  H124     1.0000 0.83465  0.66930  0.96040  Biso   1.000  H
  Dy5      1.0000 0.11264  0.05632  0.10739  Biso   1.000  Dy
  O53      1.0000 0.08190  0.04095  0.22550  Biso   1.000  O
  H125     1.0000 0.33070  0.16535  0.96040  Biso   1.000  H
  Dy6      1.0000 0.94368  0.05632  0.10739  Biso   1.000  Dy
  O54      1.0000 0.95905  0.04095  0.22550  Biso   1.000  O
  H126     1.0000 0.83465  0.16535  0.96040  Biso   1.000  H
  Dy7      1.0000 0.11264  0.05632  0.89261  Biso   1.000  Dy
  O55      1.0000 0.08190  0.04095  0.77450  Biso   1.000  O
  H127     1.0000 0.33070  0.16535  0.03960  Biso   1.000  H
  Dy8      1.0000 0.94368  0.88736  0.89261  Biso   1.000  Dy
  O56      1.0000 0.95905  0.91810  0.77450  Biso   1.000  O
  H128     1.0000 0.83465  0.66930  0.03960  Biso   1.000  H
  Dy9      1.0000 0.94368  0.05632  0.89261  Biso   1.000  Dy
  O57      1.0000 0.95905  0.04095  0.77450  Biso   1.000  O
  H129     1.0000 0.83465  0.16535  0.03960  Biso   1.000  H
  Dy10     1.0000 0.88736  0.94368  0.89261  Biso   1.000  Dy
  O58      1.0000 0.91810  0.95905  0.77450  Biso   1.000  O
  H130     1.0000 0.66930  0.83465  0.03960  Biso   1.000  H
  Dy11     1.0000 0.05632  0.11264  0.89261  Biso   1.000  Dy
  O59      1.0000 0.04095  0.08190  0.77450  Biso   1.000  O
  H131     1.0000 0.16535  0.33070  0.03960  Biso   1.000  H
  Dy12     1.0000 0.05632  0.94368  0.89261  Biso   1.000  Dy
  O60      1.0000 0.04095  0.95905  0.77450  Biso   1.000  O
  H132     1.0000 0.16535  0.83465  0.03960  Biso   1.000  H
  Dy13     1.0000 0.10285  0.20570  0.00000  Biso   1.000  Dy
  Dy14     1.0000 0.79430  0.89715  0.00000  Biso   1.000  Dy
  Dy15     1.0000 0.10285  0.89715  0.00000  Biso   1.000  Dy
  Dy16     1.0000 0.89715  0.79430  0.00000  Biso   1.000  Dy
  Dy17     1.0000 0.20570  0.10285  0.00000  Biso   1.000  Dy
  Dy18     1.0000 0.89715  0.10285  0.00000  Biso   1.000  Dy
  N1       1.0000 0.00000  0.40710  0.50000  Biso   1.000  N
  N2       1.0000 0.59290  0.59290  0.50000  Biso   1.000  N
  N3       1.0000 0.40710  0.00000  0.50000  Biso   1.000  N
  N4       1.0000 0.00000  0.59290  0.50000  Biso   1.000  N
  N5       1.0000 0.40710  0.40710  0.50000  Biso   1.000  N
  N6       1.0000 0.59290  0.00000  0.50000  Biso   1.000  N
  N7       1.0000 0.00000  0.50000  0.38650  Biso   1.000  N
  H133     1.0000 0.00000  0.50000  0.43470  Biso   1.000  H
  N8       1.0000 0.50000  0.50000  0.38650  Biso   1.000  N
  H134     1.0000 0.50000  0.50000  0.43470  Biso   1.000  H
  N9       1.0000 0.50000  0.00000  0.38650  Biso   1.000  N
  H135     1.0000 0.50000  0.00000  0.43470  Biso   1.000  H
  N10      1.0000 0.50000  0.00000  0.61350  Biso   1.000  N
  H136     1.0000 0.50000  0.00000  0.56530  Biso   1.000  H
  N11      1.0000 0.50000  0.50000  0.61350  Biso   1.000  N
  H137     1.0000 0.50000  0.50000  0.56530  Biso   1.000  H
  N12      1.0000 0.00000  0.50000  0.61350  Biso   1.000  N
  H138     1.0000 0.00000  0.50000  0.56530  Biso   1.000  H
  O61      1.0000 0.00000  0.12150  0.00000  Biso   1.000  O
  O62      1.0000 0.87850  0.87850  0.00000  Biso   1.000  O
  O63      1.0000 0.12150  0.00000  0.00000  Biso   1.000  O
  O64      1.0000 0.00000  0.87850  0.00000  Biso   1.000  O
  O65      1.0000 0.12150  0.12150  0.00000  Biso   1.000  O
  O66      1.0000 0.87850  0.00000  0.00000  Biso   1.000  O
  O67      1.0000 0.00000  0.00000  0.07430  Biso   1.000  O
  H139     1.0000 0.00000  0.00000  0.02670  Biso   1.000  H
  O68      1.0000 0.00000  0.00000  0.92570  Biso   1.000  O
  H140     1.0000 0.00000  0.00000  0.97330  Biso   1.000  H
  O69      1.0000 0.14230  0.32150  0.00000  Biso   1.000  O
  O70      1.0000 0.67850  0.82080  0.00000  Biso   1.000  O
  O71      1.0000 0.17920  0.85770  0.00000  Biso   1.000  O
  O72      1.0000 0.85770  0.67850  0.00000  Biso   1.000  O
  O73      1.0000 0.32150  0.17920  0.00000  Biso   1.000  O
  O74      1.0000 0.82080  0.14230  0.00000  Biso   1.000  O
  O75      1.0000 0.32150  0.14230  0.00000  Biso   1.000  O
  O76      1.0000 0.82080  0.67850  0.00000  Biso   1.000  O
  O77      1.0000 0.85770  0.17920  0.00000  Biso   1.000  O
  O78      1.0000 0.67850  0.85770  0.00000  Biso   1.000  O
  O79      1.0000 0.17920  0.32150  0.00000  Biso   1.000  O
  O80      1.0000 0.14230  0.82080  0.00000  Biso   1.000  O
  C97      1.0000 0.00000  0.21850  0.12840  Biso   1.000  C
  C98      1.0000 0.00000  0.26530  0.19180  Biso   1.000  C
  C99      1.0000 0.00000  0.34740  0.30330  Biso   1.000  C
  C100     1.0000 0.00000  0.39330  0.36460  Biso   1.000  C
  C101     1.0000 0.00000  0.37250  0.43980  Biso   1.000  C
  C102     1.0000 0.00000  0.31350  0.46460  Biso   1.000  C
  H141     1.0000 0.00000  0.28030  0.43410  Biso   1.000  H
  C103     1.0000 0.00000  0.45200  0.34210  Biso   1.000  C
  C104     1.0000 0.00000  0.47210  0.26640  Biso   1.000  C
  H142     1.0000 0.00000  0.44820  0.22400  Biso   1.000  H
  C105     1.0000 0.78150  0.78150  0.12840  Biso   1.000  C
  C106     1.0000 0.73470  0.73470  0.19180  Biso   1.000  C
  C107     1.0000 0.65260  0.65260  0.30330  Biso   1.000  C
  C108     1.0000 0.60670  0.60670  0.36460  Biso   1.000  C
  C109     1.0000 0.62750  0.62750  0.43980  Biso   1.000  C
  C110     1.0000 0.68650  0.68650  0.46460  Biso   1.000  C
  H143     1.0000 0.71970  0.71970  0.43410  Biso   1.000  H
  C111     1.0000 0.54800  0.54800  0.34210  Biso   1.000  C
  C112     1.0000 0.52790  0.52790  0.26640  Biso   1.000  C
  H144     1.0000 0.55180  0.55180  0.22400  Biso   1.000  H
  C113     1.0000 0.21850  0.00000  0.12840  Biso   1.000  C
  C114     1.0000 0.26530  0.00000  0.19180  Biso   1.000  C
  C115     1.0000 0.34740  0.00000  0.30330  Biso   1.000  C
  C116     1.0000 0.39330  0.00000  0.36460  Biso   1.000  C
  C117     1.0000 0.37250  0.00000  0.43980  Biso   1.000  C
  C118     1.0000 0.31350  0.00000  0.46460  Biso   1.000  C
  H145     1.0000 0.28030  0.00000  0.43410  Biso   1.000  H
  C119     1.0000 0.45200  0.00000  0.34210  Biso   1.000  C
  C120     1.0000 0.47210  0.00000  0.26640  Biso   1.000  C
  H146     1.0000 0.44820  0.00000  0.22400  Biso   1.000  H
  C121     1.0000 0.00000  0.78150  0.12840  Biso   1.000  C
  C122     1.0000 0.00000  0.73470  0.19180  Biso   1.000  C
  C123     1.0000 0.00000  0.65260  0.30330  Biso   1.000  C
  C124     1.0000 0.00000  0.60670  0.36460  Biso   1.000  C
  C125     1.0000 0.00000  0.62750  0.43980  Biso   1.000  C
  C126     1.0000 0.00000  0.68650  0.46460  Biso   1.000  C
  H147     1.0000 0.00000  0.71970  0.43410  Biso   1.000  H
  C127     1.0000 0.00000  0.54800  0.34210  Biso   1.000  C
  C128     1.0000 0.00000  0.52790  0.26640  Biso   1.000  C
  H148     1.0000 0.00000  0.55180  0.22400  Biso   1.000  H
  C129     1.0000 0.21850  0.21850  0.12840  Biso   1.000  C
  C130     1.0000 0.26530  0.26530  0.19180  Biso   1.000  C
  C131     1.0000 0.34740  0.34740  0.30330  Biso   1.000  C
  C132     1.0000 0.39330  0.39330  0.36460  Biso   1.000  C
  C133     1.0000 0.37250  0.37250  0.43980  Biso   1.000  C
  C134     1.0000 0.31350  0.31350  0.46460  Biso   1.000  C
  H149     1.0000 0.28030  0.28030  0.43410  Biso   1.000  H
  C135     1.0000 0.45200  0.45200  0.34210  Biso   1.000  C
  C136     1.0000 0.47210  0.47210  0.26640  Biso   1.000  C
  H150     1.0000 0.44820  0.44820  0.22400  Biso   1.000  H
  C137     1.0000 0.78150  0.00000  0.12840  Biso   1.000  C
  C138     1.0000 0.73470  0.00000  0.19180  Biso   1.000  C
  C139     1.0000 0.65260  0.00000  0.30330  Biso   1.000  C
  C140     1.0000 0.60670  0.00000  0.36460  Biso   1.000  C
  C141     1.0000 0.62750  0.00000  0.43980  Biso   1.000  C
  C142     1.0000 0.68650  0.00000  0.46460  Biso   1.000  C
  H151     1.0000 0.71970  0.00000  0.43410  Biso   1.000  H
  C143     1.0000 0.54800  0.00000  0.34210  Biso   1.000  C
  C144     1.0000 0.52790  0.00000  0.26640  Biso   1.000  C
  H152     1.0000 0.55180  0.00000  0.22400  Biso   1.000  H
  C145     1.0000 0.21850  0.00000  0.87160  Biso   1.000  C
  C146     1.0000 0.26530  0.00000  0.80820  Biso   1.000  C
  C147     1.0000 0.34740  0.00000  0.69670  Biso   1.000  C
  C148     1.0000 0.39330  0.00000  0.63540  Biso   1.000  C
  C149     1.0000 0.37250  0.00000  0.56020  Biso   1.000  C
  C150     1.0000 0.31350  0.00000  0.53540  Biso   1.000  C
  H153     1.0000 0.28030  0.00000  0.56590  Biso   1.000  H
  C151     1.0000 0.45200  0.00000  0.65790  Biso   1.000  C
  C152     1.0000 0.47210  0.00000  0.73360  Biso   1.000  C
  H154     1.0000 0.44820  0.00000  0.77600  Biso   1.000  H
  C153     1.0000 0.78150  0.78150  0.87160  Biso   1.000  C
  C154     1.0000 0.73470  0.73470  0.80820  Biso   1.000  C
  C155     1.0000 0.65260  0.65260  0.69670  Biso   1.000  C
  C156     1.0000 0.60670  0.60670  0.63540  Biso   1.000  C
  C157     1.0000 0.62750  0.62750  0.56020  Biso   1.000  C
  C158     1.0000 0.68650  0.68650  0.53540  Biso   1.000  C
  H155     1.0000 0.71970  0.71970  0.56590  Biso   1.000  H
  C159     1.0000 0.54800  0.54800  0.65790  Biso   1.000  C
  C160     1.0000 0.52790  0.52790  0.73360  Biso   1.000  C
  H156     1.0000 0.55180  0.55180  0.77600  Biso   1.000  H
  C161     1.0000 0.00000  0.21850  0.87160  Biso   1.000  C
  C162     1.0000 0.00000  0.26530  0.80820  Biso   1.000  C
  C163     1.0000 0.00000  0.34740  0.69670  Biso   1.000  C
  C164     1.0000 0.00000  0.39330  0.63540  Biso   1.000  C
  C165     1.0000 0.00000  0.37250  0.56020  Biso   1.000  C
  C166     1.0000 0.00000  0.31350  0.53540  Biso   1.000  C
  H157     1.0000 0.00000  0.28030  0.56590  Biso   1.000  H
  C167     1.0000 0.00000  0.45200  0.65790  Biso   1.000  C
  C168     1.0000 0.00000  0.47210  0.73360  Biso   1.000  C
  H158     1.0000 0.00000  0.44820  0.77600  Biso   1.000  H
  C169     1.0000 0.78150  0.00000  0.87160  Biso   1.000  C
  C170     1.0000 0.73470  0.00000  0.80820  Biso   1.000  C
  C171     1.0000 0.65260  0.00000  0.69670  Biso   1.000  C
  C172     1.0000 0.60670  0.00000  0.63540  Biso   1.000  C
  C173     1.0000 0.62750  0.00000  0.56020  Biso   1.000  C
  C174     1.0000 0.68650  0.00000  0.53540  Biso   1.000  C
  H159     1.0000 0.71970  0.00000  0.56590  Biso   1.000  H
  C175     1.0000 0.54800  0.00000  0.65790  Biso   1.000  C
  C176     1.0000 0.52790  0.00000  0.73360  Biso   1.000  C
  H160     1.0000 0.55180  0.00000  0.77600  Biso   1.000  H
  C177     1.0000 0.21850  0.21850  0.87160  Biso   1.000  C
  C178     1.0000 0.26530  0.26530  0.80820  Biso   1.000  C
  C179     1.0000 0.34740  0.34740  0.69670  Biso   1.000  C
  C180     1.0000 0.39330  0.39330  0.63540  Biso   1.000  C
  C181     1.0000 0.37250  0.37250  0.56020  Biso   1.000  C
  C182     1.0000 0.31350  0.31350  0.53540  Biso   1.000  C
  H161     1.0000 0.28030  0.28030  0.56590  Biso   1.000  H
  C183     1.0000 0.45200  0.45200  0.65790  Biso   1.000  C
  C184     1.0000 0.47210  0.47210  0.73360  Biso   1.000  C
  H162     1.0000 0.44820  0.44820  0.77600  Biso   1.000  H
  C185     1.0000 0.00000  0.78150  0.87160  Biso   1.000  C
  C186     1.0000 0.00000  0.73470  0.80820  Biso   1.000  C
  C187     1.0000 0.00000  0.65260  0.69670  Biso   1.000  C
  C188     1.0000 0.00000  0.60670  0.63540  Biso   1.000  C
  C189     1.0000 0.00000  0.62750  0.56020  Biso   1.000  C
  C190     1.0000 0.00000  0.68650  0.53540  Biso   1.000  C
  H163     1.0000 0.00000  0.71970  0.56590  Biso   1.000  H
  C191     1.0000 0.00000  0.54800  0.65790  Biso   1.000  C
  C192     1.0000 0.00000  0.52790  0.73360  Biso   1.000  C
  H164     1.0000 0.00000  0.55180  0.77600  Biso   1.000  H
