data_image0
_cell_length_a       19.0899
_cell_length_b       11.1224
_cell_length_c       6.1748
_cell_angle_alpha    90
_cell_angle_beta     94.074
_cell_angle_gamma    90

_symmetry_space_group_name_H-M    "P 1"
_symmetry_int_tables_number       1

loop_
  _symmetry_equiv_pos_as_xyz
  'x, y, z'

loop_
  _atom_site_label
  _atom_site_occupancy
  _atom_site_fract_x
  _atom_site_fract_y
  _atom_site_fract_z
  _atom_site_thermal_displace_type
  _atom_site_B_iso_or_equiv
  _atom_site_type_symbol
  Cu1      1.0000 0.34337  0.14552  0.36457  Biso   1.000  Cu
  Cu2      1.0000 0.99688  0.85561  0.21138  Biso   1.000  Cu
  Cl1      1.0000 0.34939  0.34214  0.48934  Biso   1.000  Cl
  Cl2      1.0000 0.98773  0.84009  0.84092  Biso   1.000  Cl
  S1       1.0000 0.18002  0.99055  0.20507  Biso   1.000  S
  S2       1.0000 0.25495  0.90265  0.66125  Biso   1.000  S
  S3       1.0000 0.18167  0.16574  0.62447  Biso   1.000  S
  P1       1.0000 0.24895  0.05559  0.45936  Biso   1.000  P
  P2       1.0000 0.09749  0.92861  0.37932  Biso   1.000  P
  P3       1.0000 0.14904  0.86315  0.69660  Biso   1.000  P
  P4       1.0000 0.09917  0.04763  0.66685  Biso   1.000  P
  N1       1.0000 0.43705  0.06110  0.44780  Biso   1.000  N
  C1       1.0000 0.46120  0.97530  0.31960  Biso   1.000  C
  C2       1.0000 0.47670  0.08520  0.62810  Biso   1.000  C
  H1       1.0000 0.43470  0.95550  0.18840  Biso   1.000  H
  H2       1.0000 0.46190  0.14570  0.72360  Biso   1.000  H
  C3       1.0000 0.48760  0.05340  0.31000  Biso   1.000  C
  C4       1.0000 0.45030  0.00800  0.63900  Biso   1.000  C
  H3       1.0000 0.48080  0.09140  0.17280  Biso   1.000  H
  H4       1.0000 0.41630  0.01230  0.74390  Biso   1.000  H
  Cu3      1.0000 0.65663  0.64552  0.13543  Biso   1.000  Cu
  Cu4      1.0000 0.00312  0.35561  0.28862  Biso   1.000  Cu
  Cl3      1.0000 0.65061  0.84214  0.01066  Biso   1.000  Cl
  Cl4      1.0000 0.01227  0.34009  0.65908  Biso   1.000  Cl
  S4       1.0000 0.81998  0.49055  0.29493  Biso   1.000  S
  S5       1.0000 0.74505  0.40265  0.83875  Biso   1.000  S
  S6       1.0000 0.81833  0.66574  0.87553  Biso   1.000  S
  P5       1.0000 0.75105  0.55559  0.04064  Biso   1.000  P
  P6       1.0000 0.90251  0.42861  0.12068  Biso   1.000  P
  P7       1.0000 0.85096  0.36315  0.80340  Biso   1.000  P
  P8       1.0000 0.90083  0.54763  0.83315  Biso   1.000  P
  N2       1.0000 0.56295  0.56110  0.05220  Biso   1.000  N
  C5       1.0000 0.53880  0.47530  0.18040  Biso   1.000  C
  C6       1.0000 0.52330  0.58520  0.87190  Biso   1.000  C
  H5       1.0000 0.56530  0.45550  0.31160  Biso   1.000  H
  H6       1.0000 0.53810  0.64570  0.77640  Biso   1.000  H
  C7       1.0000 0.51240  0.55340  0.19000  Biso   1.000  C
  C8       1.0000 0.54970  0.50800  0.86100  Biso   1.000  C
  H7       1.0000 0.51920  0.59140  0.32720  Biso   1.000  H
  H8       1.0000 0.58370  0.51230  0.75610  Biso   1.000  H
  Cu5      1.0000 0.65663  0.85448  0.63543  Biso   1.000  Cu
  Cu6      1.0000 0.00312  0.14439  0.78862  Biso   1.000  Cu
  Cl5      1.0000 0.65061  0.65786  0.51066  Biso   1.000  Cl
  Cl6      1.0000 0.01227  0.15991  0.15908  Biso   1.000  Cl
  S7       1.0000 0.81998  0.00945  0.79493  Biso   1.000  S
  S8       1.0000 0.74505  0.09735  0.33875  Biso   1.000  S
  S9       1.0000 0.81833  0.83426  0.37553  Biso   1.000  S
  P9       1.0000 0.75105  0.94441  0.54064  Biso   1.000  P
  P10      1.0000 0.90251  0.07139  0.62068  Biso   1.000  P
  P11      1.0000 0.85096  0.13685  0.30340  Biso   1.000  P
  P12      1.0000 0.90083  0.95237  0.33315  Biso   1.000  P
  N3       1.0000 0.56295  0.93890  0.55220  Biso   1.000  N
  C9       1.0000 0.53880  0.02470  0.68040  Biso   1.000  C
  C10      1.0000 0.52330  0.91480  0.37190  Biso   1.000  C
  H9       1.0000 0.56530  0.04450  0.81160  Biso   1.000  H
  H10      1.0000 0.53810  0.85430  0.27640  Biso   1.000  H
  C11      1.0000 0.51240  0.94660  0.69000  Biso   1.000  C
  C12      1.0000 0.54970  0.99200  0.36100  Biso   1.000  C
  H11      1.0000 0.51920  0.90860  0.82720  Biso   1.000  H
  H12      1.0000 0.58370  0.98770  0.25610  Biso   1.000  H
  Cu7      1.0000 0.34337  0.35448  0.86457  Biso   1.000  Cu
  Cu8      1.0000 0.99688  0.64439  0.71138  Biso   1.000  Cu
  Cl7      1.0000 0.34939  0.15786  0.98934  Biso   1.000  Cl
  Cl8      1.0000 0.98773  0.65991  0.34092  Biso   1.000  Cl
  S10      1.0000 0.18002  0.50945  0.70507  Biso   1.000  S
  S11      1.0000 0.25495  0.59735  0.16125  Biso   1.000  S
  S12      1.0000 0.18167  0.33426  0.12447  Biso   1.000  S
  P13      1.0000 0.24895  0.44441  0.95936  Biso   1.000  P
  P14      1.0000 0.09749  0.57139  0.87932  Biso   1.000  P
  P15      1.0000 0.14904  0.63685  0.19660  Biso   1.000  P
  P16      1.0000 0.09917  0.45237  0.16685  Biso   1.000  P
  N4       1.0000 0.43705  0.43890  0.94780  Biso   1.000  N
  C13      1.0000 0.46120  0.52470  0.81960  Biso   1.000  C
  C14      1.0000 0.47670  0.41480  0.12810  Biso   1.000  C
  H13      1.0000 0.43470  0.54450  0.68840  Biso   1.000  H
  H14      1.0000 0.46190  0.35430  0.22360  Biso   1.000  H
  C15      1.0000 0.48760  0.44660  0.81000  Biso   1.000  C
  C16      1.0000 0.45030  0.49200  0.13900  Biso   1.000  C
  H15      1.0000 0.48080  0.40860  0.67280  Biso   1.000  H
  H16      1.0000 0.41630  0.48770  0.24390  Biso   1.000  H
