data_image0
_cell_length_a       10.5778
_cell_length_b       19.6493
_cell_length_c       19.1872
_cell_angle_alpha    90
_cell_angle_beta     90
_cell_angle_gamma    90

_symmetry_space_group_name_H-M    "P 1"
_symmetry_int_tables_number       1

loop_
  _symmetry_equiv_pos_as_xyz
  'x, y, z'

loop_
  _atom_site_label
  _atom_site_occupancy
  _atom_site_fract_x
  _atom_site_fract_y
  _atom_site_fract_z
  _atom_site_thermal_displace_type
  _atom_site_B_iso_or_equiv
  _atom_site_type_symbol
  Zn1      1.0000 0.61168  0.96894  0.53736  Biso   1.000  Zn
  C1       1.0000 0.60210  0.97571  0.11868  Biso   1.000  C
  O1       1.0000 0.35380  0.92831  0.47670  Biso   1.000  O
  O2       1.0000 0.66070  0.95837  0.06462  Biso   1.000  O
  O3       1.0000 0.51910  0.87920  0.52904  Biso   1.000  O
  O4       1.0000 0.49660  0.00477  0.12068  Biso   1.000  O
  C2       1.0000 0.21060  0.81087  0.49930  Biso   1.000  C
  H1       1.0000 0.16550  0.85270  0.49810  Biso   1.000  H
  C3       1.0000 0.66370  0.95813  0.18710  Biso   1.000  C
  C4       1.0000 0.34200  0.81114  0.50047  Biso   1.000  C
  C5       1.0000 0.41030  0.87842  0.50210  Biso   1.000  C
  C6       1.0000 0.77980  0.92451  0.31267  Biso   1.000  C
  H2       1.0000 0.81970  0.91290  0.14460  Biso   1.000  H
  N1       1.0000 0.20500  0.04510  0.07020  Biso   1.000  N
  C7       1.0000 0.11480  0.01830  0.02920  Biso   1.000  C
  H3       1.0000 0.14050  0.99460  0.98850  Biso   1.000  H
  C8       1.0000 0.98580  0.02330  0.04300  Biso   1.000  C
  H4       1.0000 0.92480  0.00370  0.01270  Biso   1.000  H
  C9       1.0000 0.94970  0.05830  0.10330  Biso   1.000  C
  H5       1.0000 0.86290  0.06270  0.11510  Biso   1.000  H
  C10      1.0000 0.16790  0.07880  0.12740  Biso   1.000  C
  C11      1.0000 0.26930  0.10610  0.17510  Biso   1.000  C
  H6       1.0000 0.30750  0.06840  0.20110  Biso   1.000  H
  H7       1.0000 0.23190  0.13860  0.20780  Biso   1.000  H
  H8       1.0000 0.33450  0.12890  0.14740  Biso   1.000  H
  C12      1.0000 0.04030  0.08600  0.14490  Biso   1.000  C
  H9       1.0000 0.01680  0.11020  0.18580  Biso   1.000  H
  C13      1.0000 0.00800  0.05500  0.33210  Biso   1.000  C
  H10      1.0000 0.93090  0.05550  0.30670  Biso   1.000  H
  C14      1.0000 0.20660  0.00520  0.35860  Biso   1.000  C
  H11      1.0000 0.26790  0.97070  0.35090  Biso   1.000  H
  C15      1.0000 0.09690  0.00460  0.31990  Biso   1.000  C
  H12      1.0000 0.08260  0.97060  0.28560  Biso   1.000  H
  N2       1.0000 0.22960  0.05300  0.40680  Biso   1.000  N
  C16      1.0000 0.03200  0.10420  0.38140  Biso   1.000  C
  H13      1.0000 0.97210  0.13940  0.38940  Biso   1.000  H
  C17      1.0000 0.14580  0.10240  0.41980  Biso   1.000  C
  C18      1.0000 0.17630  0.15530  0.47240  Biso   1.000  C
  H14      1.0000 0.26200  0.14780  0.49020  Biso   1.000  H
  H15      1.0000 0.17130  0.20040  0.45080  Biso   1.000  H
  H16      1.0000 0.11570  0.15260  0.51100  Biso   1.000  H
  Zn2      1.0000 0.38832  0.03106  0.03736  Biso   1.000  Zn
  C19      1.0000 0.39790  0.02429  0.61868  Biso   1.000  C
  O5       1.0000 0.64620  0.07169  0.97670  Biso   1.000  O
  O6       1.0000 0.33930  0.04163  0.56462  Biso   1.000  O
  O7       1.0000 0.48090  0.12080  0.02904  Biso   1.000  O
  O8       1.0000 0.50340  0.99523  0.62068  Biso   1.000  O
  C20      1.0000 0.78940  0.18913  0.99930  Biso   1.000  C
  H17      1.0000 0.83450  0.14730  0.99810  Biso   1.000  H
  C21      1.0000 0.33630  0.04187  0.68710  Biso   1.000  C
  C22      1.0000 0.65800  0.18886  0.00047  Biso   1.000  C
  C23      1.0000 0.58970  0.12158  0.00210  Biso   1.000  C
  C24      1.0000 0.22020  0.07549  0.81267  Biso   1.000  C
  H18      1.0000 0.18030  0.08710  0.64460  Biso   1.000  H
  N3       1.0000 0.79500  0.95490  0.57020  Biso   1.000  N
  C25      1.0000 0.88520  0.98170  0.52920  Biso   1.000  C
  H19      1.0000 0.85950  0.00540  0.48850  Biso   1.000  H
  C26      1.0000 0.01420  0.97670  0.54300  Biso   1.000  C
  H20      1.0000 0.07520  0.99630  0.51270  Biso   1.000  H
  C27      1.0000 0.05030  0.94170  0.60330  Biso   1.000  C
  H21      1.0000 0.13710  0.93730  0.61510  Biso   1.000  H
  C28      1.0000 0.83210  0.92120  0.62740  Biso   1.000  C
  C29      1.0000 0.73070  0.89390  0.67510  Biso   1.000  C
  H22      1.0000 0.69250  0.93160  0.70110  Biso   1.000  H
  H23      1.0000 0.76810  0.86140  0.70780  Biso   1.000  H
  H24      1.0000 0.66550  0.87110  0.64740  Biso   1.000  H
  C30      1.0000 0.95970  0.91400  0.64490  Biso   1.000  C
  H25      1.0000 0.98320  0.88980  0.68580  Biso   1.000  H
  C31      1.0000 0.99200  0.94500  0.83210  Biso   1.000  C
  H26      1.0000 0.06910  0.94450  0.80670  Biso   1.000  H
  C32      1.0000 0.79340  0.99480  0.85860  Biso   1.000  C
  H27      1.0000 0.73210  0.02930  0.85090  Biso   1.000  H
  C33      1.0000 0.90310  0.99540  0.81990  Biso   1.000  C
  H28      1.0000 0.91740  0.02940  0.78560  Biso   1.000  H
  N4       1.0000 0.77040  0.94700  0.90680  Biso   1.000  N
  C34      1.0000 0.96800  0.89580  0.88140  Biso   1.000  C
  H29      1.0000 0.02790  0.86060  0.88940  Biso   1.000  H
  C35      1.0000 0.85420  0.89760  0.91980  Biso   1.000  C
  C36      1.0000 0.82370  0.84470  0.97240  Biso   1.000  C
  H30      1.0000 0.73800  0.85220  0.99020  Biso   1.000  H
  H31      1.0000 0.82870  0.79960  0.95080  Biso   1.000  H
  H32      1.0000 0.88430  0.84740  0.01100  Biso   1.000  H
  Zn3      1.0000 0.38832  0.46894  0.96264  Biso   1.000  Zn
  C37      1.0000 0.39790  0.47571  0.38132  Biso   1.000  C
  O9       1.0000 0.64620  0.42831  0.02330  Biso   1.000  O
  O10      1.0000 0.33930  0.45837  0.43538  Biso   1.000  O
  O11      1.0000 0.48090  0.37920  0.97096  Biso   1.000  O
  O12      1.0000 0.50340  0.50477  0.37932  Biso   1.000  O
  C38      1.0000 0.78940  0.31087  0.00070  Biso   1.000  C
  H33      1.0000 0.83450  0.35270  0.00190  Biso   1.000  H
  C39      1.0000 0.33630  0.45813  0.31290  Biso   1.000  C
  C40      1.0000 0.65800  0.31114  0.99953  Biso   1.000  C
  C41      1.0000 0.58970  0.37842  0.99790  Biso   1.000  C
  C42      1.0000 0.22020  0.42451  0.18733  Biso   1.000  C
  H34      1.0000 0.18030  0.41290  0.35540  Biso   1.000  H
  N5       1.0000 0.79500  0.54510  0.42980  Biso   1.000  N
  C43      1.0000 0.88520  0.51830  0.47080  Biso   1.000  C
  H35      1.0000 0.85950  0.49460  0.51150  Biso   1.000  H
  C44      1.0000 0.01420  0.52330  0.45700  Biso   1.000  C
  H36      1.0000 0.07520  0.50370  0.48730  Biso   1.000  H
  C45      1.0000 0.05030  0.55830  0.39670  Biso   1.000  C
  H37      1.0000 0.13710  0.56270  0.38490  Biso   1.000  H
  C46      1.0000 0.83210  0.57880  0.37260  Biso   1.000  C
  C47      1.0000 0.73070  0.60610  0.32490  Biso   1.000  C
  H38      1.0000 0.69250  0.56840  0.29890  Biso   1.000  H
  H39      1.0000 0.76810  0.63860  0.29220  Biso   1.000  H
  H40      1.0000 0.66550  0.62890  0.35260  Biso   1.000  H
  C48      1.0000 0.95970  0.58600  0.35510  Biso   1.000  C
  H41      1.0000 0.98320  0.61020  0.31420  Biso   1.000  H
  C49      1.0000 0.99200  0.55500  0.16790  Biso   1.000  C
  H42      1.0000 0.06910  0.55550  0.19330  Biso   1.000  H
  C50      1.0000 0.79340  0.50520  0.14140  Biso   1.000  C
  H43      1.0000 0.73210  0.47070  0.14910  Biso   1.000  H
  C51      1.0000 0.90310  0.50460  0.18010  Biso   1.000  C
  H44      1.0000 0.91740  0.47060  0.21440  Biso   1.000  H
  N6       1.0000 0.77040  0.55300  0.09320  Biso   1.000  N
  C52      1.0000 0.96800  0.60420  0.11860  Biso   1.000  C
  H45      1.0000 0.02790  0.63940  0.11060  Biso   1.000  H
  C53      1.0000 0.85420  0.60240  0.08020  Biso   1.000  C
  C54      1.0000 0.82370  0.65530  0.02760  Biso   1.000  C
  H46      1.0000 0.73800  0.64780  0.00980  Biso   1.000  H
  H47      1.0000 0.82870  0.70040  0.04920  Biso   1.000  H
  H48      1.0000 0.88430  0.65260  0.98900  Biso   1.000  H
  Zn4      1.0000 0.61168  0.53106  0.46264  Biso   1.000  Zn
  C55      1.0000 0.60210  0.52429  0.88132  Biso   1.000  C
  O13      1.0000 0.35380  0.57169  0.52330  Biso   1.000  O
  O14      1.0000 0.66070  0.54163  0.93538  Biso   1.000  O
  O15      1.0000 0.51910  0.62080  0.47096  Biso   1.000  O
  O16      1.0000 0.49660  0.49523  0.87932  Biso   1.000  O
  C56      1.0000 0.21060  0.68913  0.50070  Biso   1.000  C
  H49      1.0000 0.16550  0.64730  0.50190  Biso   1.000  H
  C57      1.0000 0.66370  0.54187  0.81290  Biso   1.000  C
  C58      1.0000 0.34200  0.68886  0.49953  Biso   1.000  C
  C59      1.0000 0.41030  0.62158  0.49790  Biso   1.000  C
  C60      1.0000 0.77980  0.57549  0.68733  Biso   1.000  C
  H50      1.0000 0.81970  0.58710  0.85540  Biso   1.000  H
  N7       1.0000 0.20500  0.45490  0.92980  Biso   1.000  N
  C61      1.0000 0.11480  0.48170  0.97080  Biso   1.000  C
  H51      1.0000 0.14050  0.50540  0.01150  Biso   1.000  H
  C62      1.0000 0.98580  0.47670  0.95700  Biso   1.000  C
  H52      1.0000 0.92480  0.49630  0.98730  Biso   1.000  H
  C63      1.0000 0.94970  0.44170  0.89670  Biso   1.000  C
  H53      1.0000 0.86290  0.43730  0.88490  Biso   1.000  H
  C64      1.0000 0.16790  0.42120  0.87260  Biso   1.000  C
  C65      1.0000 0.26930  0.39390  0.82490  Biso   1.000  C
  H54      1.0000 0.30750  0.43160  0.79890  Biso   1.000  H
  H55      1.0000 0.23190  0.36140  0.79220  Biso   1.000  H
  H56      1.0000 0.33450  0.37110  0.85260  Biso   1.000  H
  C66      1.0000 0.04030  0.41400  0.85510  Biso   1.000  C
  H57      1.0000 0.01680  0.38980  0.81420  Biso   1.000  H
  C67      1.0000 0.00800  0.44500  0.66790  Biso   1.000  C
  H58      1.0000 0.93090  0.44450  0.69330  Biso   1.000  H
  C68      1.0000 0.20660  0.49480  0.64140  Biso   1.000  C
  H59      1.0000 0.26790  0.52930  0.64910  Biso   1.000  H
  C69      1.0000 0.09690  0.49540  0.68010  Biso   1.000  C
  H60      1.0000 0.08260  0.52940  0.71440  Biso   1.000  H
  N8       1.0000 0.22960  0.44700  0.59320  Biso   1.000  N
  C70      1.0000 0.03200  0.39580  0.61860  Biso   1.000  C
  H61      1.0000 0.97210  0.36060  0.61060  Biso   1.000  H
  C71      1.0000 0.14580  0.39760  0.58020  Biso   1.000  C
  C72      1.0000 0.17630  0.34470  0.52760  Biso   1.000  C
  H62      1.0000 0.26200  0.35220  0.50980  Biso   1.000  H
  H63      1.0000 0.17130  0.29960  0.54920  Biso   1.000  H
  H64      1.0000 0.11570  0.34740  0.48900  Biso   1.000  H
  Zn5      1.0000 0.38832  0.03106  0.46264  Biso   1.000  Zn
  C73      1.0000 0.39790  0.02429  0.88132  Biso   1.000  C
  O17      1.0000 0.64620  0.07169  0.52330  Biso   1.000  O
  O18      1.0000 0.33930  0.04163  0.93538  Biso   1.000  O
  O19      1.0000 0.48090  0.12080  0.47096  Biso   1.000  O
  O20      1.0000 0.50340  0.99523  0.87932  Biso   1.000  O
  C74      1.0000 0.78940  0.18913  0.50070  Biso   1.000  C
  H65      1.0000 0.83450  0.14730  0.50190  Biso   1.000  H
  C75      1.0000 0.33630  0.04187  0.81290  Biso   1.000  C
  C76      1.0000 0.65800  0.18886  0.49953  Biso   1.000  C
  C77      1.0000 0.58970  0.12158  0.49790  Biso   1.000  C
  C78      1.0000 0.22020  0.07549  0.68733  Biso   1.000  C
  H66      1.0000 0.18030  0.08710  0.85540  Biso   1.000  H
  N9       1.0000 0.79500  0.95490  0.92980  Biso   1.000  N
  C79      1.0000 0.88520  0.98170  0.97080  Biso   1.000  C
  H67      1.0000 0.85950  0.00540  0.01150  Biso   1.000  H
  C80      1.0000 0.01420  0.97670  0.95700  Biso   1.000  C
  H68      1.0000 0.07520  0.99630  0.98730  Biso   1.000  H
  C81      1.0000 0.05030  0.94170  0.89670  Biso   1.000  C
  H69      1.0000 0.13710  0.93730  0.88490  Biso   1.000  H
  C82      1.0000 0.83210  0.92120  0.87260  Biso   1.000  C
  C83      1.0000 0.73070  0.89390  0.82490  Biso   1.000  C
  H70      1.0000 0.69250  0.93160  0.79890  Biso   1.000  H
  H71      1.0000 0.76810  0.86140  0.79220  Biso   1.000  H
  H72      1.0000 0.66550  0.87110  0.85260  Biso   1.000  H
  C84      1.0000 0.95970  0.91400  0.85510  Biso   1.000  C
  H73      1.0000 0.98320  0.88980  0.81420  Biso   1.000  H
  C85      1.0000 0.99200  0.94500  0.66790  Biso   1.000  C
  H74      1.0000 0.06910  0.94450  0.69330  Biso   1.000  H
  C86      1.0000 0.79340  0.99480  0.64140  Biso   1.000  C
  H75      1.0000 0.73210  0.02930  0.64910  Biso   1.000  H
  C87      1.0000 0.90310  0.99540  0.68010  Biso   1.000  C
  H76      1.0000 0.91740  0.02940  0.71440  Biso   1.000  H
  N10      1.0000 0.77040  0.94700  0.59320  Biso   1.000  N
  C88      1.0000 0.96800  0.89580  0.61860  Biso   1.000  C
  H77      1.0000 0.02790  0.86060  0.61060  Biso   1.000  H
  C89      1.0000 0.85420  0.89760  0.58020  Biso   1.000  C
  C90      1.0000 0.82370  0.84470  0.52760  Biso   1.000  C
  H78      1.0000 0.73800  0.85220  0.50980  Biso   1.000  H
  H79      1.0000 0.82870  0.79960  0.54920  Biso   1.000  H
  H80      1.0000 0.88430  0.84740  0.48900  Biso   1.000  H
  Zn6      1.0000 0.61168  0.96894  0.96264  Biso   1.000  Zn
  C91      1.0000 0.60210  0.97571  0.38132  Biso   1.000  C
  O21      1.0000 0.35380  0.92831  0.02330  Biso   1.000  O
  O22      1.0000 0.66070  0.95837  0.43538  Biso   1.000  O
  O23      1.0000 0.51910  0.87920  0.97096  Biso   1.000  O
  O24      1.0000 0.49660  0.00477  0.37932  Biso   1.000  O
  C92      1.0000 0.21060  0.81087  0.00070  Biso   1.000  C
  H81      1.0000 0.16550  0.85270  0.00190  Biso   1.000  H
  C93      1.0000 0.66370  0.95813  0.31290  Biso   1.000  C
  C94      1.0000 0.34200  0.81114  0.99953  Biso   1.000  C
  C95      1.0000 0.41030  0.87842  0.99790  Biso   1.000  C
  C96      1.0000 0.77980  0.92451  0.18733  Biso   1.000  C
  H82      1.0000 0.81970  0.91290  0.35540  Biso   1.000  H
  N11      1.0000 0.20500  0.04510  0.42980  Biso   1.000  N
  C97      1.0000 0.11480  0.01830  0.47080  Biso   1.000  C
  H83      1.0000 0.14050  0.99460  0.51150  Biso   1.000  H
  C98      1.0000 0.98580  0.02330  0.45700  Biso   1.000  C
  H84      1.0000 0.92480  0.00370  0.48730  Biso   1.000  H
  C99      1.0000 0.94970  0.05830  0.39670  Biso   1.000  C
  H85      1.0000 0.86290  0.06270  0.38490  Biso   1.000  H
  C100     1.0000 0.16790  0.07880  0.37260  Biso   1.000  C
  C101     1.0000 0.26930  0.10610  0.32490  Biso   1.000  C
  H86      1.0000 0.30750  0.06840  0.29890  Biso   1.000  H
  H87      1.0000 0.23190  0.13860  0.29220  Biso   1.000  H
  H88      1.0000 0.33450  0.12890  0.35260  Biso   1.000  H
  C102     1.0000 0.04030  0.08600  0.35510  Biso   1.000  C
  H89      1.0000 0.01680  0.11020  0.31420  Biso   1.000  H
  C103     1.0000 0.00800  0.05500  0.16790  Biso   1.000  C
  H90      1.0000 0.93090  0.05550  0.19330  Biso   1.000  H
  C104     1.0000 0.20660  0.00520  0.14140  Biso   1.000  C
  H91      1.0000 0.26790  0.97070  0.14910  Biso   1.000  H
  C105     1.0000 0.09690  0.00460  0.18010  Biso   1.000  C
  H92      1.0000 0.08260  0.97060  0.21440  Biso   1.000  H
  N12      1.0000 0.22960  0.05300  0.09320  Biso   1.000  N
  C106     1.0000 0.03200  0.10420  0.11860  Biso   1.000  C
  H93      1.0000 0.97210  0.13940  0.11060  Biso   1.000  H
  C107     1.0000 0.14580  0.10240  0.08020  Biso   1.000  C
  C108     1.0000 0.17630  0.15530  0.02760  Biso   1.000  C
  H94      1.0000 0.26200  0.14780  0.00980  Biso   1.000  H
  H95      1.0000 0.17130  0.20040  0.04920  Biso   1.000  H
  H96      1.0000 0.11570  0.15260  0.98900  Biso   1.000  H
  Zn7      1.0000 0.61168  0.53106  0.03736  Biso   1.000  Zn
  C109     1.0000 0.60210  0.52429  0.61868  Biso   1.000  C
  O25      1.0000 0.35380  0.57169  0.97670  Biso   1.000  O
  O26      1.0000 0.66070  0.54163  0.56462  Biso   1.000  O
  O27      1.0000 0.51910  0.62080  0.02904  Biso   1.000  O
  O28      1.0000 0.49660  0.49523  0.62068  Biso   1.000  O
  C110     1.0000 0.21060  0.68913  0.99930  Biso   1.000  C
  H97      1.0000 0.16550  0.64730  0.99810  Biso   1.000  H
  C111     1.0000 0.66370  0.54187  0.68710  Biso   1.000  C
  C112     1.0000 0.34200  0.68886  0.00047  Biso   1.000  C
  C113     1.0000 0.41030  0.62158  0.00210  Biso   1.000  C
  C114     1.0000 0.77980  0.57549  0.81267  Biso   1.000  C
  H98      1.0000 0.81970  0.58710  0.64460  Biso   1.000  H
  N13      1.0000 0.20500  0.45490  0.57020  Biso   1.000  N
  C115     1.0000 0.11480  0.48170  0.52920  Biso   1.000  C
  H99      1.0000 0.14050  0.50540  0.48850  Biso   1.000  H
  C116     1.0000 0.98580  0.47670  0.54300  Biso   1.000  C
  H100     1.0000 0.92480  0.49630  0.51270  Biso   1.000  H
  C117     1.0000 0.94970  0.44170  0.60330  Biso   1.000  C
  H101     1.0000 0.86290  0.43730  0.61510  Biso   1.000  H
  C118     1.0000 0.16790  0.42120  0.62740  Biso   1.000  C
  C119     1.0000 0.26930  0.39390  0.67510  Biso   1.000  C
  H102     1.0000 0.30750  0.43160  0.70110  Biso   1.000  H
  H103     1.0000 0.23190  0.36140  0.70780  Biso   1.000  H
  H104     1.0000 0.33450  0.37110  0.64740  Biso   1.000  H
  C120     1.0000 0.04030  0.41400  0.64490  Biso   1.000  C
  H105     1.0000 0.01680  0.38980  0.68580  Biso   1.000  H
  C121     1.0000 0.00800  0.44500  0.83210  Biso   1.000  C
  H106     1.0000 0.93090  0.44450  0.80670  Biso   1.000  H
  C122     1.0000 0.20660  0.49480  0.85860  Biso   1.000  C
  H107     1.0000 0.26790  0.52930  0.85090  Biso   1.000  H
  C123     1.0000 0.09690  0.49540  0.81990  Biso   1.000  C
  H108     1.0000 0.08260  0.52940  0.78560  Biso   1.000  H
  N14      1.0000 0.22960  0.44700  0.90680  Biso   1.000  N
  C124     1.0000 0.03200  0.39580  0.88140  Biso   1.000  C
  H109     1.0000 0.97210  0.36060  0.88940  Biso   1.000  H
  C125     1.0000 0.14580  0.39760  0.91980  Biso   1.000  C
  C126     1.0000 0.17630  0.34470  0.97240  Biso   1.000  C
  H110     1.0000 0.26200  0.35220  0.99020  Biso   1.000  H
  H111     1.0000 0.17130  0.29960  0.95080  Biso   1.000  H
  H112     1.0000 0.11570  0.34740  0.01100  Biso   1.000  H
  Zn8      1.0000 0.38832  0.46894  0.53736  Biso   1.000  Zn
  C127     1.0000 0.39790  0.47571  0.11868  Biso   1.000  C
  O29      1.0000 0.64620  0.42831  0.47670  Biso   1.000  O
  O30      1.0000 0.33930  0.45837  0.06462  Biso   1.000  O
  O31      1.0000 0.48090  0.37920  0.52904  Biso   1.000  O
  O32      1.0000 0.50340  0.50477  0.12068  Biso   1.000  O
  C128     1.0000 0.78940  0.31087  0.49930  Biso   1.000  C
  H113     1.0000 0.83450  0.35270  0.49810  Biso   1.000  H
  C129     1.0000 0.33630  0.45813  0.18710  Biso   1.000  C
  C130     1.0000 0.65800  0.31114  0.50047  Biso   1.000  C
  C131     1.0000 0.58970  0.37842  0.50210  Biso   1.000  C
  C132     1.0000 0.22020  0.42451  0.31267  Biso   1.000  C
  H114     1.0000 0.18030  0.41290  0.14460  Biso   1.000  H
  N15      1.0000 0.79500  0.54510  0.07020  Biso   1.000  N
  C133     1.0000 0.88520  0.51830  0.02920  Biso   1.000  C
  H115     1.0000 0.85950  0.49460  0.98850  Biso   1.000  H
  C134     1.0000 0.01420  0.52330  0.04300  Biso   1.000  C
  H116     1.0000 0.07520  0.50370  0.01270  Biso   1.000  H
  C135     1.0000 0.05030  0.55830  0.10330  Biso   1.000  C
  H117     1.0000 0.13710  0.56270  0.11510  Biso   1.000  H
  C136     1.0000 0.83210  0.57880  0.12740  Biso   1.000  C
  C137     1.0000 0.73070  0.60610  0.17510  Biso   1.000  C
  H118     1.0000 0.69250  0.56840  0.20110  Biso   1.000  H
  H119     1.0000 0.76810  0.63860  0.20780  Biso   1.000  H
  H120     1.0000 0.66550  0.62890  0.14740  Biso   1.000  H
  C138     1.0000 0.95970  0.58600  0.14490  Biso   1.000  C
  H121     1.0000 0.98320  0.61020  0.18580  Biso   1.000  H
  C139     1.0000 0.99200  0.55500  0.33210  Biso   1.000  C
  H122     1.0000 0.06910  0.55550  0.30670  Biso   1.000  H
  C140     1.0000 0.79340  0.50520  0.35860  Biso   1.000  C
  H123     1.0000 0.73210  0.47070  0.35090  Biso   1.000  H
  C141     1.0000 0.90310  0.50460  0.31990  Biso   1.000  C
  H124     1.0000 0.91740  0.47060  0.28560  Biso   1.000  H
  N16      1.0000 0.77040  0.55300  0.40680  Biso   1.000  N
  C142     1.0000 0.96800  0.60420  0.38140  Biso   1.000  C
  H125     1.0000 0.02790  0.63940  0.38940  Biso   1.000  H
  C143     1.0000 0.85420  0.60240  0.41980  Biso   1.000  C
  C144     1.0000 0.82370  0.65530  0.47240  Biso   1.000  C
  H126     1.0000 0.73800  0.64780  0.49020  Biso   1.000  H
  H127     1.0000 0.82870  0.70040  0.45080  Biso   1.000  H
  H128     1.0000 0.88430  0.65260  0.51100  Biso   1.000  H
  C145     1.0000 0.60680  0.97530  0.25000  Biso   1.000  C
  H129     1.0000 0.52840  0.99890  0.25000  Biso   1.000  H
  C146     1.0000 0.83650  0.90820  0.25000  Biso   1.000  C
  H130     1.0000 0.91580  0.88540  0.25000  Biso   1.000  H
  C147     1.0000 0.39320  0.02470  0.75000  Biso   1.000  C
  H131     1.0000 0.47160  0.00110  0.75000  Biso   1.000  H
  C148     1.0000 0.16350  0.09180  0.75000  Biso   1.000  C
  H132     1.0000 0.08420  0.11460  0.75000  Biso   1.000  H
  C149     1.0000 0.39320  0.47530  0.25000  Biso   1.000  C
  H133     1.0000 0.47160  0.49890  0.25000  Biso   1.000  H
  C150     1.0000 0.16350  0.40820  0.25000  Biso   1.000  C
  H134     1.0000 0.08420  0.38540  0.25000  Biso   1.000  H
  C151     1.0000 0.60680  0.52470  0.75000  Biso   1.000  C
  H135     1.0000 0.52840  0.50110  0.75000  Biso   1.000  H
  C152     1.0000 0.83650  0.59180  0.75000  Biso   1.000  C
  H136     1.0000 0.91580  0.61460  0.75000  Biso   1.000  H
  C153     1.0000 0.14530  0.75000  0.50000  Biso   1.000  C
  H137     1.0000 0.05550  0.75000  0.50000  Biso   1.000  H
  C154     1.0000 0.40740  0.75000  0.50000  Biso   1.000  C
  H138     1.0000 0.49730  0.75000  0.50000  Biso   1.000  H
  C155     1.0000 0.85470  0.25000  0.00000  Biso   1.000  C
  H139     1.0000 0.94450  0.25000  0.00000  Biso   1.000  H
  C156     1.0000 0.59260  0.25000  0.00000  Biso   1.000  C
  H140     1.0000 0.50270  0.25000  0.00000  Biso   1.000  H
  C157     1.0000 0.85470  0.25000  0.50000  Biso   1.000  C
  H141     1.0000 0.94450  0.25000  0.50000  Biso   1.000  H
  C158     1.0000 0.59260  0.25000  0.50000  Biso   1.000  C
  H142     1.0000 0.50270  0.25000  0.50000  Biso   1.000  H
  C159     1.0000 0.14530  0.75000  0.00000  Biso   1.000  C
  H143     1.0000 0.05550  0.75000  0.00000  Biso   1.000  H
  C160     1.0000 0.40740  0.75000  0.00000  Biso   1.000  C
  H144     1.0000 0.49730  0.75000  0.00000  Biso   1.000  H
