data_image0
_cell_length_a       13.4608
_cell_length_b       13.4707
_cell_length_c       13.5076
_cell_angle_alpha    90
_cell_angle_beta     90
_cell_angle_gamma    90

_symmetry_space_group_name_H-M    "P 1"
_symmetry_int_tables_number       1

loop_
  _symmetry_equiv_pos_as_xyz
  'x, y, z'

loop_
  _atom_site_label
  _atom_site_occupancy
  _atom_site_fract_x
  _atom_site_fract_y
  _atom_site_fract_z
  _atom_site_thermal_displace_type
  _atom_site_B_iso_or_equiv
  _atom_site_type_symbol
  C1       1.0000 0.06960  0.94870  0.98250  Biso   1.000  C
  H1       1.0000 0.12560  0.90850  0.96740  Biso   1.000  H
  C2       1.0000 0.00380  0.93440  0.06140  Biso   1.000  C
  H2       1.0000 0.00720  0.88270  0.10920  Biso   1.000  H
  C3       1.0000 0.06810  0.99060  0.94250  Biso   1.000  C
  H3       1.0000 0.12190  0.98230  0.89780  Biso   1.000  H
  C4       1.0000 0.04660  0.92980  0.02380  Biso   1.000  C
  H4       1.0000 0.08330  0.87310  0.04400  Biso   1.000  H
  C5       1.0000 0.03860  0.03260  0.92990  Biso   1.000  C
  H5       1.0000 0.06970  0.05940  0.87270  Biso   1.000  H
  C6       1.0000 0.06960  0.44870  0.48250  Biso   1.000  C
  H6       1.0000 0.12560  0.40850  0.46740  Biso   1.000  H
  C7       1.0000 0.00380  0.43440  0.56140  Biso   1.000  C
  H7       1.0000 0.00720  0.38270  0.60920  Biso   1.000  H
  C8       1.0000 0.06810  0.49060  0.44250  Biso   1.000  C
  H8       1.0000 0.12190  0.48230  0.39780  Biso   1.000  H
  C9       1.0000 0.04660  0.42980  0.52380  Biso   1.000  C
  H9       1.0000 0.08330  0.37310  0.54400  Biso   1.000  H
  C10      1.0000 0.03860  0.53260  0.42990  Biso   1.000  C
  H10      1.0000 0.06970  0.55940  0.37270  Biso   1.000  H
  C11      1.0000 0.56960  0.94870  0.48250  Biso   1.000  C
  H11      1.0000 0.62560  0.90850  0.46740  Biso   1.000  H
  C12      1.0000 0.50380  0.93440  0.56140  Biso   1.000  C
  H12      1.0000 0.50720  0.88270  0.60920  Biso   1.000  H
  C13      1.0000 0.56810  0.99060  0.44250  Biso   1.000  C
  H13      1.0000 0.62190  0.98230  0.39780  Biso   1.000  H
  C14      1.0000 0.54660  0.92980  0.52380  Biso   1.000  C
  H14      1.0000 0.58330  0.87310  0.54400  Biso   1.000  H
  C15      1.0000 0.53860  0.03260  0.42990  Biso   1.000  C
  H15      1.0000 0.56970  0.05940  0.37270  Biso   1.000  H
  C16      1.0000 0.56960  0.44870  0.98250  Biso   1.000  C
  H16      1.0000 0.62560  0.40850  0.96740  Biso   1.000  H
  C17      1.0000 0.50380  0.43440  0.06140  Biso   1.000  C
  H17      1.0000 0.50720  0.38270  0.10920  Biso   1.000  H
  C18      1.0000 0.56810  0.49060  0.94250  Biso   1.000  C
  H18      1.0000 0.62190  0.48230  0.89780  Biso   1.000  H
  C19      1.0000 0.54660  0.42980  0.02380  Biso   1.000  C
  H19      1.0000 0.58330  0.37310  0.04400  Biso   1.000  H
  C20      1.0000 0.53860  0.53260  0.92990  Biso   1.000  C
  H20      1.0000 0.56970  0.55940  0.87270  Biso   1.000  H
  C21      1.0000 0.68040  0.80130  0.98250  Biso   1.000  C
  H21      1.0000 0.62440  0.84150  0.96740  Biso   1.000  H
  C22      1.0000 0.74620  0.81560  0.06140  Biso   1.000  C
  H22      1.0000 0.74280  0.86730  0.10920  Biso   1.000  H
  C23      1.0000 0.68190  0.75940  0.94250  Biso   1.000  C
  H23      1.0000 0.62810  0.76770  0.89780  Biso   1.000  H
  C24      1.0000 0.70340  0.82020  0.02380  Biso   1.000  C
  H24      1.0000 0.66670  0.87690  0.04400  Biso   1.000  H
  C25      1.0000 0.71140  0.71740  0.92990  Biso   1.000  C
  H25      1.0000 0.68030  0.69060  0.87270  Biso   1.000  H
  C26      1.0000 0.68040  0.30130  0.48250  Biso   1.000  C
  H26      1.0000 0.62440  0.34150  0.46740  Biso   1.000  H
  C27      1.0000 0.74620  0.31560  0.56140  Biso   1.000  C
  H27      1.0000 0.74280  0.36730  0.60920  Biso   1.000  H
  C28      1.0000 0.68190  0.25940  0.44250  Biso   1.000  C
  H28      1.0000 0.62810  0.26770  0.39780  Biso   1.000  H
  C29      1.0000 0.70340  0.32020  0.52380  Biso   1.000  C
  H29      1.0000 0.66670  0.37690  0.54400  Biso   1.000  H
  C30      1.0000 0.71140  0.21740  0.42990  Biso   1.000  C
  H30      1.0000 0.68030  0.19060  0.37270  Biso   1.000  H
  C31      1.0000 0.18040  0.80130  0.48250  Biso   1.000  C
  H31      1.0000 0.12440  0.84150  0.46740  Biso   1.000  H
  C32      1.0000 0.24620  0.81560  0.56140  Biso   1.000  C
  H32      1.0000 0.24280  0.86730  0.60920  Biso   1.000  H
  C33      1.0000 0.18190  0.75940  0.44250  Biso   1.000  C
  H33      1.0000 0.12810  0.76770  0.39780  Biso   1.000  H
  C34      1.0000 0.20340  0.82020  0.52380  Biso   1.000  C
  H34      1.0000 0.16670  0.87690  0.54400  Biso   1.000  H
  C35      1.0000 0.21140  0.71740  0.42990  Biso   1.000  C
  H35      1.0000 0.18030  0.69060  0.37270  Biso   1.000  H
  C36      1.0000 0.18040  0.30130  0.98250  Biso   1.000  C
  H36      1.0000 0.12440  0.34150  0.96740  Biso   1.000  H
  C37      1.0000 0.24620  0.31560  0.06140  Biso   1.000  C
  H37      1.0000 0.24280  0.36730  0.10920  Biso   1.000  H
  C38      1.0000 0.18190  0.25940  0.94250  Biso   1.000  C
  H38      1.0000 0.12810  0.26770  0.89780  Biso   1.000  H
  C39      1.0000 0.20340  0.32020  0.02380  Biso   1.000  C
  H39      1.0000 0.16670  0.37690  0.04400  Biso   1.000  H
  C40      1.0000 0.21140  0.21740  0.92990  Biso   1.000  C
  H40      1.0000 0.18030  0.19060  0.87270  Biso   1.000  H
  C41      1.0000 0.68040  0.94870  0.76750  Biso   1.000  C
  H41      1.0000 0.62440  0.90850  0.78260  Biso   1.000  H
  C42      1.0000 0.74620  0.93440  0.68860  Biso   1.000  C
  H42      1.0000 0.74280  0.88270  0.64080  Biso   1.000  H
  C43      1.0000 0.68190  0.99060  0.80750  Biso   1.000  C
  H43      1.0000 0.62810  0.98230  0.85220  Biso   1.000  H
  C44      1.0000 0.70340  0.92980  0.72620  Biso   1.000  C
  H44      1.0000 0.66670  0.87310  0.70600  Biso   1.000  H
  C45      1.0000 0.71140  0.03260  0.82010  Biso   1.000  C
  H45      1.0000 0.68030  0.05940  0.87730  Biso   1.000  H
  C46      1.0000 0.68040  0.44870  0.26750  Biso   1.000  C
  H46      1.0000 0.62440  0.40850  0.28260  Biso   1.000  H
  C47      1.0000 0.74620  0.43440  0.18860  Biso   1.000  C
  H47      1.0000 0.74280  0.38270  0.14080  Biso   1.000  H
  C48      1.0000 0.68190  0.49060  0.30750  Biso   1.000  C
  H48      1.0000 0.62810  0.48230  0.35220  Biso   1.000  H
  C49      1.0000 0.70340  0.42980  0.22620  Biso   1.000  C
  H49      1.0000 0.66670  0.37310  0.20600  Biso   1.000  H
  C50      1.0000 0.71140  0.53260  0.32010  Biso   1.000  C
  H50      1.0000 0.68030  0.55940  0.37730  Biso   1.000  H
  C51      1.0000 0.18040  0.94870  0.26750  Biso   1.000  C
  H51      1.0000 0.12440  0.90850  0.28260  Biso   1.000  H
  C52      1.0000 0.24620  0.93440  0.18860  Biso   1.000  C
  H52      1.0000 0.24280  0.88270  0.14080  Biso   1.000  H
  C53      1.0000 0.18190  0.99060  0.30750  Biso   1.000  C
  H53      1.0000 0.12810  0.98230  0.35220  Biso   1.000  H
  C54      1.0000 0.20340  0.92980  0.22620  Biso   1.000  C
  H54      1.0000 0.16670  0.87310  0.20600  Biso   1.000  H
  C55      1.0000 0.21140  0.03260  0.32010  Biso   1.000  C
  H55      1.0000 0.18030  0.05940  0.37730  Biso   1.000  H
  C56      1.0000 0.18040  0.44870  0.76750  Biso   1.000  C
  H56      1.0000 0.12440  0.40850  0.78260  Biso   1.000  H
  C57      1.0000 0.24620  0.43440  0.68860  Biso   1.000  C
  H57      1.0000 0.24280  0.38270  0.64080  Biso   1.000  H
  C58      1.0000 0.18190  0.49060  0.80750  Biso   1.000  C
  H58      1.0000 0.12810  0.48230  0.85220  Biso   1.000  H
  C59      1.0000 0.20340  0.42980  0.72620  Biso   1.000  C
  H59      1.0000 0.16670  0.37310  0.70600  Biso   1.000  H
  C60      1.0000 0.21140  0.53260  0.82010  Biso   1.000  C
  H60      1.0000 0.18030  0.55940  0.87730  Biso   1.000  H
  C61      1.0000 0.06960  0.80130  0.76750  Biso   1.000  C
  H61      1.0000 0.12560  0.84150  0.78260  Biso   1.000  H
  C62      1.0000 0.00380  0.81560  0.68860  Biso   1.000  C
  H62      1.0000 0.00720  0.86730  0.64080  Biso   1.000  H
  C63      1.0000 0.06810  0.75940  0.80750  Biso   1.000  C
  H63      1.0000 0.12190  0.76770  0.85220  Biso   1.000  H
  C64      1.0000 0.04660  0.82020  0.72620  Biso   1.000  C
  H64      1.0000 0.08330  0.87690  0.70600  Biso   1.000  H
  C65      1.0000 0.03860  0.71740  0.82010  Biso   1.000  C
  H65      1.0000 0.06970  0.69060  0.87730  Biso   1.000  H
  C66      1.0000 0.06960  0.30130  0.26750  Biso   1.000  C
  H66      1.0000 0.12560  0.34150  0.28260  Biso   1.000  H
  C67      1.0000 0.00380  0.31560  0.18860  Biso   1.000  C
  H67      1.0000 0.00720  0.36730  0.14080  Biso   1.000  H
  C68      1.0000 0.06810  0.25940  0.30750  Biso   1.000  C
  H68      1.0000 0.12190  0.26770  0.35220  Biso   1.000  H
  C69      1.0000 0.04660  0.32020  0.22620  Biso   1.000  C
  H69      1.0000 0.08330  0.37690  0.20600  Biso   1.000  H
  C70      1.0000 0.03860  0.21740  0.32010  Biso   1.000  C
  H70      1.0000 0.06970  0.19060  0.37730  Biso   1.000  H
  C71      1.0000 0.56960  0.80130  0.26750  Biso   1.000  C
  H71      1.0000 0.62560  0.84150  0.28260  Biso   1.000  H
  C72      1.0000 0.50380  0.81560  0.18860  Biso   1.000  C
  H72      1.0000 0.50720  0.86730  0.14080  Biso   1.000  H
  C73      1.0000 0.56810  0.75940  0.30750  Biso   1.000  C
  H73      1.0000 0.62190  0.76770  0.35220  Biso   1.000  H
  C74      1.0000 0.54660  0.82020  0.22620  Biso   1.000  C
  H74      1.0000 0.58330  0.87690  0.20600  Biso   1.000  H
  C75      1.0000 0.53860  0.71740  0.32010  Biso   1.000  C
  H75      1.0000 0.56970  0.69060  0.37730  Biso   1.000  H
  C76      1.0000 0.56960  0.30130  0.76750  Biso   1.000  C
  H76      1.0000 0.62560  0.34150  0.78260  Biso   1.000  H
  C77      1.0000 0.50380  0.31560  0.68860  Biso   1.000  C
  H77      1.0000 0.50720  0.36730  0.64080  Biso   1.000  H
  C78      1.0000 0.56810  0.25940  0.80750  Biso   1.000  C
  H78      1.0000 0.62190  0.26770  0.85220  Biso   1.000  H
  C79      1.0000 0.54660  0.32020  0.72620  Biso   1.000  C
  H79      1.0000 0.58330  0.37690  0.70600  Biso   1.000  H
  C80      1.0000 0.53860  0.21740  0.82010  Biso   1.000  C
  H80      1.0000 0.56970  0.19060  0.87730  Biso   1.000  H
  C81      1.0000 0.93040  0.05130  0.01750  Biso   1.000  C
  H81      1.0000 0.87440  0.09150  0.03260  Biso   1.000  H
  C82      1.0000 0.99620  0.06560  0.93860  Biso   1.000  C
  H82      1.0000 0.99280  0.11730  0.89080  Biso   1.000  H
  C83      1.0000 0.93190  0.00940  0.05750  Biso   1.000  C
  H83      1.0000 0.87810  0.01770  0.10220  Biso   1.000  H
  C84      1.0000 0.95340  0.07020  0.97620  Biso   1.000  C
  H84      1.0000 0.91670  0.12690  0.95600  Biso   1.000  H
  C85      1.0000 0.96140  0.96740  0.07010  Biso   1.000  C
  H85      1.0000 0.93030  0.94060  0.12730  Biso   1.000  H
  C86      1.0000 0.93040  0.55130  0.51750  Biso   1.000  C
  H86      1.0000 0.87440  0.59150  0.53260  Biso   1.000  H
  C87      1.0000 0.99620  0.56560  0.43860  Biso   1.000  C
  H87      1.0000 0.99280  0.61730  0.39080  Biso   1.000  H
  C88      1.0000 0.93190  0.50940  0.55750  Biso   1.000  C
  H88      1.0000 0.87810  0.51770  0.60220  Biso   1.000  H
  C89      1.0000 0.95340  0.57020  0.47620  Biso   1.000  C
  H89      1.0000 0.91670  0.62690  0.45600  Biso   1.000  H
  C90      1.0000 0.96140  0.46740  0.57010  Biso   1.000  C
  H90      1.0000 0.93030  0.44060  0.62730  Biso   1.000  H
  C91      1.0000 0.43040  0.05130  0.51750  Biso   1.000  C
  H91      1.0000 0.37440  0.09150  0.53260  Biso   1.000  H
  C92      1.0000 0.49620  0.06560  0.43860  Biso   1.000  C
  H92      1.0000 0.49280  0.11730  0.39080  Biso   1.000  H
  C93      1.0000 0.43190  0.00940  0.55750  Biso   1.000  C
  H93      1.0000 0.37810  0.01770  0.60220  Biso   1.000  H
  C94      1.0000 0.45340  0.07020  0.47620  Biso   1.000  C
  H94      1.0000 0.41670  0.12690  0.45600  Biso   1.000  H
  C95      1.0000 0.46140  0.96740  0.57010  Biso   1.000  C
  H95      1.0000 0.43030  0.94060  0.62730  Biso   1.000  H
  C96      1.0000 0.43040  0.55130  0.01750  Biso   1.000  C
  H96      1.0000 0.37440  0.59150  0.03260  Biso   1.000  H
  C97      1.0000 0.49620  0.56560  0.93860  Biso   1.000  C
  H97      1.0000 0.49280  0.61730  0.89080  Biso   1.000  H
  C98      1.0000 0.43190  0.50940  0.05750  Biso   1.000  C
  H98      1.0000 0.37810  0.51770  0.10220  Biso   1.000  H
  C99      1.0000 0.45340  0.57020  0.97620  Biso   1.000  C
  H99      1.0000 0.41670  0.62690  0.95600  Biso   1.000  H
  C100     1.0000 0.46140  0.46740  0.07010  Biso   1.000  C
  H100     1.0000 0.43030  0.44060  0.12730  Biso   1.000  H
  C101     1.0000 0.31960  0.19870  0.01750  Biso   1.000  C
  H101     1.0000 0.37560  0.15850  0.03260  Biso   1.000  H
  C102     1.0000 0.25380  0.18440  0.93860  Biso   1.000  C
  H102     1.0000 0.25720  0.13270  0.89080  Biso   1.000  H
  C103     1.0000 0.31810  0.24060  0.05750  Biso   1.000  C
  H103     1.0000 0.37190  0.23230  0.10220  Biso   1.000  H
  C104     1.0000 0.29660  0.17980  0.97620  Biso   1.000  C
  H104     1.0000 0.33330  0.12310  0.95600  Biso   1.000  H
  C105     1.0000 0.28860  0.28260  0.07010  Biso   1.000  C
  H105     1.0000 0.31970  0.30940  0.12730  Biso   1.000  H
  C106     1.0000 0.31960  0.69870  0.51750  Biso   1.000  C
  H106     1.0000 0.37560  0.65850  0.53260  Biso   1.000  H
  C107     1.0000 0.25380  0.68440  0.43860  Biso   1.000  C
  H107     1.0000 0.25720  0.63270  0.39080  Biso   1.000  H
  C108     1.0000 0.31810  0.74060  0.55750  Biso   1.000  C
  H108     1.0000 0.37190  0.73230  0.60220  Biso   1.000  H
  C109     1.0000 0.29660  0.67980  0.47620  Biso   1.000  C
  H109     1.0000 0.33330  0.62310  0.45600  Biso   1.000  H
  C110     1.0000 0.28860  0.78260  0.57010  Biso   1.000  C
  H110     1.0000 0.31970  0.80940  0.62730  Biso   1.000  H
  C111     1.0000 0.81960  0.19870  0.51750  Biso   1.000  C
  H111     1.0000 0.87560  0.15850  0.53260  Biso   1.000  H
  C112     1.0000 0.75380  0.18440  0.43860  Biso   1.000  C
  H112     1.0000 0.75720  0.13270  0.39080  Biso   1.000  H
  C113     1.0000 0.81810  0.24060  0.55750  Biso   1.000  C
  H113     1.0000 0.87190  0.23230  0.60220  Biso   1.000  H
  C114     1.0000 0.79660  0.17980  0.47620  Biso   1.000  C
  H114     1.0000 0.83330  0.12310  0.45600  Biso   1.000  H
  C115     1.0000 0.78860  0.28260  0.57010  Biso   1.000  C
  H115     1.0000 0.81970  0.30940  0.62730  Biso   1.000  H
  C116     1.0000 0.81960  0.69870  0.01750  Biso   1.000  C
  H116     1.0000 0.87560  0.65850  0.03260  Biso   1.000  H
  C117     1.0000 0.75380  0.68440  0.93860  Biso   1.000  C
  H117     1.0000 0.75720  0.63270  0.89080  Biso   1.000  H
  C118     1.0000 0.81810  0.74060  0.05750  Biso   1.000  C
  H118     1.0000 0.87190  0.73230  0.10220  Biso   1.000  H
  C119     1.0000 0.79660  0.67980  0.97620  Biso   1.000  C
  H119     1.0000 0.83330  0.62310  0.95600  Biso   1.000  H
  C120     1.0000 0.78860  0.78260  0.07010  Biso   1.000  C
  H120     1.0000 0.81970  0.80940  0.12730  Biso   1.000  H
  C121     1.0000 0.31960  0.05130  0.23250  Biso   1.000  C
  H121     1.0000 0.37560  0.09150  0.21740  Biso   1.000  H
  C122     1.0000 0.25380  0.06560  0.31140  Biso   1.000  C
  H122     1.0000 0.25720  0.11730  0.35920  Biso   1.000  H
  C123     1.0000 0.31810  0.00940  0.19250  Biso   1.000  C
  H123     1.0000 0.37190  0.01770  0.14780  Biso   1.000  H
  C124     1.0000 0.29660  0.07020  0.27380  Biso   1.000  C
  H124     1.0000 0.33330  0.12690  0.29400  Biso   1.000  H
  C125     1.0000 0.28860  0.96740  0.17990  Biso   1.000  C
  H125     1.0000 0.31970  0.94060  0.12270  Biso   1.000  H
  C126     1.0000 0.31960  0.55130  0.73250  Biso   1.000  C
  H126     1.0000 0.37560  0.59150  0.71740  Biso   1.000  H
  C127     1.0000 0.25380  0.56560  0.81140  Biso   1.000  C
  H127     1.0000 0.25720  0.61730  0.85920  Biso   1.000  H
  C128     1.0000 0.31810  0.50940  0.69250  Biso   1.000  C
  H128     1.0000 0.37190  0.51770  0.64780  Biso   1.000  H
  C129     1.0000 0.29660  0.57020  0.77380  Biso   1.000  C
  H129     1.0000 0.33330  0.62690  0.79400  Biso   1.000  H
  C130     1.0000 0.28860  0.46740  0.67990  Biso   1.000  C
  H130     1.0000 0.31970  0.44060  0.62270  Biso   1.000  H
  C131     1.0000 0.81960  0.05130  0.73250  Biso   1.000  C
  H131     1.0000 0.87560  0.09150  0.71740  Biso   1.000  H
  C132     1.0000 0.75380  0.06560  0.81140  Biso   1.000  C
  H132     1.0000 0.75720  0.11730  0.85920  Biso   1.000  H
  C133     1.0000 0.81810  0.00940  0.69250  Biso   1.000  C
  H133     1.0000 0.87190  0.01770  0.64780  Biso   1.000  H
  C134     1.0000 0.79660  0.07020  0.77380  Biso   1.000  C
  H134     1.0000 0.83330  0.12690  0.79400  Biso   1.000  H
  C135     1.0000 0.78860  0.96740  0.67990  Biso   1.000  C
  H135     1.0000 0.81970  0.94060  0.62270  Biso   1.000  H
  C136     1.0000 0.81960  0.55130  0.23250  Biso   1.000  C
  H136     1.0000 0.87560  0.59150  0.21740  Biso   1.000  H
  C137     1.0000 0.75380  0.56560  0.31140  Biso   1.000  C
  H137     1.0000 0.75720  0.61730  0.35920  Biso   1.000  H
  C138     1.0000 0.81810  0.50940  0.19250  Biso   1.000  C
  H138     1.0000 0.87190  0.51770  0.14780  Biso   1.000  H
  C139     1.0000 0.79660  0.57020  0.27380  Biso   1.000  C
  H139     1.0000 0.83330  0.62690  0.29400  Biso   1.000  H
  C140     1.0000 0.78860  0.46740  0.17990  Biso   1.000  C
  H140     1.0000 0.81970  0.44060  0.12270  Biso   1.000  H
  C141     1.0000 0.93040  0.19870  0.23250  Biso   1.000  C
  H141     1.0000 0.87440  0.15850  0.21740  Biso   1.000  H
  C142     1.0000 0.99620  0.18440  0.31140  Biso   1.000  C
  H142     1.0000 0.99280  0.13270  0.35920  Biso   1.000  H
  C143     1.0000 0.93190  0.24060  0.19250  Biso   1.000  C
  H143     1.0000 0.87810  0.23230  0.14780  Biso   1.000  H
  C144     1.0000 0.95340  0.17980  0.27380  Biso   1.000  C
  H144     1.0000 0.91670  0.12310  0.29400  Biso   1.000  H
  C145     1.0000 0.96140  0.28260  0.17990  Biso   1.000  C
  H145     1.0000 0.93030  0.30940  0.12270  Biso   1.000  H
  C146     1.0000 0.93040  0.69870  0.73250  Biso   1.000  C
  H146     1.0000 0.87440  0.65850  0.71740  Biso   1.000  H
  C147     1.0000 0.99620  0.68440  0.81140  Biso   1.000  C
  H147     1.0000 0.99280  0.63270  0.85920  Biso   1.000  H
  C148     1.0000 0.93190  0.74060  0.69250  Biso   1.000  C
  H148     1.0000 0.87810  0.73230  0.64780  Biso   1.000  H
  C149     1.0000 0.95340  0.67980  0.77380  Biso   1.000  C
  H149     1.0000 0.91670  0.62310  0.79400  Biso   1.000  H
  C150     1.0000 0.96140  0.78260  0.67990  Biso   1.000  C
  H150     1.0000 0.93030  0.80940  0.62270  Biso   1.000  H
  C151     1.0000 0.43040  0.19870  0.73250  Biso   1.000  C
  H151     1.0000 0.37440  0.15850  0.71740  Biso   1.000  H
  C152     1.0000 0.49620  0.18440  0.81140  Biso   1.000  C
  H152     1.0000 0.49280  0.13270  0.85920  Biso   1.000  H
  C153     1.0000 0.43190  0.24060  0.69250  Biso   1.000  C
  H153     1.0000 0.37810  0.23230  0.64780  Biso   1.000  H
  C154     1.0000 0.45340  0.17980  0.77380  Biso   1.000  C
  H154     1.0000 0.41670  0.12310  0.79400  Biso   1.000  H
  C155     1.0000 0.46140  0.28260  0.67990  Biso   1.000  C
  H155     1.0000 0.43030  0.30940  0.62270  Biso   1.000  H
  C156     1.0000 0.43040  0.69870  0.23250  Biso   1.000  C
  H156     1.0000 0.37440  0.65850  0.21740  Biso   1.000  H
  C157     1.0000 0.49620  0.68440  0.31140  Biso   1.000  C
  H157     1.0000 0.49280  0.63270  0.35920  Biso   1.000  H
  C158     1.0000 0.43190  0.74060  0.19250  Biso   1.000  C
  H158     1.0000 0.37810  0.73230  0.14780  Biso   1.000  H
  C159     1.0000 0.45340  0.67980  0.27380  Biso   1.000  C
  H159     1.0000 0.41670  0.62310  0.29400  Biso   1.000  H
  C160     1.0000 0.46140  0.78260  0.17990  Biso   1.000  C
  H160     1.0000 0.43030  0.80940  0.12270  Biso   1.000  H
  Ba1      1.0000 0.12500  0.12500  0.12500  Biso   1.000  Ba
  Ba2      1.0000 0.12500  0.62500  0.62500  Biso   1.000  Ba
  Ba3      1.0000 0.62500  0.12500  0.62500  Biso   1.000  Ba
  Ba4      1.0000 0.62500  0.62500  0.12500  Biso   1.000  Ba
  Ba5      1.0000 0.87500  0.87500  0.87500  Biso   1.000  Ba
  Ba6      1.0000 0.87500  0.37500  0.37500  Biso   1.000  Ba
  Ba7      1.0000 0.37500  0.87500  0.37500  Biso   1.000  Ba
  Ba8      1.0000 0.37500  0.37500  0.87500  Biso   1.000  Ba
