data_image0
_cell_length_a       13.6744
_cell_length_b       13.6744
_cell_length_c       15.0225
_cell_angle_alpha    90
_cell_angle_beta     90
_cell_angle_gamma    120

_symmetry_space_group_name_H-M    "P 1"
_symmetry_int_tables_number       1

loop_
  _symmetry_equiv_pos_as_xyz
  'x, y, z'

loop_
  _atom_site_label
  _atom_site_occupancy
  _atom_site_fract_x
  _atom_site_fract_y
  _atom_site_fract_z
  _atom_site_thermal_displace_type
  _atom_site_B_iso_or_equiv
  _atom_site_type_symbol
  N1       1.0000 0.84300  0.65920  0.28390  Biso   1.000  N
  C1       1.0000 0.76660  0.68560  0.31300  Biso   1.000  C
  H1       1.0000 0.78500  0.73520  0.36060  Biso   1.000  H
  C2       1.0000 0.66080  0.64110  0.27440  Biso   1.000  C
  H2       1.0000 0.60630  0.65420  0.29950  Biso   1.000  H
  C3       1.0000 0.63730  0.57620  0.19720  Biso   1.000  C
  H3       1.0000 0.56920  0.55050  0.16720  Biso   1.000  H
  C4       1.0000 0.71620  0.55130  0.16680  Biso   1.000  C
  C5       1.0000 0.81870  0.59140  0.21150  Biso   1.000  C
  H4       1.0000 0.87080  0.57150  0.19150  Biso   1.000  H
  N2       1.0000 0.69230  0.48940  0.08520  Biso   1.000  N
  H5       1.0000 0.62740  0.46880  0.06180  Biso   1.000  H
  C6       1.0000 0.75840  0.45940  0.04050  Biso   1.000  C
  O1       1.0000 0.84520  0.46670  0.06870  Biso   1.000  O
  C7       1.0000 0.72920  0.44160  0.93350  Biso   1.000  C
  C8       1.0000 0.78300  0.55010  0.87720  Biso   1.000  C
  N3       1.0000 0.74910  0.34360  0.91140  Biso   1.000  N
  C9       1.0000 0.72110  0.26940  0.94030  Biso   1.000  C
  O2       1.0000 0.66370  0.24330  0.00720  Biso   1.000  O
  C10      1.0000 0.74320  0.16010  0.91670  Biso   1.000  C
  C11      1.0000 0.74420  0.14050  0.82670  Biso   1.000  C
  H6       1.0000 0.72550  0.18020  0.78650  Biso   1.000  H
  N4       1.0000 0.77190  0.06400  0.79580  Biso   1.000  N
  C12      1.0000 0.80590  0.01550  0.85540  Biso   1.000  C
  H7       1.0000 0.82880  0.96580  0.83520  Biso   1.000  H
  C13      1.0000 0.80900  0.03500  0.94470  Biso   1.000  C
  H8       1.0000 0.83740  0.00200  0.98330  Biso   1.000  H
  C14      1.0000 0.77070  0.10240  0.97760  Biso   1.000  C
  H9       1.0000 0.76350  0.10930  0.03850  Biso   1.000  H
  C15      1.0000 0.47450  0.79000  0.36790  Biso   1.000  C
  O3       1.0000 0.43540  0.82380  0.31180  Biso   1.000  O
  C16      1.0000 0.30740  0.60680  0.37410  Biso   1.000  C
  C17      1.0000 0.25370  0.50660  0.43890  Biso   1.000  C
  N5       1.0000 0.34080  0.18380  0.95057  Biso   1.000  N
  C18      1.0000 0.31440  0.08100  0.97967  Biso   1.000  C
  H10      1.0000 0.26480  0.04980  0.02727  Biso   1.000  H
  C19      1.0000 0.35890  0.01970  0.94107  Biso   1.000  C
  H11      1.0000 0.34580  0.95210  0.96617  Biso   1.000  H
  C20      1.0000 0.42380  0.06110  0.86387  Biso   1.000  C
  H12      1.0000 0.44950  0.01870  0.83387  Biso   1.000  H
  C21      1.0000 0.44870  0.16490  0.83347  Biso   1.000  C
  C22      1.0000 0.40860  0.22730  0.87817  Biso   1.000  C
  H13      1.0000 0.42850  0.29930  0.85817  Biso   1.000  H
  N6       1.0000 0.51060  0.20290  0.75187  Biso   1.000  N
  H14      1.0000 0.53120  0.15860  0.72847  Biso   1.000  H
  C23      1.0000 0.54060  0.29900  0.70717  Biso   1.000  C
  O4       1.0000 0.53330  0.37850  0.73537  Biso   1.000  O
  C24      1.0000 0.55840  0.28760  0.60017  Biso   1.000  C
  C25      1.0000 0.44990  0.23290  0.54387  Biso   1.000  C
  N7       1.0000 0.65640  0.40550  0.57807  Biso   1.000  N
  C26      1.0000 0.73060  0.45170  0.60697  Biso   1.000  C
  O5       1.0000 0.75670  0.42040  0.67387  Biso   1.000  O
  C27      1.0000 0.83990  0.58310  0.58337  Biso   1.000  C
  C28      1.0000 0.85950  0.60370  0.49337  Biso   1.000  C
  H15      1.0000 0.81980  0.54530  0.45317  Biso   1.000  H
  N8       1.0000 0.93600  0.70790  0.46247  Biso   1.000  N
  C29      1.0000 0.98450  0.79040  0.52207  Biso   1.000  C
  H16      1.0000 0.03420  0.86300  0.50187  Biso   1.000  H
  C30      1.0000 0.96500  0.77400  0.61137  Biso   1.000  C
  H17      1.0000 0.99800  0.83540  0.64997  Biso   1.000  H
  C31      1.0000 0.89760  0.66830  0.64427  Biso   1.000  C
  H18      1.0000 0.89070  0.65420  0.70517  Biso   1.000  H
  C32      1.0000 0.21000  0.68450  0.03457  Biso   1.000  C
  O6       1.0000 0.17620  0.61160  0.97847  Biso   1.000  O
  C33      1.0000 0.39320  0.70060  0.04077  Biso   1.000  C
  C34      1.0000 0.49340  0.74710  0.10557  Biso   1.000  C
  N9       1.0000 0.81620  0.15700  0.61723  Biso   1.000  N
  C35      1.0000 0.91900  0.23340  0.64633  Biso   1.000  C
  H19      1.0000 0.95020  0.21500  0.69393  Biso   1.000  H
  C36      1.0000 0.98030  0.33920  0.60773  Biso   1.000  C
  H20      1.0000 0.04790  0.39370  0.63283  Biso   1.000  H
  C37      1.0000 0.93890  0.36270  0.53053  Biso   1.000  C
  H21      1.0000 0.98130  0.43080  0.50053  Biso   1.000  H
  C38      1.0000 0.83510  0.28380  0.50013  Biso   1.000  C
  C39      1.0000 0.77270  0.18130  0.54483  Biso   1.000  C
  H22      1.0000 0.70070  0.12920  0.52483  Biso   1.000  H
  N10      1.0000 0.79710  0.30770  0.41853  Biso   1.000  N
  H23      1.0000 0.84140  0.37260  0.39513  Biso   1.000  H
  C40      1.0000 0.70100  0.24160  0.37383  Biso   1.000  C
  O7       1.0000 0.62150  0.15480  0.40203  Biso   1.000  O
  C41      1.0000 0.71240  0.27080  0.26683  Biso   1.000  C
  C42      1.0000 0.76710  0.21700  0.21053  Biso   1.000  C
  N11      1.0000 0.59450  0.25090  0.24473  Biso   1.000  N
  C43      1.0000 0.54830  0.27890  0.27363  Biso   1.000  C
  O8       1.0000 0.57960  0.33630  0.34053  Biso   1.000  O
  C44      1.0000 0.41690  0.25680  0.25003  Biso   1.000  C
  C45      1.0000 0.39630  0.25580  0.16003  Biso   1.000  C
  H24      1.0000 0.45470  0.27450  0.11983  Biso   1.000  H
  N12      1.0000 0.29210  0.22810  0.12913  Biso   1.000  N
  C46      1.0000 0.20960  0.19410  0.18873  Biso   1.000  C
  H25      1.0000 0.13700  0.17120  0.16853  Biso   1.000  H
  C47      1.0000 0.22600  0.19100  0.27803  Biso   1.000  C
  H26      1.0000 0.16460  0.16260  0.31663  Biso   1.000  H
  C48      1.0000 0.33170  0.22930  0.31093  Biso   1.000  C
  H27      1.0000 0.34580  0.23650  0.37183  Biso   1.000  H
  C49      1.0000 0.31550  0.52550  0.70123  Biso   1.000  C
  O9       1.0000 0.38840  0.56460  0.64513  Biso   1.000  O
  C50      1.0000 0.29940  0.69260  0.70743  Biso   1.000  C
  C51      1.0000 0.25290  0.74630  0.77223  Biso   1.000  C
  N13      1.0000 0.65920  0.84300  0.71610  Biso   1.000  N
  C52      1.0000 0.68560  0.76660  0.68700  Biso   1.000  C
  H28      1.0000 0.73520  0.78500  0.63940  Biso   1.000  H
  C53      1.0000 0.64110  0.66080  0.72560  Biso   1.000  C
  H29      1.0000 0.65420  0.60630  0.70050  Biso   1.000  H
  C54      1.0000 0.57620  0.63730  0.80280  Biso   1.000  C
  H30      1.0000 0.55050  0.56920  0.83280  Biso   1.000  H
  C55      1.0000 0.55130  0.71620  0.83320  Biso   1.000  C
  C56      1.0000 0.59140  0.81870  0.78850  Biso   1.000  C
  H31      1.0000 0.57150  0.87080  0.80850  Biso   1.000  H
  N14      1.0000 0.48940  0.69230  0.91480  Biso   1.000  N
  H32      1.0000 0.46880  0.62740  0.93820  Biso   1.000  H
  C57      1.0000 0.45940  0.75840  0.95950  Biso   1.000  C
  O10      1.0000 0.46670  0.84520  0.93130  Biso   1.000  O
  C58      1.0000 0.44160  0.72920  0.06650  Biso   1.000  C
  C59      1.0000 0.55010  0.78300  0.12280  Biso   1.000  C
  N15      1.0000 0.34360  0.74910  0.08860  Biso   1.000  N
  C60      1.0000 0.26940  0.72110  0.05970  Biso   1.000  C
  O11      1.0000 0.24330  0.66370  0.99280  Biso   1.000  O
  C61      1.0000 0.16010  0.74320  0.08330  Biso   1.000  C
  C62      1.0000 0.14050  0.74420  0.17330  Biso   1.000  C
  H33      1.0000 0.18020  0.72550  0.21350  Biso   1.000  H
  N16      1.0000 0.06400  0.77190  0.20420  Biso   1.000  N
  C63      1.0000 0.01550  0.80590  0.14460  Biso   1.000  C
  H34      1.0000 0.96580  0.82880  0.16480  Biso   1.000  H
  C64      1.0000 0.03500  0.80900  0.05530  Biso   1.000  C
  H35      1.0000 0.00200  0.83740  0.01670  Biso   1.000  H
  C65      1.0000 0.10240  0.77070  0.02240  Biso   1.000  C
  H36      1.0000 0.10930  0.76350  0.96150  Biso   1.000  H
  C66      1.0000 0.79000  0.47450  0.63210  Biso   1.000  C
  O12      1.0000 0.82380  0.43540  0.68820  Biso   1.000  O
  C67      1.0000 0.60680  0.30740  0.62590  Biso   1.000  C
  C68      1.0000 0.50660  0.25370  0.56110  Biso   1.000  C
  N17      1.0000 0.18380  0.34080  0.04943  Biso   1.000  N
  C69      1.0000 0.08100  0.31440  0.02033  Biso   1.000  C
  H37      1.0000 0.04980  0.26480  0.97273  Biso   1.000  H
  C70      1.0000 0.01970  0.35890  0.05893  Biso   1.000  C
  H38      1.0000 0.95210  0.34580  0.03383  Biso   1.000  H
  C71      1.0000 0.06110  0.42380  0.13613  Biso   1.000  C
  H39      1.0000 0.01870  0.44950  0.16613  Biso   1.000  H
  C72      1.0000 0.16490  0.44870  0.16653  Biso   1.000  C
  C73      1.0000 0.22730  0.40860  0.12183  Biso   1.000  C
  H40      1.0000 0.29930  0.42850  0.14183  Biso   1.000  H
  N18      1.0000 0.20290  0.51060  0.24813  Biso   1.000  N
  H41      1.0000 0.15860  0.53120  0.27153  Biso   1.000  H
  C74      1.0000 0.29900  0.54060  0.29283  Biso   1.000  C
  O13      1.0000 0.37850  0.53330  0.26463  Biso   1.000  O
  C75      1.0000 0.28760  0.55840  0.39983  Biso   1.000  C
  C76      1.0000 0.23290  0.44990  0.45613  Biso   1.000  C
  N19      1.0000 0.40550  0.65640  0.42193  Biso   1.000  N
  C77      1.0000 0.45170  0.73060  0.39303  Biso   1.000  C
  O14      1.0000 0.42040  0.75670  0.32613  Biso   1.000  O
  C78      1.0000 0.58310  0.83990  0.41663  Biso   1.000  C
  C79      1.0000 0.60370  0.85950  0.50663  Biso   1.000  C
  H42      1.0000 0.54530  0.81980  0.54683  Biso   1.000  H
  N20      1.0000 0.70790  0.93600  0.53753  Biso   1.000  N
  C80      1.0000 0.79040  0.98450  0.47793  Biso   1.000  C
  H43      1.0000 0.86300  0.03420  0.49813  Biso   1.000  H
  C81      1.0000 0.77400  0.96500  0.38863  Biso   1.000  C
  H44      1.0000 0.83540  0.99800  0.35003  Biso   1.000  H
  C82      1.0000 0.66830  0.89760  0.35573  Biso   1.000  C
  H45      1.0000 0.65420  0.89070  0.29483  Biso   1.000  H
  C83      1.0000 0.68450  0.21000  0.96543  Biso   1.000  C
  O15      1.0000 0.61160  0.17620  0.02153  Biso   1.000  O
  C84      1.0000 0.70060  0.39320  0.95923  Biso   1.000  C
  C85      1.0000 0.74710  0.49340  0.89443  Biso   1.000  C
  N21      1.0000 0.15700  0.81620  0.38277  Biso   1.000  N
  C86      1.0000 0.23340  0.91900  0.35367  Biso   1.000  C
  H46      1.0000 0.21500  0.95020  0.30607  Biso   1.000  H
  C87      1.0000 0.33920  0.98030  0.39227  Biso   1.000  C
  H47      1.0000 0.39370  0.04790  0.36717  Biso   1.000  H
  C88      1.0000 0.36270  0.93890  0.46947  Biso   1.000  C
  H48      1.0000 0.43080  0.98130  0.49947  Biso   1.000  H
  C89      1.0000 0.28380  0.83510  0.49987  Biso   1.000  C
  C90      1.0000 0.18130  0.77270  0.45517  Biso   1.000  C
  H49      1.0000 0.12920  0.70070  0.47517  Biso   1.000  H
  N22      1.0000 0.30770  0.79710  0.58147  Biso   1.000  N
  H50      1.0000 0.37260  0.84140  0.60487  Biso   1.000  H
  C91      1.0000 0.24160  0.70100  0.62617  Biso   1.000  C
  O16      1.0000 0.15480  0.62150  0.59797  Biso   1.000  O
  C92      1.0000 0.27080  0.71240  0.73317  Biso   1.000  C
  C93      1.0000 0.21700  0.76710  0.78947  Biso   1.000  C
  N23      1.0000 0.25090  0.59450  0.75527  Biso   1.000  N
  C94      1.0000 0.27890  0.54830  0.72637  Biso   1.000  C
  O17      1.0000 0.33630  0.57960  0.65947  Biso   1.000  O
  C95      1.0000 0.25680  0.41690  0.74997  Biso   1.000  C
  C96      1.0000 0.25580  0.39630  0.83997  Biso   1.000  C
  H51      1.0000 0.27450  0.45470  0.88017  Biso   1.000  H
  N24      1.0000 0.22810  0.29210  0.87087  Biso   1.000  N
  C97      1.0000 0.19410  0.20960  0.81127  Biso   1.000  C
  H52      1.0000 0.17120  0.13700  0.83147  Biso   1.000  H
  C98      1.0000 0.19100  0.22600  0.72197  Biso   1.000  C
  H53      1.0000 0.16260  0.16460  0.68337  Biso   1.000  H
  C99      1.0000 0.22930  0.33170  0.68907  Biso   1.000  C
  H54      1.0000 0.23650  0.34580  0.62817  Biso   1.000  H
  C100     1.0000 0.52550  0.31550  0.29877  Biso   1.000  C
  O18      1.0000 0.56460  0.38840  0.35487  Biso   1.000  O
  C101     1.0000 0.69260  0.29940  0.29257  Biso   1.000  C
  C102     1.0000 0.74630  0.25290  0.22777  Biso   1.000  C
  Cu1      1.0000 0.00000  0.73534  0.33333  Biso   1.000  Cu
  Br1      1.0000 0.00000  0.53739  0.33333  Biso   1.000  Br
  Cu2      1.0000 0.26466  0.26466  0.00000  Biso   1.000  Cu
  Br2      1.0000 0.46261  0.46261  0.00000  Biso   1.000  Br
  Cu3      1.0000 0.73534  0.00000  0.66667  Biso   1.000  Cu
  Br3      1.0000 0.53739  0.00000  0.66667  Biso   1.000  Br
