data_image0
_cell_length_a       13.8486
_cell_length_b       22.107
_cell_length_c       25.022
_cell_angle_alpha    90
_cell_angle_beta     95.003
_cell_angle_gamma    90

_symmetry_space_group_name_H-M    "P 1"
_symmetry_int_tables_number       1

loop_
  _symmetry_equiv_pos_as_xyz
  'x, y, z'

loop_
  _atom_site_label
  _atom_site_occupancy
  _atom_site_fract_x
  _atom_site_fract_y
  _atom_site_fract_z
  _atom_site_thermal_displace_type
  _atom_site_B_iso_or_equiv
  _atom_site_type_symbol
  Mo1      1.0000 0.92253  0.63384  0.07232  Biso   1.000  Mo
  Mo2      1.0000 0.69379  0.65052  0.11996  Biso   1.000  Mo
  Mo3      1.0000 0.62257  0.75882  0.12939  Biso   1.000  Mo
  Mo4      1.0000 0.75244  0.88493  0.09545  Biso   1.000  Mo
  Mo5      1.0000 0.92288  0.87280  0.06086  Biso   1.000  Mo
  Mo6      1.0000 0.02065  0.72809  0.04801  Biso   1.000  Mo
  Mn1      1.0000 0.92330  0.73645  0.28028  Biso   1.000  Mn
  Mn2      1.0000 0.86510  0.38992  0.16242  Biso   1.000  Mn
  Mn3      1.0000 0.72030  0.42731  0.19410  Biso   1.000  Mn
  P1       1.0000 0.87268  0.75733  0.14719  Biso   1.000  P
  P2       1.0000 0.84820  0.54736  0.17004  Biso   1.000  P
  P3       1.0000 0.62850  0.88390  0.20376  Biso   1.000  P
  P4       1.0000 0.15960  0.84660  0.08320  Biso   1.000  P
  P5       1.0000 0.13950  0.83130  0.12390  Biso   1.000  P
  O1       1.0000 0.03790  0.67240  0.10790  Biso   1.000  O
  O2       1.0000 0.88840  0.70290  0.02490  Biso   1.000  O
  O3       1.0000 0.77570  0.60920  0.06220  Biso   1.000  O
  O4       1.0000 0.92720  0.57730  0.13830  Biso   1.000  O
  O5       1.0000 0.81370  0.48820  0.14440  Biso   1.000  O
  O6       1.0000 0.89310  0.53730  0.22760  Biso   1.000  O
  O7       1.0000 0.76300  0.59070  0.17260  Biso   1.000  O
  O8       1.0000 0.67070  0.69900  0.18240  Biso   1.000  O
  O9       1.0000 0.67490  0.71830  0.06760  Biso   1.000  O
  O10      1.0000 0.61170  0.81610  0.19460  Biso   1.000  O
  O11      1.0000 0.62570  0.83700  0.08610  Biso   1.000  O
  O12      1.0000 0.53280  0.91870  0.18890  Biso   1.000  O
  O13      1.0000 0.66090  0.89510  0.26230  Biso   1.000  O
  O14      1.0000 0.70800  0.90660  0.16980  Biso   1.000  O
  O15      1.0000 0.88240  0.90410  0.12790  Biso   1.000  O
  O16      1.0000 0.79600  0.83610  0.03600  Biso   1.000  O
  O17      1.0000 0.06320  0.88090  0.09500  Biso   1.000  O
  O18      1.0000 0.20310  0.86100  0.03110  Biso   1.000  O
  O19      1.0000 0.23400  0.86190  0.12610  Biso   1.000  O
  O20      1.0000 0.13390  0.77660  0.08640  Biso   1.000  O
  O21      1.0000 0.12280  0.81350  0.18180  Biso   1.000  O
  O22      1.0000 0.98380  0.81050  0.00910  Biso   1.000  O
  O23      1.0000 0.84640  0.69180  0.13020  Biso   1.000  O
  O24      1.0000 0.77770  0.79480  0.14260  Biso   1.000  O
  O25      1.0000 0.94010  0.78280  0.10560  Biso   1.000  O
  O26      1.0000 0.92360  0.75880  0.20300  Biso   1.000  O
  C1       1.0000 0.94020  0.44040  0.06790  Biso   1.000  C
  H1       1.0000 0.00430  0.44210  0.05510  Biso   1.000  H
  H2       1.0000 0.93840  0.47110  0.09540  Biso   1.000  H
  C2       1.0000 0.86690  0.45930  0.02080  Biso   1.000  C
  H3       1.0000 0.89190  0.49480  0.00380  Biso   1.000  H
  H4       1.0000 0.86260  0.42700  0.99440  Biso   1.000  H
  N1       1.0000 0.93110  0.38070  0.09440  Biso   1.000  N
  H5       1.0000 0.98860  0.37030  0.11050  Biso   1.000  H
  H6       1.0000 0.91220  0.35310  0.06980  Biso   1.000  H
  N2       1.0000 0.76930  0.47280  0.03540  Biso   1.000  N
  H7       1.0000 0.75970  0.51260  0.03480  Biso   1.000  H
  H8       1.0000 0.76320  0.45880  0.06830  Biso   1.000  H
  H9       1.0000 0.72420  0.89150  0.48100  Biso   1.000  H
  H10      1.0000 0.72820  0.92310  0.53210  Biso   1.000  H
  N3       1.0000 0.72440  0.92770  0.49670  Biso   1.000  N
  Mo7      1.0000 0.42253  0.13384  0.07232  Biso   1.000  Mo
  Mo8      1.0000 0.19379  0.15052  0.11996  Biso   1.000  Mo
  Mo9      1.0000 0.12257  0.25882  0.12939  Biso   1.000  Mo
  Mo10     1.0000 0.25244  0.38493  0.09545  Biso   1.000  Mo
  Mo11     1.0000 0.42288  0.37280  0.06086  Biso   1.000  Mo
  Mo12     1.0000 0.52065  0.22809  0.04801  Biso   1.000  Mo
  Mn4      1.0000 0.42330  0.23645  0.28028  Biso   1.000  Mn
  Mn5      1.0000 0.36510  0.88992  0.16242  Biso   1.000  Mn
  Mn6      1.0000 0.22030  0.92731  0.19410  Biso   1.000  Mn
  P6       1.0000 0.37268  0.25733  0.14719  Biso   1.000  P
  P7       1.0000 0.34820  0.04736  0.17004  Biso   1.000  P
  P8       1.0000 0.12850  0.38390  0.20376  Biso   1.000  P
  P9       1.0000 0.65960  0.34660  0.08320  Biso   1.000  P
  P10      1.0000 0.63950  0.33130  0.12390  Biso   1.000  P
  O27      1.0000 0.53790  0.17240  0.10790  Biso   1.000  O
  O28      1.0000 0.38840  0.20290  0.02490  Biso   1.000  O
  O29      1.0000 0.27570  0.10920  0.06220  Biso   1.000  O
  O30      1.0000 0.42720  0.07730  0.13830  Biso   1.000  O
  O31      1.0000 0.31370  0.98820  0.14440  Biso   1.000  O
  O32      1.0000 0.39310  0.03730  0.22760  Biso   1.000  O
  O33      1.0000 0.26300  0.09070  0.17260  Biso   1.000  O
  O34      1.0000 0.17070  0.19900  0.18240  Biso   1.000  O
  O35      1.0000 0.17490  0.21830  0.06760  Biso   1.000  O
  O36      1.0000 0.11170  0.31610  0.19460  Biso   1.000  O
  O37      1.0000 0.12570  0.33700  0.08610  Biso   1.000  O
  O38      1.0000 0.03280  0.41870  0.18890  Biso   1.000  O
  O39      1.0000 0.16090  0.39510  0.26230  Biso   1.000  O
  O40      1.0000 0.20800  0.40660  0.16980  Biso   1.000  O
  O41      1.0000 0.38240  0.40410  0.12790  Biso   1.000  O
  O42      1.0000 0.29600  0.33610  0.03600  Biso   1.000  O
  O43      1.0000 0.56320  0.38090  0.09500  Biso   1.000  O
  O44      1.0000 0.70310  0.36100  0.03110  Biso   1.000  O
  O45      1.0000 0.73400  0.36190  0.12610  Biso   1.000  O
  O46      1.0000 0.63390  0.27660  0.08640  Biso   1.000  O
  O47      1.0000 0.62280  0.31350  0.18180  Biso   1.000  O
  O48      1.0000 0.48380  0.31050  0.00910  Biso   1.000  O
  O49      1.0000 0.34640  0.19180  0.13020  Biso   1.000  O
  O50      1.0000 0.27770  0.29480  0.14260  Biso   1.000  O
  O51      1.0000 0.44010  0.28280  0.10560  Biso   1.000  O
  O52      1.0000 0.42360  0.25880  0.20300  Biso   1.000  O
  C3       1.0000 0.44020  0.94040  0.06790  Biso   1.000  C
  H11      1.0000 0.50430  0.94210  0.05510  Biso   1.000  H
  H12      1.0000 0.43840  0.97110  0.09540  Biso   1.000  H
  C4       1.0000 0.36690  0.95930  0.02080  Biso   1.000  C
  H13      1.0000 0.39190  0.99480  0.00380  Biso   1.000  H
  H14      1.0000 0.36260  0.92700  0.99440  Biso   1.000  H
  N4       1.0000 0.43110  0.88070  0.09440  Biso   1.000  N
  H15      1.0000 0.48860  0.87030  0.11050  Biso   1.000  H
  H16      1.0000 0.41220  0.85310  0.06980  Biso   1.000  H
  N5       1.0000 0.26930  0.97280  0.03540  Biso   1.000  N
  H17      1.0000 0.25970  0.01260  0.03480  Biso   1.000  H
  H18      1.0000 0.26320  0.95880  0.06830  Biso   1.000  H
  H19      1.0000 0.22420  0.39150  0.48100  Biso   1.000  H
  H20      1.0000 0.22820  0.42310  0.53210  Biso   1.000  H
  N6       1.0000 0.22440  0.42770  0.49670  Biso   1.000  N
  Mo13     1.0000 0.07747  0.63384  0.42768  Biso   1.000  Mo
  Mo14     1.0000 0.30621  0.65052  0.38004  Biso   1.000  Mo
  Mo15     1.0000 0.37743  0.75882  0.37061  Biso   1.000  Mo
  Mo16     1.0000 0.24756  0.88493  0.40455  Biso   1.000  Mo
  Mo17     1.0000 0.07712  0.87280  0.43914  Biso   1.000  Mo
  Mo18     1.0000 0.97935  0.72809  0.45199  Biso   1.000  Mo
  Mn7      1.0000 0.07670  0.73645  0.21972  Biso   1.000  Mn
  Mn8      1.0000 0.13490  0.38992  0.33758  Biso   1.000  Mn
  Mn9      1.0000 0.27970  0.42731  0.30590  Biso   1.000  Mn
  P11      1.0000 0.12732  0.75733  0.35281  Biso   1.000  P
  P12      1.0000 0.15180  0.54736  0.32996  Biso   1.000  P
  P13      1.0000 0.37150  0.88390  0.29624  Biso   1.000  P
  P14      1.0000 0.84040  0.84660  0.41680  Biso   1.000  P
  P15      1.0000 0.86050  0.83130  0.37610  Biso   1.000  P
  O53      1.0000 0.96210  0.67240  0.39210  Biso   1.000  O
  O54      1.0000 0.11160  0.70290  0.47510  Biso   1.000  O
  O55      1.0000 0.22430  0.60920  0.43780  Biso   1.000  O
  O56      1.0000 0.07280  0.57730  0.36170  Biso   1.000  O
  O57      1.0000 0.18630  0.48820  0.35560  Biso   1.000  O
  O58      1.0000 0.10690  0.53730  0.27240  Biso   1.000  O
  O59      1.0000 0.23700  0.59070  0.32740  Biso   1.000  O
  O60      1.0000 0.32930  0.69900  0.31760  Biso   1.000  O
  O61      1.0000 0.32510  0.71830  0.43240  Biso   1.000  O
  O62      1.0000 0.38830  0.81610  0.30540  Biso   1.000  O
  O63      1.0000 0.37430  0.83700  0.41390  Biso   1.000  O
  O64      1.0000 0.46720  0.91870  0.31110  Biso   1.000  O
  O65      1.0000 0.33910  0.89510  0.23770  Biso   1.000  O
  O66      1.0000 0.29200  0.90660  0.33020  Biso   1.000  O
  O67      1.0000 0.11760  0.90410  0.37210  Biso   1.000  O
  O68      1.0000 0.20400  0.83610  0.46400  Biso   1.000  O
  O69      1.0000 0.93680  0.88090  0.40500  Biso   1.000  O
  O70      1.0000 0.79690  0.86100  0.46890  Biso   1.000  O
  O71      1.0000 0.76600  0.86190  0.37390  Biso   1.000  O
  O72      1.0000 0.86610  0.77660  0.41360  Biso   1.000  O
  O73      1.0000 0.87720  0.81350  0.31820  Biso   1.000  O
  O74      1.0000 0.01620  0.81050  0.49090  Biso   1.000  O
  O75      1.0000 0.15360  0.69180  0.36980  Biso   1.000  O
  O76      1.0000 0.22230  0.79480  0.35740  Biso   1.000  O
  O77      1.0000 0.05990  0.78280  0.39440  Biso   1.000  O
  O78      1.0000 0.07640  0.75880  0.29700  Biso   1.000  O
  C5       1.0000 0.05980  0.44040  0.43210  Biso   1.000  C
  H21      1.0000 0.99570  0.44210  0.44490  Biso   1.000  H
  H22      1.0000 0.06160  0.47110  0.40460  Biso   1.000  H
  C6       1.0000 0.13310  0.45930  0.47920  Biso   1.000  C
  H23      1.0000 0.10810  0.49480  0.49620  Biso   1.000  H
  H24      1.0000 0.13740  0.42700  0.50560  Biso   1.000  H
  N7       1.0000 0.06890  0.38070  0.40560  Biso   1.000  N
  H25      1.0000 0.01140  0.37030  0.38950  Biso   1.000  H
  H26      1.0000 0.08780  0.35310  0.43020  Biso   1.000  H
  N8       1.0000 0.23070  0.47280  0.46460  Biso   1.000  N
  H27      1.0000 0.24030  0.51260  0.46520  Biso   1.000  H
  H28      1.0000 0.23680  0.45880  0.43170  Biso   1.000  H
  H29      1.0000 0.27580  0.89150  0.01900  Biso   1.000  H
  H30      1.0000 0.27180  0.92310  0.96790  Biso   1.000  H
  N9       1.0000 0.27560  0.92770  0.00330  Biso   1.000  N
  Mo19     1.0000 0.57747  0.13384  0.42768  Biso   1.000  Mo
  Mo20     1.0000 0.80621  0.15052  0.38004  Biso   1.000  Mo
  Mo21     1.0000 0.87743  0.25882  0.37061  Biso   1.000  Mo
  Mo22     1.0000 0.74756  0.38493  0.40455  Biso   1.000  Mo
  Mo23     1.0000 0.57712  0.37280  0.43914  Biso   1.000  Mo
  Mo24     1.0000 0.47935  0.22809  0.45199  Biso   1.000  Mo
  Mn10     1.0000 0.57670  0.23645  0.21972  Biso   1.000  Mn
  Mn11     1.0000 0.63490  0.88992  0.33758  Biso   1.000  Mn
  Mn12     1.0000 0.77970  0.92731  0.30590  Biso   1.000  Mn
  P16      1.0000 0.62732  0.25733  0.35281  Biso   1.000  P
  P17      1.0000 0.65180  0.04736  0.32996  Biso   1.000  P
  P18      1.0000 0.87150  0.38390  0.29624  Biso   1.000  P
  P19      1.0000 0.34040  0.34660  0.41680  Biso   1.000  P
  P20      1.0000 0.36050  0.33130  0.37610  Biso   1.000  P
  O79      1.0000 0.46210  0.17240  0.39210  Biso   1.000  O
  O80      1.0000 0.61160  0.20290  0.47510  Biso   1.000  O
  O81      1.0000 0.72430  0.10920  0.43780  Biso   1.000  O
  O82      1.0000 0.57280  0.07730  0.36170  Biso   1.000  O
  O83      1.0000 0.68630  0.98820  0.35560  Biso   1.000  O
  O84      1.0000 0.60690  0.03730  0.27240  Biso   1.000  O
  O85      1.0000 0.73700  0.09070  0.32740  Biso   1.000  O
  O86      1.0000 0.82930  0.19900  0.31760  Biso   1.000  O
  O87      1.0000 0.82510  0.21830  0.43240  Biso   1.000  O
  O88      1.0000 0.88830  0.31610  0.30540  Biso   1.000  O
  O89      1.0000 0.87430  0.33700  0.41390  Biso   1.000  O
  O90      1.0000 0.96720  0.41870  0.31110  Biso   1.000  O
  O91      1.0000 0.83910  0.39510  0.23770  Biso   1.000  O
  O92      1.0000 0.79200  0.40660  0.33020  Biso   1.000  O
  O93      1.0000 0.61760  0.40410  0.37210  Biso   1.000  O
  O94      1.0000 0.70400  0.33610  0.46400  Biso   1.000  O
  O95      1.0000 0.43680  0.38090  0.40500  Biso   1.000  O
  O96      1.0000 0.29690  0.36100  0.46890  Biso   1.000  O
  O97      1.0000 0.26600  0.36190  0.37390  Biso   1.000  O
  O98      1.0000 0.36610  0.27660  0.41360  Biso   1.000  O
  O99      1.0000 0.37720  0.31350  0.31820  Biso   1.000  O
  O100     1.0000 0.51620  0.31050  0.49090  Biso   1.000  O
  O101     1.0000 0.65360  0.19180  0.36980  Biso   1.000  O
  O102     1.0000 0.72230  0.29480  0.35740  Biso   1.000  O
  O103     1.0000 0.55990  0.28280  0.39440  Biso   1.000  O
  O104     1.0000 0.57640  0.25880  0.29700  Biso   1.000  O
  C7       1.0000 0.55980  0.94040  0.43210  Biso   1.000  C
  H31      1.0000 0.49570  0.94210  0.44490  Biso   1.000  H
  H32      1.0000 0.56160  0.97110  0.40460  Biso   1.000  H
  C8       1.0000 0.63310  0.95930  0.47920  Biso   1.000  C
  H33      1.0000 0.60810  0.99480  0.49620  Biso   1.000  H
  H34      1.0000 0.63740  0.92700  0.50560  Biso   1.000  H
  N10      1.0000 0.56890  0.88070  0.40560  Biso   1.000  N
  H35      1.0000 0.51140  0.87030  0.38950  Biso   1.000  H
  H36      1.0000 0.58780  0.85310  0.43020  Biso   1.000  H
  N11      1.0000 0.73070  0.97280  0.46460  Biso   1.000  N
  H37      1.0000 0.74030  0.01260  0.46520  Biso   1.000  H
  H38      1.0000 0.73680  0.95880  0.43170  Biso   1.000  H
  H39      1.0000 0.77580  0.39150  0.01900  Biso   1.000  H
  H40      1.0000 0.77180  0.42310  0.96790  Biso   1.000  H
  N12      1.0000 0.77560  0.42770  0.00330  Biso   1.000  N
  Mo25     1.0000 0.07747  0.36616  0.92768  Biso   1.000  Mo
  Mo26     1.0000 0.30621  0.34948  0.88004  Biso   1.000  Mo
  Mo27     1.0000 0.37743  0.24118  0.87061  Biso   1.000  Mo
  Mo28     1.0000 0.24756  0.11507  0.90455  Biso   1.000  Mo
  Mo29     1.0000 0.07712  0.12720  0.93914  Biso   1.000  Mo
  Mo30     1.0000 0.97935  0.27191  0.95199  Biso   1.000  Mo
  Mn13     1.0000 0.07670  0.26355  0.71972  Biso   1.000  Mn
  Mn14     1.0000 0.13490  0.61008  0.83758  Biso   1.000  Mn
  Mn15     1.0000 0.27970  0.57269  0.80590  Biso   1.000  Mn
  P21      1.0000 0.12732  0.24267  0.85281  Biso   1.000  P
  P22      1.0000 0.15180  0.45264  0.82996  Biso   1.000  P
  P23      1.0000 0.37150  0.11610  0.79624  Biso   1.000  P
  P24      1.0000 0.84040  0.15340  0.91680  Biso   1.000  P
  P25      1.0000 0.86050  0.16870  0.87610  Biso   1.000  P
  O105     1.0000 0.96210  0.32760  0.89210  Biso   1.000  O
  O106     1.0000 0.11160  0.29710  0.97510  Biso   1.000  O
  O107     1.0000 0.22430  0.39080  0.93780  Biso   1.000  O
  O108     1.0000 0.07280  0.42270  0.86170  Biso   1.000  O
  O109     1.0000 0.18630  0.51180  0.85560  Biso   1.000  O
  O110     1.0000 0.10690  0.46270  0.77240  Biso   1.000  O
  O111     1.0000 0.23700  0.40930  0.82740  Biso   1.000  O
  O112     1.0000 0.32930  0.30100  0.81760  Biso   1.000  O
  O113     1.0000 0.32510  0.28170  0.93240  Biso   1.000  O
  O114     1.0000 0.38830  0.18390  0.80540  Biso   1.000  O
  O115     1.0000 0.37430  0.16300  0.91390  Biso   1.000  O
  O116     1.0000 0.46720  0.08130  0.81110  Biso   1.000  O
  O117     1.0000 0.33910  0.10490  0.73770  Biso   1.000  O
  O118     1.0000 0.29200  0.09340  0.83020  Biso   1.000  O
  O119     1.0000 0.11760  0.09590  0.87210  Biso   1.000  O
  O120     1.0000 0.20400  0.16390  0.96400  Biso   1.000  O
  O121     1.0000 0.93680  0.11910  0.90500  Biso   1.000  O
  O122     1.0000 0.79690  0.13900  0.96890  Biso   1.000  O
  O123     1.0000 0.76600  0.13810  0.87390  Biso   1.000  O
  O124     1.0000 0.86610  0.22340  0.91360  Biso   1.000  O
  O125     1.0000 0.87720  0.18650  0.81820  Biso   1.000  O
  O126     1.0000 0.01620  0.18950  0.99090  Biso   1.000  O
  O127     1.0000 0.15360  0.30820  0.86980  Biso   1.000  O
  O128     1.0000 0.22230  0.20520  0.85740  Biso   1.000  O
  O129     1.0000 0.05990  0.21720  0.89440  Biso   1.000  O
  O130     1.0000 0.07640  0.24120  0.79700  Biso   1.000  O
  C9       1.0000 0.05980  0.55960  0.93210  Biso   1.000  C
  H41      1.0000 0.99570  0.55790  0.94490  Biso   1.000  H
  H42      1.0000 0.06160  0.52890  0.90460  Biso   1.000  H
  C10      1.0000 0.13310  0.54070  0.97920  Biso   1.000  C
  H43      1.0000 0.10810  0.50520  0.99620  Biso   1.000  H
  H44      1.0000 0.13740  0.57300  0.00560  Biso   1.000  H
  N13      1.0000 0.06890  0.61930  0.90560  Biso   1.000  N
  H45      1.0000 0.01140  0.62970  0.88950  Biso   1.000  H
  H46      1.0000 0.08780  0.64690  0.93020  Biso   1.000  H
  N14      1.0000 0.23070  0.52720  0.96460  Biso   1.000  N
  H47      1.0000 0.24030  0.48740  0.96520  Biso   1.000  H
  H48      1.0000 0.23680  0.54120  0.93170  Biso   1.000  H
  H49      1.0000 0.27580  0.10850  0.51900  Biso   1.000  H
  H50      1.0000 0.27180  0.07690  0.46790  Biso   1.000  H
  N15      1.0000 0.27560  0.07230  0.50330  Biso   1.000  N
  Mo31     1.0000 0.57747  0.86616  0.92768  Biso   1.000  Mo
  Mo32     1.0000 0.80621  0.84948  0.88004  Biso   1.000  Mo
  Mo33     1.0000 0.87743  0.74118  0.87061  Biso   1.000  Mo
  Mo34     1.0000 0.74756  0.61507  0.90455  Biso   1.000  Mo
  Mo35     1.0000 0.57712  0.62720  0.93914  Biso   1.000  Mo
  Mo36     1.0000 0.47935  0.77191  0.95199  Biso   1.000  Mo
  Mn16     1.0000 0.57670  0.76355  0.71972  Biso   1.000  Mn
  Mn17     1.0000 0.63490  0.11008  0.83758  Biso   1.000  Mn
  Mn18     1.0000 0.77970  0.07269  0.80590  Biso   1.000  Mn
  P26      1.0000 0.62732  0.74267  0.85281  Biso   1.000  P
  P27      1.0000 0.65180  0.95264  0.82996  Biso   1.000  P
  P28      1.0000 0.87150  0.61610  0.79624  Biso   1.000  P
  P29      1.0000 0.34040  0.65340  0.91680  Biso   1.000  P
  P30      1.0000 0.36050  0.66870  0.87610  Biso   1.000  P
  O131     1.0000 0.46210  0.82760  0.89210  Biso   1.000  O
  O132     1.0000 0.61160  0.79710  0.97510  Biso   1.000  O
  O133     1.0000 0.72430  0.89080  0.93780  Biso   1.000  O
  O134     1.0000 0.57280  0.92270  0.86170  Biso   1.000  O
  O135     1.0000 0.68630  0.01180  0.85560  Biso   1.000  O
  O136     1.0000 0.60690  0.96270  0.77240  Biso   1.000  O
  O137     1.0000 0.73700  0.90930  0.82740  Biso   1.000  O
  O138     1.0000 0.82930  0.80100  0.81760  Biso   1.000  O
  O139     1.0000 0.82510  0.78170  0.93240  Biso   1.000  O
  O140     1.0000 0.88830  0.68390  0.80540  Biso   1.000  O
  O141     1.0000 0.87430  0.66300  0.91390  Biso   1.000  O
  O142     1.0000 0.96720  0.58130  0.81110  Biso   1.000  O
  O143     1.0000 0.83910  0.60490  0.73770  Biso   1.000  O
  O144     1.0000 0.79200  0.59340  0.83020  Biso   1.000  O
  O145     1.0000 0.61760  0.59590  0.87210  Biso   1.000  O
  O146     1.0000 0.70400  0.66390  0.96400  Biso   1.000  O
  O147     1.0000 0.43680  0.61910  0.90500  Biso   1.000  O
  O148     1.0000 0.29690  0.63900  0.96890  Biso   1.000  O
  O149     1.0000 0.26600  0.63810  0.87390  Biso   1.000  O
  O150     1.0000 0.36610  0.72340  0.91360  Biso   1.000  O
  O151     1.0000 0.37720  0.68650  0.81820  Biso   1.000  O
  O152     1.0000 0.51620  0.68950  0.99090  Biso   1.000  O
  O153     1.0000 0.65360  0.80820  0.86980  Biso   1.000  O
  O154     1.0000 0.72230  0.70520  0.85740  Biso   1.000  O
  O155     1.0000 0.55990  0.71720  0.89440  Biso   1.000  O
  O156     1.0000 0.57640  0.74120  0.79700  Biso   1.000  O
  C11      1.0000 0.55980  0.05960  0.93210  Biso   1.000  C
  H51      1.0000 0.49570  0.05790  0.94490  Biso   1.000  H
  H52      1.0000 0.56160  0.02890  0.90460  Biso   1.000  H
  C12      1.0000 0.63310  0.04070  0.97920  Biso   1.000  C
  H53      1.0000 0.60810  0.00520  0.99620  Biso   1.000  H
  H54      1.0000 0.63740  0.07300  0.00560  Biso   1.000  H
  N16      1.0000 0.56890  0.11930  0.90560  Biso   1.000  N
  H55      1.0000 0.51140  0.12970  0.88950  Biso   1.000  H
  H56      1.0000 0.58780  0.14690  0.93020  Biso   1.000  H
  N17      1.0000 0.73070  0.02720  0.96460  Biso   1.000  N
  H57      1.0000 0.74030  0.98740  0.96520  Biso   1.000  H
  H58      1.0000 0.73680  0.04120  0.93170  Biso   1.000  H
  H59      1.0000 0.77580  0.60850  0.51900  Biso   1.000  H
  H60      1.0000 0.77180  0.57690  0.46790  Biso   1.000  H
  N18      1.0000 0.77560  0.57230  0.50330  Biso   1.000  N
  Mo37     1.0000 0.92253  0.36616  0.57232  Biso   1.000  Mo
  Mo38     1.0000 0.69379  0.34948  0.61996  Biso   1.000  Mo
  Mo39     1.0000 0.62257  0.24118  0.62939  Biso   1.000  Mo
  Mo40     1.0000 0.75244  0.11507  0.59545  Biso   1.000  Mo
  Mo41     1.0000 0.92288  0.12720  0.56086  Biso   1.000  Mo
  Mo42     1.0000 0.02065  0.27191  0.54801  Biso   1.000  Mo
  Mn19     1.0000 0.92330  0.26355  0.78028  Biso   1.000  Mn
  Mn20     1.0000 0.86510  0.61008  0.66242  Biso   1.000  Mn
  Mn21     1.0000 0.72030  0.57269  0.69410  Biso   1.000  Mn
  P31      1.0000 0.87268  0.24267  0.64719  Biso   1.000  P
  P32      1.0000 0.84820  0.45264  0.67004  Biso   1.000  P
  P33      1.0000 0.62850  0.11610  0.70376  Biso   1.000  P
  P34      1.0000 0.15960  0.15340  0.58320  Biso   1.000  P
  P35      1.0000 0.13950  0.16870  0.62390  Biso   1.000  P
  O157     1.0000 0.03790  0.32760  0.60790  Biso   1.000  O
  O158     1.0000 0.88840  0.29710  0.52490  Biso   1.000  O
  O159     1.0000 0.77570  0.39080  0.56220  Biso   1.000  O
  O160     1.0000 0.92720  0.42270  0.63830  Biso   1.000  O
  O161     1.0000 0.81370  0.51180  0.64440  Biso   1.000  O
  O162     1.0000 0.89310  0.46270  0.72760  Biso   1.000  O
  O163     1.0000 0.76300  0.40930  0.67260  Biso   1.000  O
  O164     1.0000 0.67070  0.30100  0.68240  Biso   1.000  O
  O165     1.0000 0.67490  0.28170  0.56760  Biso   1.000  O
  O166     1.0000 0.61170  0.18390  0.69460  Biso   1.000  O
  O167     1.0000 0.62570  0.16300  0.58610  Biso   1.000  O
  O168     1.0000 0.53280  0.08130  0.68890  Biso   1.000  O
  O169     1.0000 0.66090  0.10490  0.76230  Biso   1.000  O
  O170     1.0000 0.70800  0.09340  0.66980  Biso   1.000  O
  O171     1.0000 0.88240  0.09590  0.62790  Biso   1.000  O
  O172     1.0000 0.79600  0.16390  0.53600  Biso   1.000  O
  O173     1.0000 0.06320  0.11910  0.59500  Biso   1.000  O
  O174     1.0000 0.20310  0.13900  0.53110  Biso   1.000  O
  O175     1.0000 0.23400  0.13810  0.62610  Biso   1.000  O
  O176     1.0000 0.13390  0.22340  0.58640  Biso   1.000  O
  O177     1.0000 0.12280  0.18650  0.68180  Biso   1.000  O
  O178     1.0000 0.98380  0.18950  0.50910  Biso   1.000  O
  O179     1.0000 0.84640  0.30820  0.63020  Biso   1.000  O
  O180     1.0000 0.77770  0.20520  0.64260  Biso   1.000  O
  O181     1.0000 0.94010  0.21720  0.60560  Biso   1.000  O
  O182     1.0000 0.92360  0.24120  0.70300  Biso   1.000  O
  C13      1.0000 0.94020  0.55960  0.56790  Biso   1.000  C
  H61      1.0000 0.00430  0.55790  0.55510  Biso   1.000  H
  H62      1.0000 0.93840  0.52890  0.59540  Biso   1.000  H
  C14      1.0000 0.86690  0.54070  0.52080  Biso   1.000  C
  H63      1.0000 0.89190  0.50520  0.50380  Biso   1.000  H
  H64      1.0000 0.86260  0.57300  0.49440  Biso   1.000  H
  N19      1.0000 0.93110  0.61930  0.59440  Biso   1.000  N
  H65      1.0000 0.98860  0.62970  0.61050  Biso   1.000  H
  H66      1.0000 0.91220  0.64690  0.56980  Biso   1.000  H
  N20      1.0000 0.76930  0.52720  0.53540  Biso   1.000  N
  H67      1.0000 0.75970  0.48740  0.53480  Biso   1.000  H
  H68      1.0000 0.76320  0.54120  0.56830  Biso   1.000  H
  H69      1.0000 0.72420  0.10850  0.98100  Biso   1.000  H
  H70      1.0000 0.72820  0.07690  0.03210  Biso   1.000  H
  N21      1.0000 0.72440  0.07230  0.99670  Biso   1.000  N
  Mo43     1.0000 0.42253  0.86616  0.57232  Biso   1.000  Mo
  Mo44     1.0000 0.19379  0.84948  0.61996  Biso   1.000  Mo
  Mo45     1.0000 0.12257  0.74118  0.62939  Biso   1.000  Mo
  Mo46     1.0000 0.25244  0.61507  0.59545  Biso   1.000  Mo
  Mo47     1.0000 0.42288  0.62720  0.56086  Biso   1.000  Mo
  Mo48     1.0000 0.52065  0.77191  0.54801  Biso   1.000  Mo
  Mn22     1.0000 0.42330  0.76355  0.78028  Biso   1.000  Mn
  Mn23     1.0000 0.36510  0.11008  0.66242  Biso   1.000  Mn
  Mn24     1.0000 0.22030  0.07269  0.69410  Biso   1.000  Mn
  P36      1.0000 0.37268  0.74267  0.64719  Biso   1.000  P
  P37      1.0000 0.34820  0.95264  0.67004  Biso   1.000  P
  P38      1.0000 0.12850  0.61610  0.70376  Biso   1.000  P
  P39      1.0000 0.65960  0.65340  0.58320  Biso   1.000  P
  P40      1.0000 0.63950  0.66870  0.62390  Biso   1.000  P
  O183     1.0000 0.53790  0.82760  0.60790  Biso   1.000  O
  O184     1.0000 0.38840  0.79710  0.52490  Biso   1.000  O
  O185     1.0000 0.27570  0.89080  0.56220  Biso   1.000  O
  O186     1.0000 0.42720  0.92270  0.63830  Biso   1.000  O
  O187     1.0000 0.31370  0.01180  0.64440  Biso   1.000  O
  O188     1.0000 0.39310  0.96270  0.72760  Biso   1.000  O
  O189     1.0000 0.26300  0.90930  0.67260  Biso   1.000  O
  O190     1.0000 0.17070  0.80100  0.68240  Biso   1.000  O
  O191     1.0000 0.17490  0.78170  0.56760  Biso   1.000  O
  O192     1.0000 0.11170  0.68390  0.69460  Biso   1.000  O
  O193     1.0000 0.12570  0.66300  0.58610  Biso   1.000  O
  O194     1.0000 0.03280  0.58130  0.68890  Biso   1.000  O
  O195     1.0000 0.16090  0.60490  0.76230  Biso   1.000  O
  O196     1.0000 0.20800  0.59340  0.66980  Biso   1.000  O
  O197     1.0000 0.38240  0.59590  0.62790  Biso   1.000  O
  O198     1.0000 0.29600  0.66390  0.53600  Biso   1.000  O
  O199     1.0000 0.56320  0.61910  0.59500  Biso   1.000  O
  O200     1.0000 0.70310  0.63900  0.53110  Biso   1.000  O
  O201     1.0000 0.73400  0.63810  0.62610  Biso   1.000  O
  O202     1.0000 0.63390  0.72340  0.58640  Biso   1.000  O
  O203     1.0000 0.62280  0.68650  0.68180  Biso   1.000  O
  O204     1.0000 0.48380  0.68950  0.50910  Biso   1.000  O
  O205     1.0000 0.34640  0.80820  0.63020  Biso   1.000  O
  O206     1.0000 0.27770  0.70520  0.64260  Biso   1.000  O
  O207     1.0000 0.44010  0.71720  0.60560  Biso   1.000  O
  O208     1.0000 0.42360  0.74120  0.70300  Biso   1.000  O
  C15      1.0000 0.44020  0.05960  0.56790  Biso   1.000  C
  H71      1.0000 0.50430  0.05790  0.55510  Biso   1.000  H
  H72      1.0000 0.43840  0.02890  0.59540  Biso   1.000  H
  C16      1.0000 0.36690  0.04070  0.52080  Biso   1.000  C
  H73      1.0000 0.39190  0.00520  0.50380  Biso   1.000  H
  H74      1.0000 0.36260  0.07300  0.49440  Biso   1.000  H
  N22      1.0000 0.43110  0.11930  0.59440  Biso   1.000  N
  H75      1.0000 0.48860  0.12970  0.61050  Biso   1.000  H
  H76      1.0000 0.41220  0.14690  0.56980  Biso   1.000  H
  N23      1.0000 0.26930  0.02720  0.53540  Biso   1.000  N
  H77      1.0000 0.25970  0.98740  0.53480  Biso   1.000  H
  H78      1.0000 0.26320  0.04120  0.56830  Biso   1.000  H
  H79      1.0000 0.22420  0.60850  0.98100  Biso   1.000  H
  H80      1.0000 0.22820  0.57690  0.03210  Biso   1.000  H
  N24      1.0000 0.22440  0.57230  0.99670  Biso   1.000  N
  Mn25     1.0000 0.75000  0.75000  0.00000  Biso   1.000  Mn
  Mn26     1.0000 0.25000  0.75000  0.50000  Biso   1.000  Mn
  Mn27     1.0000 0.25000  0.25000  0.00000  Biso   1.000  Mn
  Mn28     1.0000 0.75000  0.25000  0.50000  Biso   1.000  Mn
  Mn29     1.0000 0.00000  0.47564  0.25000  Biso   1.000  Mn
  Mn30     1.0000 0.50000  0.97564  0.25000  Biso   1.000  Mn
  Mn31     1.0000 0.00000  0.52436  0.75000  Biso   1.000  Mn
  Mn32     1.0000 0.50000  0.02436  0.75000  Biso   1.000  Mn
