data_image0
_cell_length_a       7.2383
_cell_length_b       24.673
_cell_length_c       30.0729
_cell_angle_alpha    90
_cell_angle_beta     94.671
_cell_angle_gamma    90

_symmetry_space_group_name_H-M    "P 1"
_symmetry_int_tables_number       1

loop_
  _symmetry_equiv_pos_as_xyz
  'x, y, z'

loop_
  _atom_site_label
  _atom_site_occupancy
  _atom_site_fract_x
  _atom_site_fract_y
  _atom_site_fract_z
  _atom_site_thermal_displace_type
  _atom_site_B_iso_or_equiv
  _atom_site_type_symbol
  Rb1      1.0000 0.49940  0.22847  0.26939  Biso   1.000  Rb
  C1       1.0000 0.26760  0.08820  0.52990  Biso   1.000  C
  C2       1.0000 0.42470  0.11770  0.51690  Biso   1.000  C
  H1       1.0000 0.48610  0.14570  0.53260  Biso   1.000  H
  C3       1.0000 0.46680  0.09660  0.47740  Biso   1.000  C
  H2       1.0000 0.56350  0.10710  0.46080  Biso   1.000  H
  C4       1.0000 0.33190  0.05460  0.46620  Biso   1.000  C
  N1       1.0000 0.20940  0.04970  0.49910  Biso   1.000  N
  C5       1.0000 0.32330  0.02660  0.42641  Biso   1.000  C
  C6       1.0000 0.19320  0.98700  0.41610  Biso   1.000  C
  C7       1.0000 0.18450  0.95640  0.37510  Biso   1.000  C
  H3       1.0000 0.26060  0.96070  0.35190  Biso   1.000  H
  C8       1.0000 0.04640  0.92050  0.37670  Biso   1.000  C
  H4       1.0000 0.00770  0.89540  0.35480  Biso   1.000  H
  C9       1.0000 0.96900  0.92840  0.41910  Biso   1.000  C
  N2       1.0000 0.05910  0.96980  0.44298  Biso   1.000  N
  C10      1.0000 0.18180  0.10080  0.56840  Biso   1.000  C
  C11      1.0000 0.45250  0.04250  0.39250  Biso   1.000  C
  C12      1.0000 0.64150  0.03040  0.39770  Biso   1.000  C
  H5       1.0000 0.69000  0.01090  0.42240  Biso   1.000  H
  C13      1.0000 0.75600  0.04770  0.36590  Biso   1.000  C
  H6       1.0000 0.88200  0.03990  0.36960  Biso   1.000  H
  C14      1.0000 0.68650  0.07640  0.32880  Biso   1.000  C
  C15      1.0000 0.49780  0.08680  0.32280  Biso   1.000  C
  H7       1.0000 0.44950  0.10540  0.29760  Biso   1.000  H
  C16      1.0000 0.38070  0.06960  0.35440  Biso   1.000  C
  H8       1.0000 0.25410  0.07630  0.35010  Biso   1.000  H
  C17      1.0000 0.81070  0.09970  0.29669  Biso   1.000  C
  O1       1.0000 0.98100  0.09090  0.30010  Biso   1.000  O
  O2       1.0000 0.74320  0.13181  0.26623  Biso   1.000  O
  C18      1.0000 0.26250  0.14330  0.59950  Biso   1.000  C
  C19      1.0000 0.16630  0.18970  0.60720  Biso   1.000  C
  H9       1.0000 0.05040  0.19600  0.59240  Biso   1.000  H
  C20      1.0000 0.24580  0.22760  0.63790  Biso   1.000  C
  H10      1.0000 0.18240  0.25940  0.64320  Biso   1.000  H
  C21      1.0000 0.41680  0.21820  0.66010  Biso   1.000  C
  C22      1.0000 0.51430  0.17380  0.65130  Biso   1.000  C
  H11      1.0000 0.63230  0.16830  0.66520  Biso   1.000  H
  C23      1.0000 0.43600  0.13600  0.62100  Biso   1.000  C
  H12      1.0000 0.50260  0.10490  0.61520  Biso   1.000  H
  C24      1.0000 0.52100  0.26000  0.69500  Biso   1.000  C
  O3       1.0000 0.66600  0.24730  0.71340  Biso   1.000  O
  O4       1.0000 0.40650  0.29760  0.70320  Biso   1.000  O
  O5       1.0000 0.48700  0.34800  0.23080  Biso   1.000  O
  C25      1.0000 0.35500  0.36370  0.25100  Biso   1.000  C
  N3       1.0000 0.28400  0.42020  0.25480  Biso   1.000  N
  C26      1.0000 0.44500  0.45620  0.25470  Biso   1.000  C
  C27      1.0000 0.08600  0.43500  0.25580  Biso   1.000  C
  Rb2      1.0000 0.99940  0.72847  0.26939  Biso   1.000  Rb
  C28      1.0000 0.76760  0.58820  0.52990  Biso   1.000  C
  C29      1.0000 0.92470  0.61770  0.51690  Biso   1.000  C
  H13      1.0000 0.98610  0.64570  0.53260  Biso   1.000  H
  C30      1.0000 0.96680  0.59660  0.47740  Biso   1.000  C
  H14      1.0000 0.06350  0.60710  0.46080  Biso   1.000  H
  C31      1.0000 0.83190  0.55460  0.46620  Biso   1.000  C
  N4       1.0000 0.70940  0.54970  0.49910  Biso   1.000  N
  C32      1.0000 0.82330  0.52660  0.42641  Biso   1.000  C
  C33      1.0000 0.69320  0.48700  0.41610  Biso   1.000  C
  C34      1.0000 0.68450  0.45640  0.37510  Biso   1.000  C
  H15      1.0000 0.76060  0.46070  0.35190  Biso   1.000  H
  C35      1.0000 0.54640  0.42050  0.37670  Biso   1.000  C
  H16      1.0000 0.50770  0.39540  0.35480  Biso   1.000  H
  C36      1.0000 0.46900  0.42840  0.41910  Biso   1.000  C
  N5       1.0000 0.55910  0.46980  0.44298  Biso   1.000  N
  C37      1.0000 0.68180  0.60080  0.56840  Biso   1.000  C
  C38      1.0000 0.95250  0.54250  0.39250  Biso   1.000  C
  C39      1.0000 0.14150  0.53040  0.39770  Biso   1.000  C
  H17      1.0000 0.19000  0.51090  0.42240  Biso   1.000  H
  C40      1.0000 0.25600  0.54770  0.36590  Biso   1.000  C
  H18      1.0000 0.38200  0.53990  0.36960  Biso   1.000  H
  C41      1.0000 0.18650  0.57640  0.32880  Biso   1.000  C
  C42      1.0000 0.99780  0.58680  0.32280  Biso   1.000  C
  H19      1.0000 0.94950  0.60540  0.29760  Biso   1.000  H
  C43      1.0000 0.88070  0.56960  0.35440  Biso   1.000  C
  H20      1.0000 0.75410  0.57630  0.35010  Biso   1.000  H
  C44      1.0000 0.31070  0.59970  0.29669  Biso   1.000  C
  O6       1.0000 0.48100  0.59090  0.30010  Biso   1.000  O
  O7       1.0000 0.24320  0.63181  0.26623  Biso   1.000  O
  C45      1.0000 0.76250  0.64330  0.59950  Biso   1.000  C
  C46      1.0000 0.66630  0.68970  0.60720  Biso   1.000  C
  H21      1.0000 0.55040  0.69600  0.59240  Biso   1.000  H
  C47      1.0000 0.74580  0.72760  0.63790  Biso   1.000  C
  H22      1.0000 0.68240  0.75940  0.64320  Biso   1.000  H
  C48      1.0000 0.91680  0.71820  0.66010  Biso   1.000  C
  C49      1.0000 0.01430  0.67380  0.65130  Biso   1.000  C
  H23      1.0000 0.13230  0.66830  0.66520  Biso   1.000  H
  C50      1.0000 0.93600  0.63600  0.62100  Biso   1.000  C
  H24      1.0000 0.00260  0.60490  0.61520  Biso   1.000  H
  C51      1.0000 0.02100  0.76000  0.69500  Biso   1.000  C
  O8       1.0000 0.16600  0.74730  0.71340  Biso   1.000  O
  O9       1.0000 0.90650  0.79760  0.70320  Biso   1.000  O
  O10      1.0000 0.98700  0.84800  0.23080  Biso   1.000  O
  C52      1.0000 0.85500  0.86370  0.25100  Biso   1.000  C
  N6       1.0000 0.78400  0.92020  0.25480  Biso   1.000  N
  C53      1.0000 0.94500  0.95620  0.25470  Biso   1.000  C
  C54      1.0000 0.58600  0.93500  0.25580  Biso   1.000  C
  Rb3      1.0000 0.50060  0.22847  0.23061  Biso   1.000  Rb
  C55      1.0000 0.73240  0.08820  0.97010  Biso   1.000  C
  C56      1.0000 0.57530  0.11770  0.98310  Biso   1.000  C
  H25      1.0000 0.51390  0.14570  0.96740  Biso   1.000  H
  C57      1.0000 0.53320  0.09660  0.02260  Biso   1.000  C
  H26      1.0000 0.43650  0.10710  0.03920  Biso   1.000  H
  C58      1.0000 0.66810  0.05460  0.03380  Biso   1.000  C
  N7       1.0000 0.79060  0.04970  0.00090  Biso   1.000  N
  C59      1.0000 0.67670  0.02660  0.07359  Biso   1.000  C
  C60      1.0000 0.80680  0.98700  0.08390  Biso   1.000  C
  C61      1.0000 0.81550  0.95640  0.12490  Biso   1.000  C
  H27      1.0000 0.73940  0.96070  0.14810  Biso   1.000  H
  C62      1.0000 0.95360  0.92050  0.12330  Biso   1.000  C
  H28      1.0000 0.99230  0.89540  0.14520  Biso   1.000  H
  C63      1.0000 0.03100  0.92840  0.08090  Biso   1.000  C
  N8       1.0000 0.94090  0.96980  0.05702  Biso   1.000  N
  C64      1.0000 0.81820  0.10080  0.93160  Biso   1.000  C
  C65      1.0000 0.54750  0.04250  0.10750  Biso   1.000  C
  C66      1.0000 0.35850  0.03040  0.10230  Biso   1.000  C
  H29      1.0000 0.31000  0.01090  0.07760  Biso   1.000  H
  C67      1.0000 0.24400  0.04770  0.13410  Biso   1.000  C
  H30      1.0000 0.11800  0.03990  0.13040  Biso   1.000  H
  C68      1.0000 0.31350  0.07640  0.17120  Biso   1.000  C
  C69      1.0000 0.50220  0.08680  0.17720  Biso   1.000  C
  H31      1.0000 0.55050  0.10540  0.20240  Biso   1.000  H
  C70      1.0000 0.61930  0.06960  0.14560  Biso   1.000  C
  H32      1.0000 0.74590  0.07630  0.14990  Biso   1.000  H
  C71      1.0000 0.18930  0.09970  0.20331  Biso   1.000  C
  O11      1.0000 0.01900  0.09090  0.19990  Biso   1.000  O
  O12      1.0000 0.25680  0.13181  0.23377  Biso   1.000  O
  C72      1.0000 0.73750  0.14330  0.90050  Biso   1.000  C
  C73      1.0000 0.83370  0.18970  0.89280  Biso   1.000  C
  H33      1.0000 0.94960  0.19600  0.90760  Biso   1.000  H
  C74      1.0000 0.75420  0.22760  0.86210  Biso   1.000  C
  H34      1.0000 0.81760  0.25940  0.85680  Biso   1.000  H
  C75      1.0000 0.58320  0.21820  0.83990  Biso   1.000  C
  C76      1.0000 0.48570  0.17380  0.84870  Biso   1.000  C
  H35      1.0000 0.36770  0.16830  0.83480  Biso   1.000  H
  C77      1.0000 0.56400  0.13600  0.87900  Biso   1.000  C
  H36      1.0000 0.49740  0.10490  0.88480  Biso   1.000  H
  C78      1.0000 0.47900  0.26000  0.80500  Biso   1.000  C
  O13      1.0000 0.33400  0.24730  0.78660  Biso   1.000  O
  O14      1.0000 0.59350  0.29760  0.79680  Biso   1.000  O
  O15      1.0000 0.51300  0.34800  0.26920  Biso   1.000  O
  C79      1.0000 0.64500  0.36370  0.24900  Biso   1.000  C
  N9       1.0000 0.71600  0.42020  0.24520  Biso   1.000  N
  C80      1.0000 0.55500  0.45620  0.24530  Biso   1.000  C
  C81      1.0000 0.91400  0.43500  0.24420  Biso   1.000  C
  Rb4      1.0000 0.00060  0.72847  0.23061  Biso   1.000  Rb
  C82      1.0000 0.23240  0.58820  0.97010  Biso   1.000  C
  C83      1.0000 0.07530  0.61770  0.98310  Biso   1.000  C
  H37      1.0000 0.01390  0.64570  0.96740  Biso   1.000  H
  C84      1.0000 0.03320  0.59660  0.02260  Biso   1.000  C
  H38      1.0000 0.93650  0.60710  0.03920  Biso   1.000  H
  C85      1.0000 0.16810  0.55460  0.03380  Biso   1.000  C
  N10      1.0000 0.29060  0.54970  0.00090  Biso   1.000  N
  C86      1.0000 0.17670  0.52660  0.07359  Biso   1.000  C
  C87      1.0000 0.30680  0.48700  0.08390  Biso   1.000  C
  C88      1.0000 0.31550  0.45640  0.12490  Biso   1.000  C
  H39      1.0000 0.23940  0.46070  0.14810  Biso   1.000  H
  C89      1.0000 0.45360  0.42050  0.12330  Biso   1.000  C
  H40      1.0000 0.49230  0.39540  0.14520  Biso   1.000  H
  C90      1.0000 0.53100  0.42840  0.08090  Biso   1.000  C
  N11      1.0000 0.44090  0.46980  0.05702  Biso   1.000  N
  C91      1.0000 0.31820  0.60080  0.93160  Biso   1.000  C
  C92      1.0000 0.04750  0.54250  0.10750  Biso   1.000  C
  C93      1.0000 0.85850  0.53040  0.10230  Biso   1.000  C
  H41      1.0000 0.81000  0.51090  0.07760  Biso   1.000  H
  C94      1.0000 0.74400  0.54770  0.13410  Biso   1.000  C
  H42      1.0000 0.61800  0.53990  0.13040  Biso   1.000  H
  C95      1.0000 0.81350  0.57640  0.17120  Biso   1.000  C
  C96      1.0000 0.00220  0.58680  0.17720  Biso   1.000  C
  H43      1.0000 0.05050  0.60540  0.20240  Biso   1.000  H
  C97      1.0000 0.11930  0.56960  0.14560  Biso   1.000  C
  H44      1.0000 0.24590  0.57630  0.14990  Biso   1.000  H
  C98      1.0000 0.68930  0.59970  0.20331  Biso   1.000  C
  O16      1.0000 0.51900  0.59090  0.19990  Biso   1.000  O
  O17      1.0000 0.75680  0.63181  0.23377  Biso   1.000  O
  C99      1.0000 0.23750  0.64330  0.90050  Biso   1.000  C
  C100     1.0000 0.33370  0.68970  0.89280  Biso   1.000  C
  H45      1.0000 0.44960  0.69600  0.90760  Biso   1.000  H
  C101     1.0000 0.25420  0.72760  0.86210  Biso   1.000  C
  H46      1.0000 0.31760  0.75940  0.85680  Biso   1.000  H
  C102     1.0000 0.08320  0.71820  0.83990  Biso   1.000  C
  C103     1.0000 0.98570  0.67380  0.84870  Biso   1.000  C
  H47      1.0000 0.86770  0.66830  0.83480  Biso   1.000  H
  C104     1.0000 0.06400  0.63600  0.87900  Biso   1.000  C
  H48      1.0000 0.99740  0.60490  0.88480  Biso   1.000  H
  C105     1.0000 0.97900  0.76000  0.80500  Biso   1.000  C
  O18      1.0000 0.83400  0.74730  0.78660  Biso   1.000  O
  O19      1.0000 0.09350  0.79760  0.79680  Biso   1.000  O
  O20      1.0000 0.01300  0.84800  0.26920  Biso   1.000  O
  C106     1.0000 0.14500  0.86370  0.24900  Biso   1.000  C
  N12      1.0000 0.21600  0.92020  0.24520  Biso   1.000  N
  C107     1.0000 0.05500  0.95620  0.24530  Biso   1.000  C
  C108     1.0000 0.41400  0.93500  0.24420  Biso   1.000  C
  Rb5      1.0000 0.50060  0.77153  0.73061  Biso   1.000  Rb
  C109     1.0000 0.73240  0.91180  0.47010  Biso   1.000  C
  C110     1.0000 0.57530  0.88230  0.48310  Biso   1.000  C
  H49      1.0000 0.51390  0.85430  0.46740  Biso   1.000  H
  C111     1.0000 0.53320  0.90340  0.52260  Biso   1.000  C
  H50      1.0000 0.43650  0.89290  0.53920  Biso   1.000  H
  C112     1.0000 0.66810  0.94540  0.53380  Biso   1.000  C
  N13      1.0000 0.79060  0.95030  0.50090  Biso   1.000  N
  C113     1.0000 0.67670  0.97340  0.57359  Biso   1.000  C
  C114     1.0000 0.80680  0.01300  0.58390  Biso   1.000  C
  C115     1.0000 0.81550  0.04360  0.62490  Biso   1.000  C
  H51      1.0000 0.73940  0.03930  0.64810  Biso   1.000  H
  C116     1.0000 0.95360  0.07950  0.62330  Biso   1.000  C
  H52      1.0000 0.99230  0.10460  0.64520  Biso   1.000  H
  C117     1.0000 0.03100  0.07160  0.58090  Biso   1.000  C
  N14      1.0000 0.94090  0.03020  0.55702  Biso   1.000  N
  C118     1.0000 0.81820  0.89920  0.43160  Biso   1.000  C
  C119     1.0000 0.54750  0.95750  0.60750  Biso   1.000  C
  C120     1.0000 0.35850  0.96960  0.60230  Biso   1.000  C
  H53      1.0000 0.31000  0.98910  0.57760  Biso   1.000  H
  C121     1.0000 0.24400  0.95230  0.63410  Biso   1.000  C
  H54      1.0000 0.11800  0.96010  0.63040  Biso   1.000  H
  C122     1.0000 0.31350  0.92360  0.67120  Biso   1.000  C
  C123     1.0000 0.50220  0.91320  0.67720  Biso   1.000  C
  H55      1.0000 0.55050  0.89460  0.70240  Biso   1.000  H
  C124     1.0000 0.61930  0.93040  0.64560  Biso   1.000  C
  H56      1.0000 0.74590  0.92370  0.64990  Biso   1.000  H
  C125     1.0000 0.18930  0.90030  0.70331  Biso   1.000  C
  O21      1.0000 0.01900  0.90910  0.69990  Biso   1.000  O
  O22      1.0000 0.25680  0.86819  0.73377  Biso   1.000  O
  C126     1.0000 0.73750  0.85670  0.40050  Biso   1.000  C
  C127     1.0000 0.83370  0.81030  0.39280  Biso   1.000  C
  H57      1.0000 0.94960  0.80400  0.40760  Biso   1.000  H
  C128     1.0000 0.75420  0.77240  0.36210  Biso   1.000  C
  H58      1.0000 0.81760  0.74060  0.35680  Biso   1.000  H
  C129     1.0000 0.58320  0.78180  0.33990  Biso   1.000  C
  C130     1.0000 0.48570  0.82620  0.34870  Biso   1.000  C
  H59      1.0000 0.36770  0.83170  0.33480  Biso   1.000  H
  C131     1.0000 0.56400  0.86400  0.37900  Biso   1.000  C
  H60      1.0000 0.49740  0.89510  0.38480  Biso   1.000  H
  C132     1.0000 0.47900  0.74000  0.30500  Biso   1.000  C
  O23      1.0000 0.33400  0.75270  0.28660  Biso   1.000  O
  O24      1.0000 0.59350  0.70240  0.29680  Biso   1.000  O
  O25      1.0000 0.51300  0.65200  0.76920  Biso   1.000  O
  C133     1.0000 0.64500  0.63630  0.74900  Biso   1.000  C
  N15      1.0000 0.71600  0.57980  0.74520  Biso   1.000  N
  C134     1.0000 0.55500  0.54380  0.74530  Biso   1.000  C
  C135     1.0000 0.91400  0.56500  0.74420  Biso   1.000  C
  Rb6      1.0000 0.00060  0.27153  0.73061  Biso   1.000  Rb
  C136     1.0000 0.23240  0.41180  0.47010  Biso   1.000  C
  C137     1.0000 0.07530  0.38230  0.48310  Biso   1.000  C
  H61      1.0000 0.01390  0.35430  0.46740  Biso   1.000  H
  C138     1.0000 0.03320  0.40340  0.52260  Biso   1.000  C
  H62      1.0000 0.93650  0.39290  0.53920  Biso   1.000  H
  C139     1.0000 0.16810  0.44540  0.53380  Biso   1.000  C
  N16      1.0000 0.29060  0.45030  0.50090  Biso   1.000  N
  C140     1.0000 0.17670  0.47340  0.57359  Biso   1.000  C
  C141     1.0000 0.30680  0.51300  0.58390  Biso   1.000  C
  C142     1.0000 0.31550  0.54360  0.62490  Biso   1.000  C
  H63      1.0000 0.23940  0.53930  0.64810  Biso   1.000  H
  C143     1.0000 0.45360  0.57950  0.62330  Biso   1.000  C
  H64      1.0000 0.49230  0.60460  0.64520  Biso   1.000  H
  C144     1.0000 0.53100  0.57160  0.58090  Biso   1.000  C
  N17      1.0000 0.44090  0.53020  0.55702  Biso   1.000  N
  C145     1.0000 0.31820  0.39920  0.43160  Biso   1.000  C
  C146     1.0000 0.04750  0.45750  0.60750  Biso   1.000  C
  C147     1.0000 0.85850  0.46960  0.60230  Biso   1.000  C
  H65      1.0000 0.81000  0.48910  0.57760  Biso   1.000  H
  C148     1.0000 0.74400  0.45230  0.63410  Biso   1.000  C
  H66      1.0000 0.61800  0.46010  0.63040  Biso   1.000  H
  C149     1.0000 0.81350  0.42360  0.67120  Biso   1.000  C
  C150     1.0000 0.00220  0.41320  0.67720  Biso   1.000  C
  H67      1.0000 0.05050  0.39460  0.70240  Biso   1.000  H
  C151     1.0000 0.11930  0.43040  0.64560  Biso   1.000  C
  H68      1.0000 0.24590  0.42370  0.64990  Biso   1.000  H
  C152     1.0000 0.68930  0.40030  0.70331  Biso   1.000  C
  O26      1.0000 0.51900  0.40910  0.69990  Biso   1.000  O
  O27      1.0000 0.75680  0.36819  0.73377  Biso   1.000  O
  C153     1.0000 0.23750  0.35670  0.40050  Biso   1.000  C
  C154     1.0000 0.33370  0.31030  0.39280  Biso   1.000  C
  H69      1.0000 0.44960  0.30400  0.40760  Biso   1.000  H
  C155     1.0000 0.25420  0.27240  0.36210  Biso   1.000  C
  H70      1.0000 0.31760  0.24060  0.35680  Biso   1.000  H
  C156     1.0000 0.08320  0.28180  0.33990  Biso   1.000  C
  C157     1.0000 0.98570  0.32620  0.34870  Biso   1.000  C
  H71      1.0000 0.86770  0.33170  0.33480  Biso   1.000  H
  C158     1.0000 0.06400  0.36400  0.37900  Biso   1.000  C
  H72      1.0000 0.99740  0.39510  0.38480  Biso   1.000  H
  C159     1.0000 0.97900  0.24000  0.30500  Biso   1.000  C
  O28      1.0000 0.83400  0.25270  0.28660  Biso   1.000  O
  O29      1.0000 0.09350  0.20240  0.29680  Biso   1.000  O
  O30      1.0000 0.01300  0.15200  0.76920  Biso   1.000  O
  C160     1.0000 0.14500  0.13630  0.74900  Biso   1.000  C
  N18      1.0000 0.21600  0.07980  0.74520  Biso   1.000  N
  C161     1.0000 0.05500  0.04380  0.74530  Biso   1.000  C
  C162     1.0000 0.41400  0.06500  0.74420  Biso   1.000  C
  Rb7      1.0000 0.49940  0.77153  0.76939  Biso   1.000  Rb
  C163     1.0000 0.26760  0.91180  0.02990  Biso   1.000  C
  C164     1.0000 0.42470  0.88230  0.01690  Biso   1.000  C
  H73      1.0000 0.48610  0.85430  0.03260  Biso   1.000  H
  C165     1.0000 0.46680  0.90340  0.97740  Biso   1.000  C
  H74      1.0000 0.56350  0.89290  0.96080  Biso   1.000  H
  C166     1.0000 0.33190  0.94540  0.96620  Biso   1.000  C
  N19      1.0000 0.20940  0.95030  0.99910  Biso   1.000  N
  C167     1.0000 0.32330  0.97340  0.92641  Biso   1.000  C
  C168     1.0000 0.19320  0.01300  0.91610  Biso   1.000  C
  C169     1.0000 0.18450  0.04360  0.87510  Biso   1.000  C
  H75      1.0000 0.26060  0.03930  0.85190  Biso   1.000  H
  C170     1.0000 0.04640  0.07950  0.87670  Biso   1.000  C
  H76      1.0000 0.00770  0.10460  0.85480  Biso   1.000  H
  C171     1.0000 0.96900  0.07160  0.91910  Biso   1.000  C
  N20      1.0000 0.05910  0.03020  0.94298  Biso   1.000  N
  C172     1.0000 0.18180  0.89920  0.06840  Biso   1.000  C
  C173     1.0000 0.45250  0.95750  0.89250  Biso   1.000  C
  C174     1.0000 0.64150  0.96960  0.89770  Biso   1.000  C
  H77      1.0000 0.69000  0.98910  0.92240  Biso   1.000  H
  C175     1.0000 0.75600  0.95230  0.86590  Biso   1.000  C
  H78      1.0000 0.88200  0.96010  0.86960  Biso   1.000  H
  C176     1.0000 0.68650  0.92360  0.82880  Biso   1.000  C
  C177     1.0000 0.49780  0.91320  0.82280  Biso   1.000  C
  H79      1.0000 0.44950  0.89460  0.79760  Biso   1.000  H
  C178     1.0000 0.38070  0.93040  0.85440  Biso   1.000  C
  H80      1.0000 0.25410  0.92370  0.85010  Biso   1.000  H
  C179     1.0000 0.81070  0.90030  0.79669  Biso   1.000  C
  O31      1.0000 0.98100  0.90910  0.80010  Biso   1.000  O
  O32      1.0000 0.74320  0.86819  0.76623  Biso   1.000  O
  C180     1.0000 0.26250  0.85670  0.09950  Biso   1.000  C
  C181     1.0000 0.16630  0.81030  0.10720  Biso   1.000  C
  H81      1.0000 0.05040  0.80400  0.09240  Biso   1.000  H
  C182     1.0000 0.24580  0.77240  0.13790  Biso   1.000  C
  H82      1.0000 0.18240  0.74060  0.14320  Biso   1.000  H
  C183     1.0000 0.41680  0.78180  0.16010  Biso   1.000  C
  C184     1.0000 0.51430  0.82620  0.15130  Biso   1.000  C
  H83      1.0000 0.63230  0.83170  0.16520  Biso   1.000  H
  C185     1.0000 0.43600  0.86400  0.12100  Biso   1.000  C
  H84      1.0000 0.50260  0.89510  0.11520  Biso   1.000  H
  C186     1.0000 0.52100  0.74000  0.19500  Biso   1.000  C
  O33      1.0000 0.66600  0.75270  0.21340  Biso   1.000  O
  O34      1.0000 0.40650  0.70240  0.20320  Biso   1.000  O
  O35      1.0000 0.48700  0.65200  0.73080  Biso   1.000  O
  C187     1.0000 0.35500  0.63630  0.75100  Biso   1.000  C
  N21      1.0000 0.28400  0.57980  0.75480  Biso   1.000  N
  C188     1.0000 0.44500  0.54380  0.75470  Biso   1.000  C
  C189     1.0000 0.08600  0.56500  0.75580  Biso   1.000  C
  Rb8      1.0000 0.99940  0.27153  0.76939  Biso   1.000  Rb
  C190     1.0000 0.76760  0.41180  0.02990  Biso   1.000  C
  C191     1.0000 0.92470  0.38230  0.01690  Biso   1.000  C
  H85      1.0000 0.98610  0.35430  0.03260  Biso   1.000  H
  C192     1.0000 0.96680  0.40340  0.97740  Biso   1.000  C
  H86      1.0000 0.06350  0.39290  0.96080  Biso   1.000  H
  C193     1.0000 0.83190  0.44540  0.96620  Biso   1.000  C
  N22      1.0000 0.70940  0.45030  0.99910  Biso   1.000  N
  C194     1.0000 0.82330  0.47340  0.92641  Biso   1.000  C
  C195     1.0000 0.69320  0.51300  0.91610  Biso   1.000  C
  C196     1.0000 0.68450  0.54360  0.87510  Biso   1.000  C
  H87      1.0000 0.76060  0.53930  0.85190  Biso   1.000  H
  C197     1.0000 0.54640  0.57950  0.87670  Biso   1.000  C
  H88      1.0000 0.50770  0.60460  0.85480  Biso   1.000  H
  C198     1.0000 0.46900  0.57160  0.91910  Biso   1.000  C
  N23      1.0000 0.55910  0.53020  0.94298  Biso   1.000  N
  C199     1.0000 0.68180  0.39920  0.06840  Biso   1.000  C
  C200     1.0000 0.95250  0.45750  0.89250  Biso   1.000  C
  C201     1.0000 0.14150  0.46960  0.89770  Biso   1.000  C
  H89      1.0000 0.19000  0.48910  0.92240  Biso   1.000  H
  C202     1.0000 0.25600  0.45230  0.86590  Biso   1.000  C
  H90      1.0000 0.38200  0.46010  0.86960  Biso   1.000  H
  C203     1.0000 0.18650  0.42360  0.82880  Biso   1.000  C
  C204     1.0000 0.99780  0.41320  0.82280  Biso   1.000  C
  H91      1.0000 0.94950  0.39460  0.79760  Biso   1.000  H
  C205     1.0000 0.88070  0.43040  0.85440  Biso   1.000  C
  H92      1.0000 0.75410  0.42370  0.85010  Biso   1.000  H
  C206     1.0000 0.31070  0.40030  0.79669  Biso   1.000  C
  O36      1.0000 0.48100  0.40910  0.80010  Biso   1.000  O
  O37      1.0000 0.24320  0.36819  0.76623  Biso   1.000  O
  C207     1.0000 0.76250  0.35670  0.09950  Biso   1.000  C
  C208     1.0000 0.66630  0.31030  0.10720  Biso   1.000  C
  H93      1.0000 0.55040  0.30400  0.09240  Biso   1.000  H
  C209     1.0000 0.74580  0.27240  0.13790  Biso   1.000  C
  H94      1.0000 0.68240  0.24060  0.14320  Biso   1.000  H
  C210     1.0000 0.91680  0.28180  0.16010  Biso   1.000  C
  C211     1.0000 0.01430  0.32620  0.15130  Biso   1.000  C
  H95      1.0000 0.13230  0.33170  0.16520  Biso   1.000  H
  C212     1.0000 0.93600  0.36400  0.12100  Biso   1.000  C
  H96      1.0000 0.00260  0.39510  0.11520  Biso   1.000  H
  C213     1.0000 0.02100  0.24000  0.19500  Biso   1.000  C
  O38      1.0000 0.16600  0.25270  0.21340  Biso   1.000  O
  O39      1.0000 0.90650  0.20240  0.20320  Biso   1.000  O
  O40      1.0000 0.98700  0.15200  0.73080  Biso   1.000  O
  C214     1.0000 0.85500  0.13630  0.75100  Biso   1.000  C
  N24      1.0000 0.78400  0.07980  0.75480  Biso   1.000  N
  C215     1.0000 0.94500  0.04380  0.75470  Biso   1.000  C
  C216     1.0000 0.58600  0.06500  0.75580  Biso   1.000  C
  Fe1      1.0000 0.00000  0.15416  0.25000  Biso   1.000  Fe
  Fe2      1.0000 0.50000  0.65416  0.25000  Biso   1.000  Fe
  Fe3      1.0000 0.00000  0.84584  0.75000  Biso   1.000  Fe
  Fe4      1.0000 0.50000  0.34584  0.75000  Biso   1.000  Fe
  Ni1      1.0000 0.00000  0.00000  0.50000  Biso   1.000  Ni
  Ni2      1.0000 0.50000  0.50000  0.50000  Biso   1.000  Ni
  Ni3      1.0000 0.00000  0.00000  0.00000  Biso   1.000  Ni
  Ni4      1.0000 0.50000  0.50000  0.00000  Biso   1.000  Ni
