data_image0
_cell_length_a       7.3599
_cell_length_b       24.7921
_cell_length_c       29.7428
_cell_angle_alpha    90
_cell_angle_beta     94.438
_cell_angle_gamma    90

_symmetry_space_group_name_H-M    "P 1"
_symmetry_int_tables_number       1

loop_
  _symmetry_equiv_pos_as_xyz
  'x, y, z'

loop_
  _atom_site_label
  _atom_site_occupancy
  _atom_site_fract_x
  _atom_site_fract_y
  _atom_site_fract_z
  _atom_site_thermal_displace_type
  _atom_site_B_iso_or_equiv
  _atom_site_type_symbol
  Cs1      1.0000 0.50432  0.76916  0.27118  Biso   1.000  Cs
  C1       1.0000 0.67120  0.05380  0.53435  Biso   1.000  C
  C2       1.0000 0.54010  0.09540  0.52325  Biso   1.000  C
  H1       1.0000 0.44420  0.10540  0.54010  Biso   1.000  H
  N1       1.0000 0.79280  0.04926  0.50128  Biso   1.000  N
  C3       1.0000 0.58170  0.11730  0.48400  Biso   1.000  C
  H2       1.0000 0.52090  0.14540  0.46860  Biso   1.000  H
  C4       1.0000 0.73880  0.08865  0.47040  Biso   1.000  C
  C5       1.0000 0.82200  0.10099  0.43147  Biso   1.000  C
  C6       1.0000 0.97230  0.07251  0.41853  Biso   1.000  C
  C7       1.0000 0.04940  0.08120  0.37586  Biso   1.000  C
  H3       1.0000 0.01200  0.10640  0.35390  Biso   1.000  H
  N2       1.0000 0.05970  0.03103  0.44253  Biso   1.000  N
  C8       1.0000 0.18680  0.04530  0.37435  Biso   1.000  C
  H4       1.0000 0.26280  0.04110  0.35100  Biso   1.000  H
  C9       1.0000 0.19360  0.01468  0.41562  Biso   1.000  C
  C10      1.0000 0.67720  0.02514  0.57401  Biso   1.000  C
  C11      1.0000 0.74350  0.14360  0.40093  Biso   1.000  C
  C12      1.0000 0.83740  0.19090  0.39320  Biso   1.000  C
  H5       1.0000 0.95170  0.19710  0.40790  Biso   1.000  H
  C13      1.0000 0.75760  0.22930  0.36300  Biso   1.000  C
  H6       1.0000 0.81880  0.26130  0.35790  Biso   1.000  H
  C14      1.0000 0.58780  0.21980  0.34050  Biso   1.000  C
  C15      1.0000 0.49470  0.17380  0.34860  Biso   1.000  C
  H7       1.0000 0.37990  0.16790  0.33410  Biso   1.000  H
  C16      1.0000 0.57120  0.13550  0.37860  Biso   1.000  C
  H8       1.0000 0.50690  0.10410  0.38390  Biso   1.000  H
  C17      1.0000 0.47960  0.26010  0.30490  Biso   1.000  C
  O1       1.0000 0.34320  0.24550  0.28630  Biso   1.000  O
  O2       1.0000 0.58810  0.29760  0.29721  Biso   1.000  O
  C18      1.0000 0.54880  0.04010  0.60844  Biso   1.000  C
  C19      1.0000 0.61590  0.06780  0.64696  Biso   1.000  C
  H9       1.0000 0.74020  0.07450  0.65190  Biso   1.000  H
  C20      1.0000 0.49780  0.08550  0.67801  Biso   1.000  C
  H10      1.0000 0.54290  0.10470  0.70340  Biso   1.000  H
  C21      1.0000 0.31310  0.07483  0.67133  Biso   1.000  C
  C22      1.0000 0.24510  0.04526  0.63391  Biso   1.000  C
  H11      1.0000 0.12170  0.03690  0.63000  Biso   1.000  H
  C23      1.0000 0.36310  0.02826  0.60228  Biso   1.000  C
  H12      1.0000 0.31800  0.00900  0.57700  Biso   1.000  H
  C24      1.0000 0.18760  0.09841  0.70273  Biso   1.000  C
  O3       1.0000 0.25200  0.13042  0.73408  Biso   1.000  O
  O4       1.0000 0.01960  0.09047  0.69884  Biso   1.000  O
  O5       1.0000 0.56900  0.64150  0.24190  Biso   1.000  O
  N3       1.0000 0.78900  0.57240  0.24930  Biso   1.000  N
  C25      1.0000 0.61500  0.53870  0.24640  Biso   1.000  C
  C26      1.0000 0.73700  0.62980  0.24750  Biso   1.000  C
  Cs2      1.0000 0.00432  0.26916  0.27118  Biso   1.000  Cs
  C27      1.0000 0.17120  0.55380  0.53435  Biso   1.000  C
  C28      1.0000 0.04010  0.59540  0.52325  Biso   1.000  C
  H13      1.0000 0.94420  0.60540  0.54010  Biso   1.000  H
  N4       1.0000 0.29280  0.54926  0.50128  Biso   1.000  N
  C29      1.0000 0.08170  0.61730  0.48400  Biso   1.000  C
  H14      1.0000 0.02090  0.64540  0.46860  Biso   1.000  H
  C30      1.0000 0.23880  0.58865  0.47040  Biso   1.000  C
  C31      1.0000 0.32200  0.60099  0.43147  Biso   1.000  C
  C32      1.0000 0.47230  0.57251  0.41853  Biso   1.000  C
  C33      1.0000 0.54940  0.58120  0.37586  Biso   1.000  C
  H15      1.0000 0.51200  0.60640  0.35390  Biso   1.000  H
  N5       1.0000 0.55970  0.53103  0.44253  Biso   1.000  N
  C34      1.0000 0.68680  0.54530  0.37435  Biso   1.000  C
  H16      1.0000 0.76280  0.54110  0.35100  Biso   1.000  H
  C35      1.0000 0.69360  0.51468  0.41562  Biso   1.000  C
  C36      1.0000 0.17720  0.52514  0.57401  Biso   1.000  C
  C37      1.0000 0.24350  0.64360  0.40093  Biso   1.000  C
  C38      1.0000 0.33740  0.69090  0.39320  Biso   1.000  C
  H17      1.0000 0.45170  0.69710  0.40790  Biso   1.000  H
  C39      1.0000 0.25760  0.72930  0.36300  Biso   1.000  C
  H18      1.0000 0.31880  0.76130  0.35790  Biso   1.000  H
  C40      1.0000 0.08780  0.71980  0.34050  Biso   1.000  C
  C41      1.0000 0.99470  0.67380  0.34860  Biso   1.000  C
  H19      1.0000 0.87990  0.66790  0.33410  Biso   1.000  H
  C42      1.0000 0.07120  0.63550  0.37860  Biso   1.000  C
  H20      1.0000 0.00690  0.60410  0.38390  Biso   1.000  H
  C43      1.0000 0.97960  0.76010  0.30490  Biso   1.000  C
  O6       1.0000 0.84320  0.74550  0.28630  Biso   1.000  O
  O7       1.0000 0.08810  0.79760  0.29721  Biso   1.000  O
  C44      1.0000 0.04880  0.54010  0.60844  Biso   1.000  C
  C45      1.0000 0.11590  0.56780  0.64696  Biso   1.000  C
  H21      1.0000 0.24020  0.57450  0.65190  Biso   1.000  H
  C46      1.0000 0.99780  0.58550  0.67801  Biso   1.000  C
  H22      1.0000 0.04290  0.60470  0.70340  Biso   1.000  H
  C47      1.0000 0.81310  0.57483  0.67133  Biso   1.000  C
  C48      1.0000 0.74510  0.54526  0.63391  Biso   1.000  C
  H23      1.0000 0.62170  0.53690  0.63000  Biso   1.000  H
  C49      1.0000 0.86310  0.52826  0.60228  Biso   1.000  C
  H24      1.0000 0.81800  0.50900  0.57700  Biso   1.000  H
  C50      1.0000 0.68760  0.59841  0.70273  Biso   1.000  C
  O8       1.0000 0.75200  0.63042  0.73408  Biso   1.000  O
  O9       1.0000 0.51960  0.59047  0.69884  Biso   1.000  O
  O10      1.0000 0.06900  0.14150  0.24190  Biso   1.000  O
  N6       1.0000 0.28900  0.07240  0.24930  Biso   1.000  N
  C51      1.0000 0.11500  0.03870  0.24640  Biso   1.000  C
  C52      1.0000 0.23700  0.12980  0.24750  Biso   1.000  C
  Cs3      1.0000 0.49568  0.76916  0.22882  Biso   1.000  Cs
  C53      1.0000 0.32880  0.05380  0.96565  Biso   1.000  C
  C54      1.0000 0.45990  0.09540  0.97675  Biso   1.000  C
  H25      1.0000 0.55580  0.10540  0.95990  Biso   1.000  H
  N7       1.0000 0.20720  0.04926  0.99872  Biso   1.000  N
  C55      1.0000 0.41830  0.11730  0.01600  Biso   1.000  C
  H26      1.0000 0.47910  0.14540  0.03140  Biso   1.000  H
  C56      1.0000 0.26120  0.08865  0.02960  Biso   1.000  C
  C57      1.0000 0.17800  0.10099  0.06853  Biso   1.000  C
  C58      1.0000 0.02770  0.07251  0.08147  Biso   1.000  C
  C59      1.0000 0.95060  0.08120  0.12414  Biso   1.000  C
  H27      1.0000 0.98800  0.10640  0.14610  Biso   1.000  H
  N8       1.0000 0.94030  0.03103  0.05747  Biso   1.000  N
  C60      1.0000 0.81320  0.04530  0.12565  Biso   1.000  C
  H28      1.0000 0.73720  0.04110  0.14900  Biso   1.000  H
  C61      1.0000 0.80640  0.01468  0.08438  Biso   1.000  C
  C62      1.0000 0.32280  0.02514  0.92599  Biso   1.000  C
  C63      1.0000 0.25650  0.14360  0.09907  Biso   1.000  C
  C64      1.0000 0.16260  0.19090  0.10680  Biso   1.000  C
  H29      1.0000 0.04830  0.19710  0.09210  Biso   1.000  H
  C65      1.0000 0.24240  0.22930  0.13700  Biso   1.000  C
  H30      1.0000 0.18120  0.26130  0.14210  Biso   1.000  H
  C66      1.0000 0.41220  0.21980  0.15950  Biso   1.000  C
  C67      1.0000 0.50530  0.17380  0.15140  Biso   1.000  C
  H31      1.0000 0.62010  0.16790  0.16590  Biso   1.000  H
  C68      1.0000 0.42880  0.13550  0.12140  Biso   1.000  C
  H32      1.0000 0.49310  0.10410  0.11610  Biso   1.000  H
  C69      1.0000 0.52040  0.26010  0.19510  Biso   1.000  C
  O11      1.0000 0.65680  0.24550  0.21370  Biso   1.000  O
  O12      1.0000 0.41190  0.29760  0.20279  Biso   1.000  O
  C70      1.0000 0.45120  0.04010  0.89156  Biso   1.000  C
  C71      1.0000 0.38410  0.06780  0.85304  Biso   1.000  C
  H33      1.0000 0.25980  0.07450  0.84810  Biso   1.000  H
  C72      1.0000 0.50220  0.08550  0.82199  Biso   1.000  C
  H34      1.0000 0.45710  0.10470  0.79660  Biso   1.000  H
  C73      1.0000 0.68690  0.07483  0.82867  Biso   1.000  C
  C74      1.0000 0.75490  0.04526  0.86609  Biso   1.000  C
  H35      1.0000 0.87830  0.03690  0.87000  Biso   1.000  H
  C75      1.0000 0.63690  0.02826  0.89772  Biso   1.000  C
  H36      1.0000 0.68200  0.00900  0.92300  Biso   1.000  H
  C76      1.0000 0.81240  0.09841  0.79727  Biso   1.000  C
  O13      1.0000 0.74800  0.13042  0.76592  Biso   1.000  O
  O14      1.0000 0.98040  0.09047  0.80116  Biso   1.000  O
  O15      1.0000 0.43100  0.64150  0.25810  Biso   1.000  O
  N9       1.0000 0.21100  0.57240  0.25070  Biso   1.000  N
  C77      1.0000 0.38500  0.53870  0.25360  Biso   1.000  C
  C78      1.0000 0.26300  0.62980  0.25250  Biso   1.000  C
  Cs4      1.0000 0.99568  0.26916  0.22882  Biso   1.000  Cs
  C79      1.0000 0.82880  0.55380  0.96565  Biso   1.000  C
  C80      1.0000 0.95990  0.59540  0.97675  Biso   1.000  C
  H37      1.0000 0.05580  0.60540  0.95990  Biso   1.000  H
  N10      1.0000 0.70720  0.54926  0.99872  Biso   1.000  N
  C81      1.0000 0.91830  0.61730  0.01600  Biso   1.000  C
  H38      1.0000 0.97910  0.64540  0.03140  Biso   1.000  H
  C82      1.0000 0.76120  0.58865  0.02960  Biso   1.000  C
  C83      1.0000 0.67800  0.60099  0.06853  Biso   1.000  C
  C84      1.0000 0.52770  0.57251  0.08147  Biso   1.000  C
  C85      1.0000 0.45060  0.58120  0.12414  Biso   1.000  C
  H39      1.0000 0.48800  0.60640  0.14610  Biso   1.000  H
  N11      1.0000 0.44030  0.53103  0.05747  Biso   1.000  N
  C86      1.0000 0.31320  0.54530  0.12565  Biso   1.000  C
  H40      1.0000 0.23720  0.54110  0.14900  Biso   1.000  H
  C87      1.0000 0.30640  0.51468  0.08438  Biso   1.000  C
  C88      1.0000 0.82280  0.52514  0.92599  Biso   1.000  C
  C89      1.0000 0.75650  0.64360  0.09907  Biso   1.000  C
  C90      1.0000 0.66260  0.69090  0.10680  Biso   1.000  C
  H41      1.0000 0.54830  0.69710  0.09210  Biso   1.000  H
  C91      1.0000 0.74240  0.72930  0.13700  Biso   1.000  C
  H42      1.0000 0.68120  0.76130  0.14210  Biso   1.000  H
  C92      1.0000 0.91220  0.71980  0.15950  Biso   1.000  C
  C93      1.0000 0.00530  0.67380  0.15140  Biso   1.000  C
  H43      1.0000 0.12010  0.66790  0.16590  Biso   1.000  H
  C94      1.0000 0.92880  0.63550  0.12140  Biso   1.000  C
  H44      1.0000 0.99310  0.60410  0.11610  Biso   1.000  H
  C95      1.0000 0.02040  0.76010  0.19510  Biso   1.000  C
  O16      1.0000 0.15680  0.74550  0.21370  Biso   1.000  O
  O17      1.0000 0.91190  0.79760  0.20279  Biso   1.000  O
  C96      1.0000 0.95120  0.54010  0.89156  Biso   1.000  C
  C97      1.0000 0.88410  0.56780  0.85304  Biso   1.000  C
  H45      1.0000 0.75980  0.57450  0.84810  Biso   1.000  H
  C98      1.0000 0.00220  0.58550  0.82199  Biso   1.000  C
  H46      1.0000 0.95710  0.60470  0.79660  Biso   1.000  H
  C99      1.0000 0.18690  0.57483  0.82867  Biso   1.000  C
  C100     1.0000 0.25490  0.54526  0.86609  Biso   1.000  C
  H47      1.0000 0.37830  0.53690  0.87000  Biso   1.000  H
  C101     1.0000 0.13690  0.52826  0.89772  Biso   1.000  C
  H48      1.0000 0.18200  0.50900  0.92300  Biso   1.000  H
  C102     1.0000 0.31240  0.59841  0.79727  Biso   1.000  C
  O18      1.0000 0.24800  0.63042  0.76592  Biso   1.000  O
  O19      1.0000 0.48040  0.59047  0.80116  Biso   1.000  O
  O20      1.0000 0.93100  0.14150  0.25810  Biso   1.000  O
  N12      1.0000 0.71100  0.07240  0.25070  Biso   1.000  N
  C103     1.0000 0.88500  0.03870  0.25360  Biso   1.000  C
  C104     1.0000 0.76300  0.12980  0.25250  Biso   1.000  C
  Cs5      1.0000 0.49568  0.23084  0.72882  Biso   1.000  Cs
  C105     1.0000 0.32880  0.94620  0.46565  Biso   1.000  C
  C106     1.0000 0.45990  0.90460  0.47675  Biso   1.000  C
  H49      1.0000 0.55580  0.89460  0.45990  Biso   1.000  H
  N13      1.0000 0.20720  0.95074  0.49872  Biso   1.000  N
  C107     1.0000 0.41830  0.88270  0.51600  Biso   1.000  C
  H50      1.0000 0.47910  0.85460  0.53140  Biso   1.000  H
  C108     1.0000 0.26120  0.91135  0.52960  Biso   1.000  C
  C109     1.0000 0.17800  0.89901  0.56853  Biso   1.000  C
  C110     1.0000 0.02770  0.92749  0.58147  Biso   1.000  C
  C111     1.0000 0.95060  0.91880  0.62414  Biso   1.000  C
  H51      1.0000 0.98800  0.89360  0.64610  Biso   1.000  H
  N14      1.0000 0.94030  0.96897  0.55747  Biso   1.000  N
  C112     1.0000 0.81320  0.95470  0.62565  Biso   1.000  C
  H52      1.0000 0.73720  0.95890  0.64900  Biso   1.000  H
  C113     1.0000 0.80640  0.98532  0.58438  Biso   1.000  C
  C114     1.0000 0.32280  0.97486  0.42599  Biso   1.000  C
  C115     1.0000 0.25650  0.85640  0.59907  Biso   1.000  C
  C116     1.0000 0.16260  0.80910  0.60680  Biso   1.000  C
  H53      1.0000 0.04830  0.80290  0.59210  Biso   1.000  H
  C117     1.0000 0.24240  0.77070  0.63700  Biso   1.000  C
  H54      1.0000 0.18120  0.73870  0.64210  Biso   1.000  H
  C118     1.0000 0.41220  0.78020  0.65950  Biso   1.000  C
  C119     1.0000 0.50530  0.82620  0.65140  Biso   1.000  C
  H55      1.0000 0.62010  0.83210  0.66590  Biso   1.000  H
  C120     1.0000 0.42880  0.86450  0.62140  Biso   1.000  C
  H56      1.0000 0.49310  0.89590  0.61610  Biso   1.000  H
  C121     1.0000 0.52040  0.73990  0.69510  Biso   1.000  C
  O21      1.0000 0.65680  0.75450  0.71370  Biso   1.000  O
  O22      1.0000 0.41190  0.70240  0.70279  Biso   1.000  O
  C122     1.0000 0.45120  0.95990  0.39156  Biso   1.000  C
  C123     1.0000 0.38410  0.93220  0.35304  Biso   1.000  C
  H57      1.0000 0.25980  0.92550  0.34810  Biso   1.000  H
  C124     1.0000 0.50220  0.91450  0.32199  Biso   1.000  C
  H58      1.0000 0.45710  0.89530  0.29660  Biso   1.000  H
  C125     1.0000 0.68690  0.92517  0.32867  Biso   1.000  C
  C126     1.0000 0.75490  0.95474  0.36609  Biso   1.000  C
  H59      1.0000 0.87830  0.96310  0.37000  Biso   1.000  H
  C127     1.0000 0.63690  0.97174  0.39772  Biso   1.000  C
  H60      1.0000 0.68200  0.99100  0.42300  Biso   1.000  H
  C128     1.0000 0.81240  0.90159  0.29727  Biso   1.000  C
  O23      1.0000 0.74800  0.86958  0.26592  Biso   1.000  O
  O24      1.0000 0.98040  0.90953  0.30116  Biso   1.000  O
  O25      1.0000 0.43100  0.35850  0.75810  Biso   1.000  O
  N15      1.0000 0.21100  0.42760  0.75070  Biso   1.000  N
  C129     1.0000 0.38500  0.46130  0.75360  Biso   1.000  C
  C130     1.0000 0.26300  0.37020  0.75250  Biso   1.000  C
  Cs6      1.0000 0.99568  0.73084  0.72882  Biso   1.000  Cs
  C131     1.0000 0.82880  0.44620  0.46565  Biso   1.000  C
  C132     1.0000 0.95990  0.40460  0.47675  Biso   1.000  C
  H61      1.0000 0.05580  0.39460  0.45990  Biso   1.000  H
  N16      1.0000 0.70720  0.45074  0.49872  Biso   1.000  N
  C133     1.0000 0.91830  0.38270  0.51600  Biso   1.000  C
  H62      1.0000 0.97910  0.35460  0.53140  Biso   1.000  H
  C134     1.0000 0.76120  0.41135  0.52960  Biso   1.000  C
  C135     1.0000 0.67800  0.39901  0.56853  Biso   1.000  C
  C136     1.0000 0.52770  0.42749  0.58147  Biso   1.000  C
  C137     1.0000 0.45060  0.41880  0.62414  Biso   1.000  C
  H63      1.0000 0.48800  0.39360  0.64610  Biso   1.000  H
  N17      1.0000 0.44030  0.46897  0.55747  Biso   1.000  N
  C138     1.0000 0.31320  0.45470  0.62565  Biso   1.000  C
  H64      1.0000 0.23720  0.45890  0.64900  Biso   1.000  H
  C139     1.0000 0.30640  0.48532  0.58438  Biso   1.000  C
  C140     1.0000 0.82280  0.47486  0.42599  Biso   1.000  C
  C141     1.0000 0.75650  0.35640  0.59907  Biso   1.000  C
  C142     1.0000 0.66260  0.30910  0.60680  Biso   1.000  C
  H65      1.0000 0.54830  0.30290  0.59210  Biso   1.000  H
  C143     1.0000 0.74240  0.27070  0.63700  Biso   1.000  C
  H66      1.0000 0.68120  0.23870  0.64210  Biso   1.000  H
  C144     1.0000 0.91220  0.28020  0.65950  Biso   1.000  C
  C145     1.0000 0.00530  0.32620  0.65140  Biso   1.000  C
  H67      1.0000 0.12010  0.33210  0.66590  Biso   1.000  H
  C146     1.0000 0.92880  0.36450  0.62140  Biso   1.000  C
  H68      1.0000 0.99310  0.39590  0.61610  Biso   1.000  H
  C147     1.0000 0.02040  0.23990  0.69510  Biso   1.000  C
  O26      1.0000 0.15680  0.25450  0.71370  Biso   1.000  O
  O27      1.0000 0.91190  0.20240  0.70279  Biso   1.000  O
  C148     1.0000 0.95120  0.45990  0.39156  Biso   1.000  C
  C149     1.0000 0.88410  0.43220  0.35304  Biso   1.000  C
  H69      1.0000 0.75980  0.42550  0.34810  Biso   1.000  H
  C150     1.0000 0.00220  0.41450  0.32199  Biso   1.000  C
  H70      1.0000 0.95710  0.39530  0.29660  Biso   1.000  H
  C151     1.0000 0.18690  0.42517  0.32867  Biso   1.000  C
  C152     1.0000 0.25490  0.45474  0.36609  Biso   1.000  C
  H71      1.0000 0.37830  0.46310  0.37000  Biso   1.000  H
  C153     1.0000 0.13690  0.47174  0.39772  Biso   1.000  C
  H72      1.0000 0.18200  0.49100  0.42300  Biso   1.000  H
  C154     1.0000 0.31240  0.40159  0.29727  Biso   1.000  C
  O28      1.0000 0.24800  0.36958  0.26592  Biso   1.000  O
  O29      1.0000 0.48040  0.40953  0.30116  Biso   1.000  O
  O30      1.0000 0.93100  0.85850  0.75810  Biso   1.000  O
  N18      1.0000 0.71100  0.92760  0.75070  Biso   1.000  N
  C155     1.0000 0.88500  0.96130  0.75360  Biso   1.000  C
  C156     1.0000 0.76300  0.87020  0.75250  Biso   1.000  C
  Cs7      1.0000 0.50432  0.23084  0.77118  Biso   1.000  Cs
  C157     1.0000 0.67120  0.94620  0.03435  Biso   1.000  C
  C158     1.0000 0.54010  0.90460  0.02325  Biso   1.000  C
  H73      1.0000 0.44420  0.89460  0.04010  Biso   1.000  H
  N19      1.0000 0.79280  0.95074  0.00128  Biso   1.000  N
  C159     1.0000 0.58170  0.88270  0.98400  Biso   1.000  C
  H74      1.0000 0.52090  0.85460  0.96860  Biso   1.000  H
  C160     1.0000 0.73880  0.91135  0.97040  Biso   1.000  C
  C161     1.0000 0.82200  0.89901  0.93147  Biso   1.000  C
  C162     1.0000 0.97230  0.92749  0.91853  Biso   1.000  C
  C163     1.0000 0.04940  0.91880  0.87586  Biso   1.000  C
  H75      1.0000 0.01200  0.89360  0.85390  Biso   1.000  H
  N20      1.0000 0.05970  0.96897  0.94253  Biso   1.000  N
  C164     1.0000 0.18680  0.95470  0.87435  Biso   1.000  C
  H76      1.0000 0.26280  0.95890  0.85100  Biso   1.000  H
  C165     1.0000 0.19360  0.98532  0.91562  Biso   1.000  C
  C166     1.0000 0.67720  0.97486  0.07401  Biso   1.000  C
  C167     1.0000 0.74350  0.85640  0.90093  Biso   1.000  C
  C168     1.0000 0.83740  0.80910  0.89320  Biso   1.000  C
  H77      1.0000 0.95170  0.80290  0.90790  Biso   1.000  H
  C169     1.0000 0.75760  0.77070  0.86300  Biso   1.000  C
  H78      1.0000 0.81880  0.73870  0.85790  Biso   1.000  H
  C170     1.0000 0.58780  0.78020  0.84050  Biso   1.000  C
  C171     1.0000 0.49470  0.82620  0.84860  Biso   1.000  C
  H79      1.0000 0.37990  0.83210  0.83410  Biso   1.000  H
  C172     1.0000 0.57120  0.86450  0.87860  Biso   1.000  C
  H80      1.0000 0.50690  0.89590  0.88390  Biso   1.000  H
  C173     1.0000 0.47960  0.73990  0.80490  Biso   1.000  C
  O31      1.0000 0.34320  0.75450  0.78630  Biso   1.000  O
  O32      1.0000 0.58810  0.70240  0.79721  Biso   1.000  O
  C174     1.0000 0.54880  0.95990  0.10844  Biso   1.000  C
  C175     1.0000 0.61590  0.93220  0.14696  Biso   1.000  C
  H81      1.0000 0.74020  0.92550  0.15190  Biso   1.000  H
  C176     1.0000 0.49780  0.91450  0.17801  Biso   1.000  C
  H82      1.0000 0.54290  0.89530  0.20340  Biso   1.000  H
  C177     1.0000 0.31310  0.92517  0.17133  Biso   1.000  C
  C178     1.0000 0.24510  0.95474  0.13391  Biso   1.000  C
  H83      1.0000 0.12170  0.96310  0.13000  Biso   1.000  H
  C179     1.0000 0.36310  0.97174  0.10228  Biso   1.000  C
  H84      1.0000 0.31800  0.99100  0.07700  Biso   1.000  H
  C180     1.0000 0.18760  0.90159  0.20273  Biso   1.000  C
  O33      1.0000 0.25200  0.86958  0.23408  Biso   1.000  O
  O34      1.0000 0.01960  0.90953  0.19884  Biso   1.000  O
  O35      1.0000 0.56900  0.35850  0.74190  Biso   1.000  O
  N21      1.0000 0.78900  0.42760  0.74930  Biso   1.000  N
  C181     1.0000 0.61500  0.46130  0.74640  Biso   1.000  C
  C182     1.0000 0.73700  0.37020  0.74750  Biso   1.000  C
  Cs8      1.0000 0.00432  0.73084  0.77118  Biso   1.000  Cs
  C183     1.0000 0.17120  0.44620  0.03435  Biso   1.000  C
  C184     1.0000 0.04010  0.40460  0.02325  Biso   1.000  C
  H85      1.0000 0.94420  0.39460  0.04010  Biso   1.000  H
  N22      1.0000 0.29280  0.45074  0.00128  Biso   1.000  N
  C185     1.0000 0.08170  0.38270  0.98400  Biso   1.000  C
  H86      1.0000 0.02090  0.35460  0.96860  Biso   1.000  H
  C186     1.0000 0.23880  0.41135  0.97040  Biso   1.000  C
  C187     1.0000 0.32200  0.39901  0.93147  Biso   1.000  C
  C188     1.0000 0.47230  0.42749  0.91853  Biso   1.000  C
  C189     1.0000 0.54940  0.41880  0.87586  Biso   1.000  C
  H87      1.0000 0.51200  0.39360  0.85390  Biso   1.000  H
  N23      1.0000 0.55970  0.46897  0.94253  Biso   1.000  N
  C190     1.0000 0.68680  0.45470  0.87435  Biso   1.000  C
  H88      1.0000 0.76280  0.45890  0.85100  Biso   1.000  H
  C191     1.0000 0.69360  0.48532  0.91562  Biso   1.000  C
  C192     1.0000 0.17720  0.47486  0.07401  Biso   1.000  C
  C193     1.0000 0.24350  0.35640  0.90093  Biso   1.000  C
  C194     1.0000 0.33740  0.30910  0.89320  Biso   1.000  C
  H89      1.0000 0.45170  0.30290  0.90790  Biso   1.000  H
  C195     1.0000 0.25760  0.27070  0.86300  Biso   1.000  C
  H90      1.0000 0.31880  0.23870  0.85790  Biso   1.000  H
  C196     1.0000 0.08780  0.28020  0.84050  Biso   1.000  C
  C197     1.0000 0.99470  0.32620  0.84860  Biso   1.000  C
  H91      1.0000 0.87990  0.33210  0.83410  Biso   1.000  H
  C198     1.0000 0.07120  0.36450  0.87860  Biso   1.000  C
  H92      1.0000 0.00690  0.39590  0.88390  Biso   1.000  H
  C199     1.0000 0.97960  0.23990  0.80490  Biso   1.000  C
  O36      1.0000 0.84320  0.25450  0.78630  Biso   1.000  O
  O37      1.0000 0.08810  0.20240  0.79721  Biso   1.000  O
  C200     1.0000 0.04880  0.45990  0.10844  Biso   1.000  C
  C201     1.0000 0.11590  0.43220  0.14696  Biso   1.000  C
  H93      1.0000 0.24020  0.42550  0.15190  Biso   1.000  H
  C202     1.0000 0.99780  0.41450  0.17801  Biso   1.000  C
  H94      1.0000 0.04290  0.39530  0.20340  Biso   1.000  H
  C203     1.0000 0.81310  0.42517  0.17133  Biso   1.000  C
  C204     1.0000 0.74510  0.45474  0.13391  Biso   1.000  C
  H95      1.0000 0.62170  0.46310  0.13000  Biso   1.000  H
  C205     1.0000 0.86310  0.47174  0.10228  Biso   1.000  C
  H96      1.0000 0.81800  0.49100  0.07700  Biso   1.000  H
  C206     1.0000 0.68760  0.40159  0.20273  Biso   1.000  C
  O38      1.0000 0.75200  0.36958  0.23408  Biso   1.000  O
  O39      1.0000 0.51960  0.40953  0.19884  Biso   1.000  O
  O40      1.0000 0.06900  0.85850  0.74190  Biso   1.000  O
  N24      1.0000 0.28900  0.92760  0.74930  Biso   1.000  N
  C207     1.0000 0.11500  0.96130  0.74640  Biso   1.000  C
  C208     1.0000 0.23700  0.87020  0.74750  Biso   1.000  C
  Ni1      1.0000 0.00000  0.00000  0.50000  Biso   1.000  Ni
  Ni2      1.0000 0.50000  0.50000  0.50000  Biso   1.000  Ni
  Ni3      1.0000 0.00000  0.00000  0.00000  Biso   1.000  Ni
  Ni4      1.0000 0.50000  0.50000  0.00000  Biso   1.000  Ni
  Fe1      1.0000 0.00000  0.84657  0.25000  Biso   1.000  Fe
  C209     1.0000 0.00000  0.56420  0.25000  Biso   1.000  C
  Fe2      1.0000 0.50000  0.34657  0.25000  Biso   1.000  Fe
  C210     1.0000 0.50000  0.06420  0.25000  Biso   1.000  C
  Fe3      1.0000 0.00000  0.15343  0.75000  Biso   1.000  Fe
  C211     1.0000 0.00000  0.43580  0.75000  Biso   1.000  C
  Fe4      1.0000 0.50000  0.65343  0.75000  Biso   1.000  Fe
  C212     1.0000 0.50000  0.93580  0.75000  Biso   1.000  C
