data_image0
_cell_length_a       19.5615
_cell_length_b       19.5615
_cell_length_c       24.304
_cell_angle_alpha    90
_cell_angle_beta     90
_cell_angle_gamma    90

_symmetry_space_group_name_H-M    "P 1"
_symmetry_int_tables_number       1

loop_
  _symmetry_equiv_pos_as_xyz
  'x, y, z'

loop_
  _atom_site_label
  _atom_site_occupancy
  _atom_site_fract_x
  _atom_site_fract_y
  _atom_site_fract_z
  _atom_site_thermal_displace_type
  _atom_site_B_iso_or_equiv
  _atom_site_type_symbol
  O1       1.0000 0.06240  0.53900  0.28800  Biso   1.000  O
  O2       1.0000 0.00530  0.60070  0.22960  Biso   1.000  O
  O3       1.0000 0.15860  0.77800  0.45200  Biso   1.000  O
  O4       1.0000 0.19150  0.67250  0.43570  Biso   1.000  O
  O5       1.0000 0.00670  0.89580  0.33010  Biso   1.000  O
  O6       1.0000 0.94990  0.84210  0.26180  Biso   1.000  O
  O7       1.0000 0.15750  0.30420  0.31250  Biso   1.000  O
  C1       1.0000 0.03700  0.59560  0.27400  Biso   1.000  C
  C2       1.0000 0.15420  0.72240  0.42640  Biso   1.000  C
  C3       1.0000 0.98790  0.84100  0.30220  Biso   1.000  C
  C4       1.0000 0.04690  0.65850  0.30690  Biso   1.000  C
  C5       1.0000 0.01350  0.71750  0.29100  Biso   1.000  C
  H1       1.0000 0.98520  0.71780  0.26030  Biso   1.000  H
  C6       1.0000 0.02340  0.77710  0.32210  Biso   1.000  C
  C7       1.0000 0.06740  0.77780  0.36430  Biso   1.000  C
  H2       1.0000 0.07490  0.81810  0.38380  Biso   1.000  H
  C8       1.0000 0.10210  0.71800  0.37920  Biso   1.000  C
  C9       1.0000 0.09150  0.65870  0.35160  Biso   1.000  C
  H3       1.0000 0.11380  0.61880  0.36220  Biso   1.000  H
  C10      1.0000 0.16200  0.27650  0.26660  Biso   1.000  C
  H4       1.0000 0.16560  0.30590  0.23510  Biso   1.000  H
  N1       1.0000 0.16690  0.20160  0.26880  Biso   1.000  N
  H5       1.0000 0.16980  0.12360  0.21430  Biso   1.000  H
  H6       1.0000 0.13630  0.19080  0.19150  Biso   1.000  H
  H7       1.0000 0.21590  0.18680  0.19980  Biso   1.000  H
  H8       1.0000 0.16110  0.10930  0.30930  Biso   1.000  H
  H9       1.0000 0.20010  0.16510  0.34360  Biso   1.000  H
  H10      1.0000 0.12030  0.16910  0.33730  Biso   1.000  H
  O8       1.0000 0.03970  0.48620  0.40830  Biso   1.000  O
  H11      1.0000 0.00560  0.51230  0.40230  Biso   1.000  H
  H12      1.0000 0.04910  0.47360  0.44100  Biso   1.000  H
  O9       1.0000 0.43760  0.96100  0.28800  Biso   1.000  O
  O10      1.0000 0.49470  0.89930  0.22960  Biso   1.000  O
  O11      1.0000 0.34140  0.72200  0.45200  Biso   1.000  O
  O12      1.0000 0.30850  0.82750  0.43570  Biso   1.000  O
  O13      1.0000 0.49330  0.60420  0.33010  Biso   1.000  O
  O14      1.0000 0.55010  0.65790  0.26180  Biso   1.000  O
  O15      1.0000 0.34250  0.19580  0.31250  Biso   1.000  O
  C11      1.0000 0.46300  0.90440  0.27400  Biso   1.000  C
  C12      1.0000 0.34580  0.77760  0.42640  Biso   1.000  C
  C13      1.0000 0.51210  0.65900  0.30220  Biso   1.000  C
  C14      1.0000 0.45310  0.84150  0.30690  Biso   1.000  C
  C15      1.0000 0.48650  0.78250  0.29100  Biso   1.000  C
  H13      1.0000 0.51480  0.78220  0.26030  Biso   1.000  H
  C16      1.0000 0.47660  0.72290  0.32210  Biso   1.000  C
  C17      1.0000 0.43260  0.72220  0.36430  Biso   1.000  C
  H14      1.0000 0.42510  0.68190  0.38380  Biso   1.000  H
  C18      1.0000 0.39790  0.78200  0.37920  Biso   1.000  C
  C19      1.0000 0.40850  0.84130  0.35160  Biso   1.000  C
  H15      1.0000 0.38620  0.88120  0.36220  Biso   1.000  H
  C20      1.0000 0.33800  0.22350  0.26660  Biso   1.000  C
  H16      1.0000 0.33440  0.19410  0.23510  Biso   1.000  H
  N2       1.0000 0.33310  0.29840  0.26880  Biso   1.000  N
  H17      1.0000 0.33020  0.37640  0.21430  Biso   1.000  H
  H18      1.0000 0.36370  0.30920  0.19150  Biso   1.000  H
  H19      1.0000 0.28410  0.31320  0.19980  Biso   1.000  H
  H20      1.0000 0.33890  0.39070  0.30930  Biso   1.000  H
  H21      1.0000 0.29990  0.33490  0.34360  Biso   1.000  H
  H22      1.0000 0.37970  0.33090  0.33730  Biso   1.000  H
  O16      1.0000 0.46030  0.01380  0.40830  Biso   1.000  O
  H23      1.0000 0.49440  0.98770  0.40230  Biso   1.000  H
  H24      1.0000 0.45090  0.02640  0.44100  Biso   1.000  H
  O17      1.0000 0.96100  0.06240  0.78800  Biso   1.000  O
  O18      1.0000 0.89930  0.00530  0.72960  Biso   1.000  O
  O19      1.0000 0.72200  0.15860  0.95200  Biso   1.000  O
  O20      1.0000 0.82750  0.19150  0.93570  Biso   1.000  O
  O21      1.0000 0.60420  0.00670  0.83010  Biso   1.000  O
  O22      1.0000 0.65790  0.94990  0.76180  Biso   1.000  O
  O23      1.0000 0.19580  0.15750  0.81250  Biso   1.000  O
  C21      1.0000 0.90440  0.03700  0.77400  Biso   1.000  C
  C22      1.0000 0.77760  0.15420  0.92640  Biso   1.000  C
  C23      1.0000 0.65900  0.98790  0.80220  Biso   1.000  C
  C24      1.0000 0.84150  0.04690  0.80690  Biso   1.000  C
  C25      1.0000 0.78250  0.01350  0.79100  Biso   1.000  C
  H25      1.0000 0.78220  0.98520  0.76030  Biso   1.000  H
  C26      1.0000 0.72290  0.02340  0.82210  Biso   1.000  C
  C27      1.0000 0.72220  0.06740  0.86430  Biso   1.000  C
  H26      1.0000 0.68190  0.07490  0.88380  Biso   1.000  H
  C28      1.0000 0.78200  0.10210  0.87920  Biso   1.000  C
  C29      1.0000 0.84130  0.09150  0.85160  Biso   1.000  C
  H27      1.0000 0.88120  0.11380  0.86220  Biso   1.000  H
  C30      1.0000 0.22350  0.16200  0.76660  Biso   1.000  C
  H28      1.0000 0.19410  0.16560  0.73510  Biso   1.000  H
  N3       1.0000 0.29840  0.16690  0.76880  Biso   1.000  N
  H29      1.0000 0.37640  0.16980  0.71430  Biso   1.000  H
  H30      1.0000 0.30920  0.13630  0.69150  Biso   1.000  H
  H31      1.0000 0.31320  0.21590  0.69980  Biso   1.000  H
  H32      1.0000 0.39070  0.16110  0.80930  Biso   1.000  H
  H33      1.0000 0.33490  0.20010  0.84360  Biso   1.000  H
  H34      1.0000 0.33090  0.12030  0.83730  Biso   1.000  H
  O24      1.0000 0.01380  0.03970  0.90830  Biso   1.000  O
  H35      1.0000 0.98770  0.00560  0.90230  Biso   1.000  H
  H36      1.0000 0.02640  0.04910  0.94100  Biso   1.000  H
  O25      1.0000 0.53900  0.43760  0.78800  Biso   1.000  O
  O26      1.0000 0.60070  0.49470  0.72960  Biso   1.000  O
  O27      1.0000 0.77800  0.34140  0.95200  Biso   1.000  O
  O28      1.0000 0.67250  0.30850  0.93570  Biso   1.000  O
  O29      1.0000 0.89580  0.49330  0.83010  Biso   1.000  O
  O30      1.0000 0.84210  0.55010  0.76180  Biso   1.000  O
  O31      1.0000 0.30420  0.34250  0.81250  Biso   1.000  O
  C31      1.0000 0.59560  0.46300  0.77400  Biso   1.000  C
  C32      1.0000 0.72240  0.34580  0.92640  Biso   1.000  C
  C33      1.0000 0.84100  0.51210  0.80220  Biso   1.000  C
  C34      1.0000 0.65850  0.45310  0.80690  Biso   1.000  C
  C35      1.0000 0.71750  0.48650  0.79100  Biso   1.000  C
  H37      1.0000 0.71780  0.51480  0.76030  Biso   1.000  H
  C36      1.0000 0.77710  0.47660  0.82210  Biso   1.000  C
  C37      1.0000 0.77780  0.43260  0.86430  Biso   1.000  C
  H38      1.0000 0.81810  0.42510  0.88380  Biso   1.000  H
  C38      1.0000 0.71800  0.39790  0.87920  Biso   1.000  C
  C39      1.0000 0.65870  0.40850  0.85160  Biso   1.000  C
  H39      1.0000 0.61880  0.38620  0.86220  Biso   1.000  H
  C40      1.0000 0.27650  0.33800  0.76660  Biso   1.000  C
  H40      1.0000 0.30590  0.33440  0.73510  Biso   1.000  H
  N4       1.0000 0.20160  0.33310  0.76880  Biso   1.000  N
  H41      1.0000 0.12360  0.33020  0.71430  Biso   1.000  H
  H42      1.0000 0.19080  0.36370  0.69150  Biso   1.000  H
  H43      1.0000 0.18680  0.28410  0.69980  Biso   1.000  H
  H44      1.0000 0.10930  0.33890  0.80930  Biso   1.000  H
  H45      1.0000 0.16510  0.29990  0.84360  Biso   1.000  H
  H46      1.0000 0.16910  0.37970  0.83730  Biso   1.000  H
  O32      1.0000 0.48620  0.46030  0.90830  Biso   1.000  O
  H47      1.0000 0.51230  0.49440  0.90230  Biso   1.000  H
  H48      1.0000 0.47360  0.45090  0.94100  Biso   1.000  H
  O33      1.0000 0.93760  0.03900  0.21200  Biso   1.000  O
  O34      1.0000 0.99470  0.10070  0.27040  Biso   1.000  O
  O35      1.0000 0.84140  0.27800  0.04800  Biso   1.000  O
  O36      1.0000 0.80850  0.17250  0.06430  Biso   1.000  O
  O37      1.0000 0.99330  0.39580  0.16990  Biso   1.000  O
  O38      1.0000 0.05010  0.34210  0.23820  Biso   1.000  O
  O39      1.0000 0.84250  0.80420  0.18750  Biso   1.000  O
  C41      1.0000 0.96300  0.09560  0.22600  Biso   1.000  C
  C42      1.0000 0.84580  0.22240  0.07360  Biso   1.000  C
  C43      1.0000 0.01210  0.34100  0.19780  Biso   1.000  C
  C44      1.0000 0.95310  0.15850  0.19310  Biso   1.000  C
  C45      1.0000 0.98650  0.21750  0.20900  Biso   1.000  C
  H49      1.0000 0.01480  0.21780  0.23970  Biso   1.000  H
  C46      1.0000 0.97660  0.27710  0.17790  Biso   1.000  C
  C47      1.0000 0.93260  0.27780  0.13570  Biso   1.000  C
  H50      1.0000 0.92510  0.31810  0.11620  Biso   1.000  H
  C48      1.0000 0.89790  0.21800  0.12080  Biso   1.000  C
  C49      1.0000 0.90850  0.15870  0.14840  Biso   1.000  C
  H51      1.0000 0.88620  0.11880  0.13780  Biso   1.000  H
  C50      1.0000 0.83800  0.77650  0.23340  Biso   1.000  C
  H52      1.0000 0.83440  0.80590  0.26490  Biso   1.000  H
  N5       1.0000 0.83310  0.70160  0.23120  Biso   1.000  N
  H53      1.0000 0.83020  0.62360  0.28570  Biso   1.000  H
  H54      1.0000 0.86370  0.69080  0.30850  Biso   1.000  H
  H55      1.0000 0.78410  0.68680  0.30020  Biso   1.000  H
  H56      1.0000 0.83890  0.60930  0.19070  Biso   1.000  H
  H57      1.0000 0.79990  0.66510  0.15640  Biso   1.000  H
  H58      1.0000 0.87970  0.66910  0.16270  Biso   1.000  H
  O40      1.0000 0.96030  0.98620  0.09170  Biso   1.000  O
  H59      1.0000 0.99440  0.01230  0.09770  Biso   1.000  H
  H60      1.0000 0.95090  0.97360  0.05900  Biso   1.000  H
  O41      1.0000 0.56240  0.46100  0.21200  Biso   1.000  O
  O42      1.0000 0.50530  0.39930  0.27040  Biso   1.000  O
  O43      1.0000 0.65860  0.22200  0.04800  Biso   1.000  O
  O44      1.0000 0.69150  0.32750  0.06430  Biso   1.000  O
  O45      1.0000 0.50670  0.10420  0.16990  Biso   1.000  O
  O46      1.0000 0.44990  0.15790  0.23820  Biso   1.000  O
  O47      1.0000 0.65750  0.69580  0.18750  Biso   1.000  O
  C51      1.0000 0.53700  0.40440  0.22600  Biso   1.000  C
  C52      1.0000 0.65420  0.27760  0.07360  Biso   1.000  C
  C53      1.0000 0.48790  0.15900  0.19780  Biso   1.000  C
  C54      1.0000 0.54690  0.34150  0.19310  Biso   1.000  C
  C55      1.0000 0.51350  0.28250  0.20900  Biso   1.000  C
  H61      1.0000 0.48520  0.28220  0.23970  Biso   1.000  H
  C56      1.0000 0.52340  0.22290  0.17790  Biso   1.000  C
  C57      1.0000 0.56740  0.22220  0.13570  Biso   1.000  C
  H62      1.0000 0.57490  0.18190  0.11620  Biso   1.000  H
  C58      1.0000 0.60210  0.28200  0.12080  Biso   1.000  C
  C59      1.0000 0.59150  0.34130  0.14840  Biso   1.000  C
  H63      1.0000 0.61380  0.38120  0.13780  Biso   1.000  H
  C60      1.0000 0.66200  0.72350  0.23340  Biso   1.000  C
  H64      1.0000 0.66560  0.69410  0.26490  Biso   1.000  H
  N6       1.0000 0.66690  0.79840  0.23120  Biso   1.000  N
  H65      1.0000 0.66980  0.87640  0.28570  Biso   1.000  H
  H66      1.0000 0.63630  0.80920  0.30850  Biso   1.000  H
  H67      1.0000 0.71590  0.81320  0.30020  Biso   1.000  H
  H68      1.0000 0.66110  0.89070  0.19070  Biso   1.000  H
  H69      1.0000 0.70010  0.83490  0.15640  Biso   1.000  H
  H70      1.0000 0.62030  0.83090  0.16270  Biso   1.000  H
  O48      1.0000 0.53970  0.51380  0.09170  Biso   1.000  O
  H71      1.0000 0.50560  0.48770  0.09770  Biso   1.000  H
  H72      1.0000 0.54910  0.52640  0.05900  Biso   1.000  H
  O49      1.0000 0.03900  0.56240  0.71200  Biso   1.000  O
  O50      1.0000 0.10070  0.50530  0.77040  Biso   1.000  O
  O51      1.0000 0.27800  0.65860  0.54800  Biso   1.000  O
  O52      1.0000 0.17250  0.69150  0.56430  Biso   1.000  O
  O53      1.0000 0.39580  0.50670  0.66990  Biso   1.000  O
  O54      1.0000 0.34210  0.44990  0.73820  Biso   1.000  O
  O55      1.0000 0.80420  0.65750  0.68750  Biso   1.000  O
  C61      1.0000 0.09560  0.53700  0.72600  Biso   1.000  C
  C62      1.0000 0.22240  0.65420  0.57360  Biso   1.000  C
  C63      1.0000 0.34100  0.48790  0.69780  Biso   1.000  C
  C64      1.0000 0.15850  0.54690  0.69310  Biso   1.000  C
  C65      1.0000 0.21750  0.51350  0.70900  Biso   1.000  C
  H73      1.0000 0.21780  0.48520  0.73970  Biso   1.000  H
  C66      1.0000 0.27710  0.52340  0.67790  Biso   1.000  C
  C67      1.0000 0.27780  0.56740  0.63570  Biso   1.000  C
  H74      1.0000 0.31810  0.57490  0.61620  Biso   1.000  H
  C68      1.0000 0.21800  0.60210  0.62080  Biso   1.000  C
  C69      1.0000 0.15870  0.59150  0.64840  Biso   1.000  C
  H75      1.0000 0.11880  0.61380  0.63780  Biso   1.000  H
  C70      1.0000 0.77650  0.66200  0.73340  Biso   1.000  C
  H76      1.0000 0.80590  0.66560  0.76490  Biso   1.000  H
  N7       1.0000 0.70160  0.66690  0.73120  Biso   1.000  N
  H77      1.0000 0.62360  0.66980  0.78570  Biso   1.000  H
  H78      1.0000 0.69080  0.63630  0.80850  Biso   1.000  H
  H79      1.0000 0.68680  0.71590  0.80020  Biso   1.000  H
  H80      1.0000 0.60930  0.66110  0.69070  Biso   1.000  H
  H81      1.0000 0.66510  0.70010  0.65640  Biso   1.000  H
  H82      1.0000 0.66910  0.62030  0.66270  Biso   1.000  H
  O56      1.0000 0.98620  0.53970  0.59170  Biso   1.000  O
  H83      1.0000 0.01230  0.50560  0.59770  Biso   1.000  H
  H84      1.0000 0.97360  0.54910  0.55900  Biso   1.000  H
  O57      1.0000 0.46100  0.93760  0.71200  Biso   1.000  O
  O58      1.0000 0.39930  0.99470  0.77040  Biso   1.000  O
  O59      1.0000 0.22200  0.84140  0.54800  Biso   1.000  O
  O60      1.0000 0.32750  0.80850  0.56430  Biso   1.000  O
  O61      1.0000 0.10420  0.99330  0.66990  Biso   1.000  O
  O62      1.0000 0.15790  0.05010  0.73820  Biso   1.000  O
  O63      1.0000 0.69580  0.84250  0.68750  Biso   1.000  O
  C71      1.0000 0.40440  0.96300  0.72600  Biso   1.000  C
  C72      1.0000 0.27760  0.84580  0.57360  Biso   1.000  C
  C73      1.0000 0.15900  0.01210  0.69780  Biso   1.000  C
  C74      1.0000 0.34150  0.95310  0.69310  Biso   1.000  C
  C75      1.0000 0.28250  0.98650  0.70900  Biso   1.000  C
  H85      1.0000 0.28220  0.01480  0.73970  Biso   1.000  H
  C76      1.0000 0.22290  0.97660  0.67790  Biso   1.000  C
  C77      1.0000 0.22220  0.93260  0.63570  Biso   1.000  C
  H86      1.0000 0.18190  0.92510  0.61620  Biso   1.000  H
  C78      1.0000 0.28200  0.89790  0.62080  Biso   1.000  C
  C79      1.0000 0.34130  0.90850  0.64840  Biso   1.000  C
  H87      1.0000 0.38120  0.88620  0.63780  Biso   1.000  H
  C80      1.0000 0.72350  0.83800  0.73340  Biso   1.000  C
  H88      1.0000 0.69410  0.83440  0.76490  Biso   1.000  H
  N8       1.0000 0.79840  0.83310  0.73120  Biso   1.000  N
  H89      1.0000 0.87640  0.83020  0.78570  Biso   1.000  H
  H90      1.0000 0.80920  0.86370  0.80850  Biso   1.000  H
  H91      1.0000 0.81320  0.78410  0.80020  Biso   1.000  H
  H92      1.0000 0.89070  0.83890  0.69070  Biso   1.000  H
  H93      1.0000 0.83490  0.79990  0.65640  Biso   1.000  H
  H94      1.0000 0.83090  0.87970  0.66270  Biso   1.000  H
  O64      1.0000 0.51380  0.96030  0.59170  Biso   1.000  O
  H95      1.0000 0.48770  0.99440  0.59770  Biso   1.000  H
  H96      1.0000 0.52640  0.95090  0.55900  Biso   1.000  H
  O65      1.0000 0.93760  0.46100  0.71200  Biso   1.000  O
  O66      1.0000 0.99470  0.39930  0.77040  Biso   1.000  O
  O67      1.0000 0.84140  0.22200  0.54800  Biso   1.000  O
  O68      1.0000 0.80850  0.32750  0.56430  Biso   1.000  O
  O69      1.0000 0.99330  0.10420  0.66990  Biso   1.000  O
  O70      1.0000 0.05010  0.15790  0.73820  Biso   1.000  O
  O71      1.0000 0.84250  0.69580  0.68750  Biso   1.000  O
  C81      1.0000 0.96300  0.40440  0.72600  Biso   1.000  C
  C82      1.0000 0.84580  0.27760  0.57360  Biso   1.000  C
  C83      1.0000 0.01210  0.15900  0.69780  Biso   1.000  C
  C84      1.0000 0.95310  0.34150  0.69310  Biso   1.000  C
  C85      1.0000 0.98650  0.28250  0.70900  Biso   1.000  C
  H97      1.0000 0.01480  0.28220  0.73970  Biso   1.000  H
  C86      1.0000 0.97660  0.22290  0.67790  Biso   1.000  C
  C87      1.0000 0.93260  0.22220  0.63570  Biso   1.000  C
  H98      1.0000 0.92510  0.18190  0.61620  Biso   1.000  H
  C88      1.0000 0.89790  0.28200  0.62080  Biso   1.000  C
  C89      1.0000 0.90850  0.34130  0.64840  Biso   1.000  C
  H99      1.0000 0.88620  0.38120  0.63780  Biso   1.000  H
  C90      1.0000 0.83800  0.72350  0.73340  Biso   1.000  C
  H100     1.0000 0.83440  0.69410  0.76490  Biso   1.000  H
  N9       1.0000 0.83310  0.79840  0.73120  Biso   1.000  N
  H101     1.0000 0.83020  0.87640  0.78570  Biso   1.000  H
  H102     1.0000 0.86370  0.80920  0.80850  Biso   1.000  H
  H103     1.0000 0.78410  0.81320  0.80020  Biso   1.000  H
  H104     1.0000 0.83890  0.89070  0.69070  Biso   1.000  H
  H105     1.0000 0.79990  0.83490  0.65640  Biso   1.000  H
  H106     1.0000 0.87970  0.83090  0.66270  Biso   1.000  H
  O72      1.0000 0.96030  0.51380  0.59170  Biso   1.000  O
  H107     1.0000 0.99440  0.48770  0.59770  Biso   1.000  H
  H108     1.0000 0.95090  0.52640  0.55900  Biso   1.000  H
  O73      1.0000 0.56240  0.03900  0.71200  Biso   1.000  O
  O74      1.0000 0.50530  0.10070  0.77040  Biso   1.000  O
  O75      1.0000 0.65860  0.27800  0.54800  Biso   1.000  O
  O76      1.0000 0.69150  0.17250  0.56430  Biso   1.000  O
  O77      1.0000 0.50670  0.39580  0.66990  Biso   1.000  O
  O78      1.0000 0.44990  0.34210  0.73820  Biso   1.000  O
  O79      1.0000 0.65750  0.80420  0.68750  Biso   1.000  O
  C91      1.0000 0.53700  0.09560  0.72600  Biso   1.000  C
  C92      1.0000 0.65420  0.22240  0.57360  Biso   1.000  C
  C93      1.0000 0.48790  0.34100  0.69780  Biso   1.000  C
  C94      1.0000 0.54690  0.15850  0.69310  Biso   1.000  C
  C95      1.0000 0.51350  0.21750  0.70900  Biso   1.000  C
  H109     1.0000 0.48520  0.21780  0.73970  Biso   1.000  H
  C96      1.0000 0.52340  0.27710  0.67790  Biso   1.000  C
  C97      1.0000 0.56740  0.27780  0.63570  Biso   1.000  C
  H110     1.0000 0.57490  0.31810  0.61620  Biso   1.000  H
  C98      1.0000 0.60210  0.21800  0.62080  Biso   1.000  C
  C99      1.0000 0.59150  0.15870  0.64840  Biso   1.000  C
  H111     1.0000 0.61380  0.11880  0.63780  Biso   1.000  H
  C100     1.0000 0.66200  0.77650  0.73340  Biso   1.000  C
  H112     1.0000 0.66560  0.80590  0.76490  Biso   1.000  H
  N10      1.0000 0.66690  0.70160  0.73120  Biso   1.000  N
  H113     1.0000 0.66980  0.62360  0.78570  Biso   1.000  H
  H114     1.0000 0.63630  0.69080  0.80850  Biso   1.000  H
  H115     1.0000 0.71590  0.68680  0.80020  Biso   1.000  H
  H116     1.0000 0.66110  0.60930  0.69070  Biso   1.000  H
  H117     1.0000 0.70010  0.66510  0.65640  Biso   1.000  H
  H118     1.0000 0.62030  0.66910  0.66270  Biso   1.000  H
  O80      1.0000 0.53970  0.98620  0.59170  Biso   1.000  O
  H119     1.0000 0.50560  0.01230  0.59770  Biso   1.000  H
  H120     1.0000 0.54910  0.97360  0.55900  Biso   1.000  H
  O81      1.0000 0.03900  0.93760  0.21200  Biso   1.000  O
  O82      1.0000 0.10070  0.99470  0.27040  Biso   1.000  O
  O83      1.0000 0.27800  0.84140  0.04800  Biso   1.000  O
  O84      1.0000 0.17250  0.80850  0.06430  Biso   1.000  O
  O85      1.0000 0.39580  0.99330  0.16990  Biso   1.000  O
  O86      1.0000 0.34210  0.05010  0.23820  Biso   1.000  O
  O87      1.0000 0.80420  0.84250  0.18750  Biso   1.000  O
  C101     1.0000 0.09560  0.96300  0.22600  Biso   1.000  C
  C102     1.0000 0.22240  0.84580  0.07360  Biso   1.000  C
  C103     1.0000 0.34100  0.01210  0.19780  Biso   1.000  C
  C104     1.0000 0.15850  0.95310  0.19310  Biso   1.000  C
  C105     1.0000 0.21750  0.98650  0.20900  Biso   1.000  C
  H121     1.0000 0.21780  0.01480  0.23970  Biso   1.000  H
  C106     1.0000 0.27710  0.97660  0.17790  Biso   1.000  C
  C107     1.0000 0.27780  0.93260  0.13570  Biso   1.000  C
  H122     1.0000 0.31810  0.92510  0.11620  Biso   1.000  H
  C108     1.0000 0.21800  0.89790  0.12080  Biso   1.000  C
  C109     1.0000 0.15870  0.90850  0.14840  Biso   1.000  C
  H123     1.0000 0.11880  0.88620  0.13780  Biso   1.000  H
  C110     1.0000 0.77650  0.83800  0.23340  Biso   1.000  C
  H124     1.0000 0.80590  0.83440  0.26490  Biso   1.000  H
  N11      1.0000 0.70160  0.83310  0.23120  Biso   1.000  N
  H125     1.0000 0.62360  0.83020  0.28570  Biso   1.000  H
  H126     1.0000 0.69080  0.86370  0.30850  Biso   1.000  H
  H127     1.0000 0.68680  0.78410  0.30020  Biso   1.000  H
  H128     1.0000 0.60930  0.83890  0.19070  Biso   1.000  H
  H129     1.0000 0.66510  0.79990  0.15640  Biso   1.000  H
  H130     1.0000 0.66910  0.87970  0.16270  Biso   1.000  H
  O88      1.0000 0.98620  0.96030  0.09170  Biso   1.000  O
  H131     1.0000 0.01230  0.99440  0.09770  Biso   1.000  H
  H132     1.0000 0.97360  0.95090  0.05900  Biso   1.000  H
  O89      1.0000 0.46100  0.56240  0.21200  Biso   1.000  O
  O90      1.0000 0.39930  0.50530  0.27040  Biso   1.000  O
  O91      1.0000 0.22200  0.65860  0.04800  Biso   1.000  O
  O92      1.0000 0.32750  0.69150  0.06430  Biso   1.000  O
  O93      1.0000 0.10420  0.50670  0.16990  Biso   1.000  O
  O94      1.0000 0.15790  0.44990  0.23820  Biso   1.000  O
  O95      1.0000 0.69580  0.65750  0.18750  Biso   1.000  O
  C111     1.0000 0.40440  0.53700  0.22600  Biso   1.000  C
  C112     1.0000 0.27760  0.65420  0.07360  Biso   1.000  C
  C113     1.0000 0.15900  0.48790  0.19780  Biso   1.000  C
  C114     1.0000 0.34150  0.54690  0.19310  Biso   1.000  C
  C115     1.0000 0.28250  0.51350  0.20900  Biso   1.000  C
  H133     1.0000 0.28220  0.48520  0.23970  Biso   1.000  H
  C116     1.0000 0.22290  0.52340  0.17790  Biso   1.000  C
  C117     1.0000 0.22220  0.56740  0.13570  Biso   1.000  C
  H134     1.0000 0.18190  0.57490  0.11620  Biso   1.000  H
  C118     1.0000 0.28200  0.60210  0.12080  Biso   1.000  C
  C119     1.0000 0.34130  0.59150  0.14840  Biso   1.000  C
  H135     1.0000 0.38120  0.61380  0.13780  Biso   1.000  H
  C120     1.0000 0.72350  0.66200  0.23340  Biso   1.000  C
  H136     1.0000 0.69410  0.66560  0.26490  Biso   1.000  H
  N12      1.0000 0.79840  0.66690  0.23120  Biso   1.000  N
  H137     1.0000 0.87640  0.66980  0.28570  Biso   1.000  H
  H138     1.0000 0.80920  0.63630  0.30850  Biso   1.000  H
  H139     1.0000 0.81320  0.71590  0.30020  Biso   1.000  H
  H140     1.0000 0.89070  0.66110  0.19070  Biso   1.000  H
  H141     1.0000 0.83490  0.70010  0.15640  Biso   1.000  H
  H142     1.0000 0.83090  0.62030  0.16270  Biso   1.000  H
  O96      1.0000 0.51380  0.53970  0.09170  Biso   1.000  O
  H143     1.0000 0.48770  0.50560  0.09770  Biso   1.000  H
  H144     1.0000 0.52640  0.54910  0.05900  Biso   1.000  H
  O97      1.0000 0.06240  0.96100  0.78800  Biso   1.000  O
  O98      1.0000 0.00530  0.89930  0.72960  Biso   1.000  O
  O99      1.0000 0.15860  0.72200  0.95200  Biso   1.000  O
  O100     1.0000 0.19150  0.82750  0.93570  Biso   1.000  O
  O101     1.0000 0.00670  0.60420  0.83010  Biso   1.000  O
  O102     1.0000 0.94990  0.65790  0.76180  Biso   1.000  O
  O103     1.0000 0.15750  0.19580  0.81250  Biso   1.000  O
  C121     1.0000 0.03700  0.90440  0.77400  Biso   1.000  C
  C122     1.0000 0.15420  0.77760  0.92640  Biso   1.000  C
  C123     1.0000 0.98790  0.65900  0.80220  Biso   1.000  C
  C124     1.0000 0.04690  0.84150  0.80690  Biso   1.000  C
  C125     1.0000 0.01350  0.78250  0.79100  Biso   1.000  C
  H145     1.0000 0.98520  0.78220  0.76030  Biso   1.000  H
  C126     1.0000 0.02340  0.72290  0.82210  Biso   1.000  C
  C127     1.0000 0.06740  0.72220  0.86430  Biso   1.000  C
  H146     1.0000 0.07490  0.68190  0.88380  Biso   1.000  H
  C128     1.0000 0.10210  0.78200  0.87920  Biso   1.000  C
  C129     1.0000 0.09150  0.84130  0.85160  Biso   1.000  C
  H147     1.0000 0.11380  0.88120  0.86220  Biso   1.000  H
  C130     1.0000 0.16200  0.22350  0.76660  Biso   1.000  C
  H148     1.0000 0.16560  0.19410  0.73510  Biso   1.000  H
  N13      1.0000 0.16690  0.29840  0.76880  Biso   1.000  N
  H149     1.0000 0.16980  0.37640  0.71430  Biso   1.000  H
  H150     1.0000 0.13630  0.30920  0.69150  Biso   1.000  H
  H151     1.0000 0.21590  0.31320  0.69980  Biso   1.000  H
  H152     1.0000 0.16110  0.39070  0.80930  Biso   1.000  H
  H153     1.0000 0.20010  0.33490  0.84360  Biso   1.000  H
  H154     1.0000 0.12030  0.33090  0.83730  Biso   1.000  H
  O104     1.0000 0.03970  0.01380  0.90830  Biso   1.000  O
  H155     1.0000 0.00560  0.98770  0.90230  Biso   1.000  H
  H156     1.0000 0.04910  0.02640  0.94100  Biso   1.000  H
  O105     1.0000 0.43760  0.53900  0.78800  Biso   1.000  O
  O106     1.0000 0.49470  0.60070  0.72960  Biso   1.000  O
  O107     1.0000 0.34140  0.77800  0.95200  Biso   1.000  O
  O108     1.0000 0.30850  0.67250  0.93570  Biso   1.000  O
  O109     1.0000 0.49330  0.89580  0.83010  Biso   1.000  O
  O110     1.0000 0.55010  0.84210  0.76180  Biso   1.000  O
  O111     1.0000 0.34250  0.30420  0.81250  Biso   1.000  O
  C131     1.0000 0.46300  0.59560  0.77400  Biso   1.000  C
  C132     1.0000 0.34580  0.72240  0.92640  Biso   1.000  C
  C133     1.0000 0.51210  0.84100  0.80220  Biso   1.000  C
  C134     1.0000 0.45310  0.65850  0.80690  Biso   1.000  C
  C135     1.0000 0.48650  0.71750  0.79100  Biso   1.000  C
  H157     1.0000 0.51480  0.71780  0.76030  Biso   1.000  H
  C136     1.0000 0.47660  0.77710  0.82210  Biso   1.000  C
  C137     1.0000 0.43260  0.77780  0.86430  Biso   1.000  C
  H158     1.0000 0.42510  0.81810  0.88380  Biso   1.000  H
  C138     1.0000 0.39790  0.71800  0.87920  Biso   1.000  C
  C139     1.0000 0.40850  0.65870  0.85160  Biso   1.000  C
  H159     1.0000 0.38620  0.61880  0.86220  Biso   1.000  H
  C140     1.0000 0.33800  0.27650  0.76660  Biso   1.000  C
  H160     1.0000 0.33440  0.30590  0.73510  Biso   1.000  H
  N14      1.0000 0.33310  0.20160  0.76880  Biso   1.000  N
  H161     1.0000 0.33020  0.12360  0.71430  Biso   1.000  H
  H162     1.0000 0.36370  0.19080  0.69150  Biso   1.000  H
  H163     1.0000 0.28410  0.18680  0.69980  Biso   1.000  H
  H164     1.0000 0.33890  0.10930  0.80930  Biso   1.000  H
  H165     1.0000 0.29990  0.16510  0.84360  Biso   1.000  H
  H166     1.0000 0.37970  0.16910  0.83730  Biso   1.000  H
  O112     1.0000 0.46030  0.48620  0.90830  Biso   1.000  O
  H167     1.0000 0.49440  0.51230  0.90230  Biso   1.000  H
  H168     1.0000 0.45090  0.47360  0.94100  Biso   1.000  H
  O113     1.0000 0.96100  0.43760  0.28800  Biso   1.000  O
  O114     1.0000 0.89930  0.49470  0.22960  Biso   1.000  O
  O115     1.0000 0.72200  0.34140  0.45200  Biso   1.000  O
  O116     1.0000 0.82750  0.30850  0.43570  Biso   1.000  O
  O117     1.0000 0.60420  0.49330  0.33010  Biso   1.000  O
  O118     1.0000 0.65790  0.55010  0.26180  Biso   1.000  O
  O119     1.0000 0.19580  0.34250  0.31250  Biso   1.000  O
  C141     1.0000 0.90440  0.46300  0.27400  Biso   1.000  C
  C142     1.0000 0.77760  0.34580  0.42640  Biso   1.000  C
  C143     1.0000 0.65900  0.51210  0.30220  Biso   1.000  C
  C144     1.0000 0.84150  0.45310  0.30690  Biso   1.000  C
  C145     1.0000 0.78250  0.48650  0.29100  Biso   1.000  C
  H169     1.0000 0.78220  0.51480  0.26030  Biso   1.000  H
  C146     1.0000 0.72290  0.47660  0.32210  Biso   1.000  C
  C147     1.0000 0.72220  0.43260  0.36430  Biso   1.000  C
  H170     1.0000 0.68190  0.42510  0.38380  Biso   1.000  H
  C148     1.0000 0.78200  0.39790  0.37920  Biso   1.000  C
  C149     1.0000 0.84130  0.40850  0.35160  Biso   1.000  C
  H171     1.0000 0.88120  0.38620  0.36220  Biso   1.000  H
  C150     1.0000 0.22350  0.33800  0.26660  Biso   1.000  C
  H172     1.0000 0.19410  0.33440  0.23510  Biso   1.000  H
  N15      1.0000 0.29840  0.33310  0.26880  Biso   1.000  N
  H173     1.0000 0.37640  0.33020  0.21430  Biso   1.000  H
  H174     1.0000 0.30920  0.36370  0.19150  Biso   1.000  H
  H175     1.0000 0.31320  0.28410  0.19980  Biso   1.000  H
  H176     1.0000 0.39070  0.33890  0.30930  Biso   1.000  H
  H177     1.0000 0.33490  0.29990  0.34360  Biso   1.000  H
  H178     1.0000 0.33090  0.37970  0.33730  Biso   1.000  H
  O120     1.0000 0.01380  0.46030  0.40830  Biso   1.000  O
  H179     1.0000 0.98770  0.49440  0.40230  Biso   1.000  H
  H180     1.0000 0.02640  0.45090  0.44100  Biso   1.000  H
  O121     1.0000 0.53900  0.06240  0.28800  Biso   1.000  O
  O122     1.0000 0.60070  0.00530  0.22960  Biso   1.000  O
  O123     1.0000 0.77800  0.15860  0.45200  Biso   1.000  O
  O124     1.0000 0.67250  0.19150  0.43570  Biso   1.000  O
  O125     1.0000 0.89580  0.00670  0.33010  Biso   1.000  O
  O126     1.0000 0.84210  0.94990  0.26180  Biso   1.000  O
  O127     1.0000 0.30420  0.15750  0.31250  Biso   1.000  O
  C151     1.0000 0.59560  0.03700  0.27400  Biso   1.000  C
  C152     1.0000 0.72240  0.15420  0.42640  Biso   1.000  C
  C153     1.0000 0.84100  0.98790  0.30220  Biso   1.000  C
  C154     1.0000 0.65850  0.04690  0.30690  Biso   1.000  C
  C155     1.0000 0.71750  0.01350  0.29100  Biso   1.000  C
  H181     1.0000 0.71780  0.98520  0.26030  Biso   1.000  H
  C156     1.0000 0.77710  0.02340  0.32210  Biso   1.000  C
  C157     1.0000 0.77780  0.06740  0.36430  Biso   1.000  C
  H182     1.0000 0.81810  0.07490  0.38380  Biso   1.000  H
  C158     1.0000 0.71800  0.10210  0.37920  Biso   1.000  C
  C159     1.0000 0.65870  0.09150  0.35160  Biso   1.000  C
  H183     1.0000 0.61880  0.11380  0.36220  Biso   1.000  H
  C160     1.0000 0.27650  0.16200  0.26660  Biso   1.000  C
  H184     1.0000 0.30590  0.16560  0.23510  Biso   1.000  H
  N16      1.0000 0.20160  0.16690  0.26880  Biso   1.000  N
  H185     1.0000 0.12360  0.16980  0.21430  Biso   1.000  H
  H186     1.0000 0.19080  0.13630  0.19150  Biso   1.000  H
  H187     1.0000 0.18680  0.21590  0.19980  Biso   1.000  H
  H188     1.0000 0.10930  0.16110  0.30930  Biso   1.000  H
  H189     1.0000 0.16510  0.20010  0.34360  Biso   1.000  H
  H190     1.0000 0.16910  0.12030  0.33730  Biso   1.000  H
  O128     1.0000 0.48620  0.03970  0.40830  Biso   1.000  O
  H191     1.0000 0.51230  0.00560  0.40230  Biso   1.000  H
  H192     1.0000 0.47360  0.04910  0.44100  Biso   1.000  H
  In1      1.0000 0.00029  0.49971  0.19268  Biso   1.000  In
  Sr1      1.0000 0.08500  0.41500  0.31997  Biso   1.000  Sr
  Cl1      1.0000 0.95950  0.54050  0.10600  Biso   1.000  Cl
  In2      1.0000 0.49971  0.00029  0.19268  Biso   1.000  In
  Sr2      1.0000 0.41500  0.08500  0.31997  Biso   1.000  Sr
  Cl2      1.0000 0.54050  0.95950  0.10600  Biso   1.000  Cl
  In3      1.0000 0.00029  0.00029  0.69268  Biso   1.000  In
  Sr3      1.0000 0.08500  0.08500  0.81997  Biso   1.000  Sr
  Cl3      1.0000 0.95950  0.95950  0.60600  Biso   1.000  Cl
  In4      1.0000 0.49971  0.49971  0.69268  Biso   1.000  In
  Sr4      1.0000 0.41500  0.41500  0.81997  Biso   1.000  Sr
  Cl4      1.0000 0.54050  0.54050  0.60600  Biso   1.000  Cl
  In5      1.0000 0.99971  0.99971  0.30732  Biso   1.000  In
  Sr5      1.0000 0.91500  0.91500  0.18003  Biso   1.000  Sr
  Cl5      1.0000 0.04050  0.04050  0.39400  Biso   1.000  Cl
  In6      1.0000 0.50029  0.50029  0.30732  Biso   1.000  In
  Sr6      1.0000 0.58500  0.58500  0.18003  Biso   1.000  Sr
  Cl6      1.0000 0.45950  0.45950  0.39400  Biso   1.000  Cl
  In7      1.0000 0.99971  0.50029  0.80732  Biso   1.000  In
  Sr7      1.0000 0.91500  0.58500  0.68003  Biso   1.000  Sr
  Cl7      1.0000 0.04050  0.45950  0.89400  Biso   1.000  Cl
  In8      1.0000 0.50029  0.99971  0.80732  Biso   1.000  In
  Sr8      1.0000 0.58500  0.91500  0.68003  Biso   1.000  Sr
  Cl8      1.0000 0.45950  0.04050  0.89400  Biso   1.000  Cl
  In9      1.0000 0.25000  0.75000  0.50000  Biso   1.000  In
  In10     1.0000 0.75000  0.25000  0.00000  Biso   1.000  In
  In11     1.0000 0.75000  0.25000  0.50000  Biso   1.000  In
  In12     1.0000 0.25000  0.75000  0.00000  Biso   1.000  In
  C161     1.0000 0.17230  0.17230  0.21420  Biso   1.000  C
  C162     1.0000 0.16230  0.16230  0.31920  Biso   1.000  C
  C163     1.0000 0.32770  0.32770  0.21420  Biso   1.000  C
  C164     1.0000 0.33770  0.33770  0.31920  Biso   1.000  C
  C165     1.0000 0.32770  0.17230  0.71420  Biso   1.000  C
  C166     1.0000 0.33770  0.16230  0.81920  Biso   1.000  C
  C167     1.0000 0.17230  0.32770  0.71420  Biso   1.000  C
  C168     1.0000 0.16230  0.33770  0.81920  Biso   1.000  C
  C169     1.0000 0.82770  0.67230  0.28580  Biso   1.000  C
  C170     1.0000 0.83770  0.66230  0.18080  Biso   1.000  C
  C171     1.0000 0.67230  0.82770  0.28580  Biso   1.000  C
  C172     1.0000 0.66230  0.83770  0.18080  Biso   1.000  C
  C173     1.0000 0.67230  0.67230  0.78580  Biso   1.000  C
  C174     1.0000 0.66230  0.66230  0.68080  Biso   1.000  C
  C175     1.0000 0.82770  0.82770  0.78580  Biso   1.000  C
  C176     1.0000 0.83770  0.83770  0.68080  Biso   1.000  C
