data_image0
_cell_length_a       19.5189
_cell_length_b       19.5189
_cell_length_c       24.253
_cell_angle_alpha    90
_cell_angle_beta     90
_cell_angle_gamma    90

_symmetry_space_group_name_H-M    "P 1"
_symmetry_int_tables_number       1

loop_
  _symmetry_equiv_pos_as_xyz
  'x, y, z'

loop_
  _atom_site_label
  _atom_site_occupancy
  _atom_site_fract_x
  _atom_site_fract_y
  _atom_site_fract_z
  _atom_site_thermal_displace_type
  _atom_site_B_iso_or_equiv
  _atom_site_type_symbol
  O1       1.0000 0.05620  0.54100  0.28770  Biso   1.000  O
  O2       1.0000 0.00230  0.60230  0.22900  Biso   1.000  O
  O3       1.0000 0.16090  0.77810  0.45110  Biso   1.000  O
  O4       1.0000 0.19140  0.67380  0.43560  Biso   1.000  O
  O5       1.0000 0.00900  0.89890  0.32990  Biso   1.000  O
  O6       1.0000 0.95250  0.84580  0.26170  Biso   1.000  O
  O7       1.0000 0.14150  0.31810  0.32490  Biso   1.000  O
  C1       1.0000 0.03440  0.59660  0.27490  Biso   1.000  C
  C2       1.0000 0.15340  0.72390  0.42560  Biso   1.000  C
  C3       1.0000 0.99010  0.84600  0.30130  Biso   1.000  C
  C4       1.0000 0.04420  0.66000  0.30590  Biso   1.000  C
  C5       1.0000 0.01300  0.72050  0.29110  Biso   1.000  C
  H1       1.0000 0.98380  0.72120  0.26080  Biso   1.000  H
  C6       1.0000 0.02410  0.77990  0.32040  Biso   1.000  C
  C7       1.0000 0.06860  0.77970  0.36540  Biso   1.000  C
  H2       1.0000 0.07600  0.81970  0.38540  Biso   1.000  H
  C8       1.0000 0.10200  0.71910  0.38040  Biso   1.000  C
  C9       1.0000 0.08910  0.65940  0.35050  Biso   1.000  C
  H3       1.0000 0.11070  0.61880  0.36040  Biso   1.000  H
  C10      1.0000 0.15410  0.27940  0.28560  Biso   1.000  C
  H4       1.0000 0.15350  0.29460  0.24800  Biso   1.000  H
  H5       1.0000 0.18980  0.13200  0.24810  Biso   1.000  H
  H6       1.0000 0.13900  0.18620  0.22360  Biso   1.000  H
  H7       1.0000 0.21700  0.20390  0.22960  Biso   1.000  H
  H8       1.0000 0.18760  0.13190  0.35300  Biso   1.000  H
  H9       1.0000 0.21920  0.20270  0.36990  Biso   1.000  H
  H10      1.0000 0.14060  0.18920  0.37790  Biso   1.000  H
  N1       1.0000 0.16680  0.20720  0.30030  Biso   1.000  N
  O8       1.0000 0.01940  0.43620  0.39750  Biso   1.000  O
  H11      1.0000 0.98220  0.45890  0.39840  Biso   1.000  H
  H12      1.0000 0.03530  0.41870  0.42690  Biso   1.000  H
  O9       1.0000 0.44380  0.95900  0.28770  Biso   1.000  O
  O10      1.0000 0.49770  0.89770  0.22900  Biso   1.000  O
  O11      1.0000 0.33910  0.72190  0.45110  Biso   1.000  O
  O12      1.0000 0.30860  0.82620  0.43560  Biso   1.000  O
  O13      1.0000 0.49100  0.60110  0.32990  Biso   1.000  O
  O14      1.0000 0.54750  0.65420  0.26170  Biso   1.000  O
  O15      1.0000 0.35850  0.18190  0.32490  Biso   1.000  O
  C11      1.0000 0.46560  0.90340  0.27490  Biso   1.000  C
  C12      1.0000 0.34660  0.77610  0.42560  Biso   1.000  C
  C13      1.0000 0.50990  0.65400  0.30130  Biso   1.000  C
  C14      1.0000 0.45580  0.84000  0.30590  Biso   1.000  C
  C15      1.0000 0.48700  0.77950  0.29110  Biso   1.000  C
  H13      1.0000 0.51620  0.77880  0.26080  Biso   1.000  H
  C16      1.0000 0.47590  0.72010  0.32040  Biso   1.000  C
  C17      1.0000 0.43140  0.72030  0.36540  Biso   1.000  C
  H14      1.0000 0.42400  0.68030  0.38540  Biso   1.000  H
  C18      1.0000 0.39800  0.78090  0.38040  Biso   1.000  C
  C19      1.0000 0.41090  0.84060  0.35050  Biso   1.000  C
  H15      1.0000 0.38930  0.88120  0.36040  Biso   1.000  H
  C20      1.0000 0.34590  0.22060  0.28560  Biso   1.000  C
  H16      1.0000 0.34650  0.20540  0.24800  Biso   1.000  H
  H17      1.0000 0.31020  0.36800  0.24810  Biso   1.000  H
  H18      1.0000 0.36100  0.31380  0.22360  Biso   1.000  H
  H19      1.0000 0.28300  0.29610  0.22960  Biso   1.000  H
  H20      1.0000 0.31240  0.36810  0.35300  Biso   1.000  H
  H21      1.0000 0.28080  0.29730  0.36990  Biso   1.000  H
  H22      1.0000 0.35940  0.31080  0.37790  Biso   1.000  H
  N2       1.0000 0.33320  0.29280  0.30030  Biso   1.000  N
  O16      1.0000 0.48060  0.06380  0.39750  Biso   1.000  O
  H23      1.0000 0.51780  0.04110  0.39840  Biso   1.000  H
  H24      1.0000 0.46470  0.08130  0.42690  Biso   1.000  H
  O17      1.0000 0.95900  0.05620  0.78770  Biso   1.000  O
  O18      1.0000 0.89770  0.00230  0.72900  Biso   1.000  O
  O19      1.0000 0.72190  0.16090  0.95110  Biso   1.000  O
  O20      1.0000 0.82620  0.19140  0.93560  Biso   1.000  O
  O21      1.0000 0.60110  0.00900  0.82990  Biso   1.000  O
  O22      1.0000 0.65420  0.95250  0.76170  Biso   1.000  O
  O23      1.0000 0.18190  0.14150  0.82490  Biso   1.000  O
  C21      1.0000 0.90340  0.03440  0.77490  Biso   1.000  C
  C22      1.0000 0.77610  0.15340  0.92560  Biso   1.000  C
  C23      1.0000 0.65400  0.99010  0.80130  Biso   1.000  C
  C24      1.0000 0.84000  0.04420  0.80590  Biso   1.000  C
  C25      1.0000 0.77950  0.01300  0.79110  Biso   1.000  C
  H25      1.0000 0.77880  0.98380  0.76080  Biso   1.000  H
  C26      1.0000 0.72010  0.02410  0.82040  Biso   1.000  C
  C27      1.0000 0.72030  0.06860  0.86540  Biso   1.000  C
  H26      1.0000 0.68030  0.07600  0.88540  Biso   1.000  H
  C28      1.0000 0.78090  0.10200  0.88040  Biso   1.000  C
  C29      1.0000 0.84060  0.08910  0.85050  Biso   1.000  C
  H27      1.0000 0.88120  0.11070  0.86040  Biso   1.000  H
  C30      1.0000 0.22060  0.15410  0.78560  Biso   1.000  C
  H28      1.0000 0.20540  0.15350  0.74800  Biso   1.000  H
  H29      1.0000 0.36800  0.18980  0.74810  Biso   1.000  H
  H30      1.0000 0.31380  0.13900  0.72360  Biso   1.000  H
  H31      1.0000 0.29610  0.21700  0.72960  Biso   1.000  H
  H32      1.0000 0.36810  0.18760  0.85300  Biso   1.000  H
  H33      1.0000 0.29730  0.21920  0.86990  Biso   1.000  H
  H34      1.0000 0.31080  0.14060  0.87790  Biso   1.000  H
  N3       1.0000 0.29280  0.16680  0.80030  Biso   1.000  N
  O24      1.0000 0.06380  0.01940  0.89750  Biso   1.000  O
  H35      1.0000 0.04110  0.98220  0.89840  Biso   1.000  H
  H36      1.0000 0.08130  0.03530  0.92690  Biso   1.000  H
  O25      1.0000 0.54100  0.44380  0.78770  Biso   1.000  O
  O26      1.0000 0.60230  0.49770  0.72900  Biso   1.000  O
  O27      1.0000 0.77810  0.33910  0.95110  Biso   1.000  O
  O28      1.0000 0.67380  0.30860  0.93560  Biso   1.000  O
  O29      1.0000 0.89890  0.49100  0.82990  Biso   1.000  O
  O30      1.0000 0.84580  0.54750  0.76170  Biso   1.000  O
  O31      1.0000 0.31810  0.35850  0.82490  Biso   1.000  O
  C31      1.0000 0.59660  0.46560  0.77490  Biso   1.000  C
  C32      1.0000 0.72390  0.34660  0.92560  Biso   1.000  C
  C33      1.0000 0.84600  0.50990  0.80130  Biso   1.000  C
  C34      1.0000 0.66000  0.45580  0.80590  Biso   1.000  C
  C35      1.0000 0.72050  0.48700  0.79110  Biso   1.000  C
  H37      1.0000 0.72120  0.51620  0.76080  Biso   1.000  H
  C36      1.0000 0.77990  0.47590  0.82040  Biso   1.000  C
  C37      1.0000 0.77970  0.43140  0.86540  Biso   1.000  C
  H38      1.0000 0.81970  0.42400  0.88540  Biso   1.000  H
  C38      1.0000 0.71910  0.39800  0.88040  Biso   1.000  C
  C39      1.0000 0.65940  0.41090  0.85050  Biso   1.000  C
  H39      1.0000 0.61880  0.38930  0.86040  Biso   1.000  H
  C40      1.0000 0.27940  0.34590  0.78560  Biso   1.000  C
  H40      1.0000 0.29460  0.34650  0.74800  Biso   1.000  H
  H41      1.0000 0.13200  0.31020  0.74810  Biso   1.000  H
  H42      1.0000 0.18620  0.36100  0.72360  Biso   1.000  H
  H43      1.0000 0.20390  0.28300  0.72960  Biso   1.000  H
  H44      1.0000 0.13190  0.31240  0.85300  Biso   1.000  H
  H45      1.0000 0.20270  0.28080  0.86990  Biso   1.000  H
  H46      1.0000 0.18920  0.35940  0.87790  Biso   1.000  H
  N4       1.0000 0.20720  0.33320  0.80030  Biso   1.000  N
  O32      1.0000 0.43620  0.48060  0.89750  Biso   1.000  O
  H47      1.0000 0.45890  0.51780  0.89840  Biso   1.000  H
  H48      1.0000 0.41870  0.46470  0.92690  Biso   1.000  H
  O33      1.0000 0.94380  0.04100  0.21230  Biso   1.000  O
  O34      1.0000 0.99770  0.10230  0.27100  Biso   1.000  O
  O35      1.0000 0.83910  0.27810  0.04890  Biso   1.000  O
  O36      1.0000 0.80860  0.17380  0.06440  Biso   1.000  O
  O37      1.0000 0.99100  0.39890  0.17010  Biso   1.000  O
  O38      1.0000 0.04750  0.34580  0.23830  Biso   1.000  O
  O39      1.0000 0.85850  0.81810  0.17510  Biso   1.000  O
  C41      1.0000 0.96560  0.09660  0.22510  Biso   1.000  C
  C42      1.0000 0.84660  0.22390  0.07440  Biso   1.000  C
  C43      1.0000 0.00990  0.34600  0.19870  Biso   1.000  C
  C44      1.0000 0.95580  0.16000  0.19410  Biso   1.000  C
  C45      1.0000 0.98700  0.22050  0.20890  Biso   1.000  C
  H49      1.0000 0.01620  0.22120  0.23920  Biso   1.000  H
  C46      1.0000 0.97590  0.27990  0.17960  Biso   1.000  C
  C47      1.0000 0.93140  0.27970  0.13460  Biso   1.000  C
  H50      1.0000 0.92400  0.31970  0.11460  Biso   1.000  H
  C48      1.0000 0.89800  0.21910  0.11960  Biso   1.000  C
  C49      1.0000 0.91090  0.15940  0.14950  Biso   1.000  C
  H51      1.0000 0.88930  0.11880  0.13960  Biso   1.000  H
  C50      1.0000 0.84590  0.77940  0.21440  Biso   1.000  C
  H52      1.0000 0.84650  0.79460  0.25200  Biso   1.000  H
  H53      1.0000 0.81020  0.63200  0.25190  Biso   1.000  H
  H54      1.0000 0.86100  0.68620  0.27640  Biso   1.000  H
  H55      1.0000 0.78300  0.70390  0.27040  Biso   1.000  H
  H56      1.0000 0.81240  0.63190  0.14700  Biso   1.000  H
  H57      1.0000 0.78080  0.70270  0.13010  Biso   1.000  H
  H58      1.0000 0.85940  0.68920  0.12210  Biso   1.000  H
  N5       1.0000 0.83320  0.70720  0.19970  Biso   1.000  N
  O40      1.0000 0.98060  0.93620  0.10250  Biso   1.000  O
  H59      1.0000 0.01780  0.95890  0.10160  Biso   1.000  H
  H60      1.0000 0.96470  0.91870  0.07310  Biso   1.000  H
  O41      1.0000 0.55620  0.45900  0.21230  Biso   1.000  O
  O42      1.0000 0.50230  0.39770  0.27100  Biso   1.000  O
  O43      1.0000 0.66090  0.22190  0.04890  Biso   1.000  O
  O44      1.0000 0.69140  0.32620  0.06440  Biso   1.000  O
  O45      1.0000 0.50900  0.10110  0.17010  Biso   1.000  O
  O46      1.0000 0.45250  0.15420  0.23830  Biso   1.000  O
  O47      1.0000 0.64150  0.68190  0.17510  Biso   1.000  O
  C51      1.0000 0.53440  0.40340  0.22510  Biso   1.000  C
  C52      1.0000 0.65340  0.27610  0.07440  Biso   1.000  C
  C53      1.0000 0.49010  0.15400  0.19870  Biso   1.000  C
  C54      1.0000 0.54420  0.34000  0.19410  Biso   1.000  C
  C55      1.0000 0.51300  0.27950  0.20890  Biso   1.000  C
  H61      1.0000 0.48380  0.27880  0.23920  Biso   1.000  H
  C56      1.0000 0.52410  0.22010  0.17960  Biso   1.000  C
  C57      1.0000 0.56860  0.22030  0.13460  Biso   1.000  C
  H62      1.0000 0.57600  0.18030  0.11460  Biso   1.000  H
  C58      1.0000 0.60200  0.28090  0.11960  Biso   1.000  C
  C59      1.0000 0.58910  0.34060  0.14950  Biso   1.000  C
  H63      1.0000 0.61070  0.38120  0.13960  Biso   1.000  H
  C60      1.0000 0.65410  0.72060  0.21440  Biso   1.000  C
  H64      1.0000 0.65350  0.70540  0.25200  Biso   1.000  H
  H65      1.0000 0.68980  0.86800  0.25190  Biso   1.000  H
  H66      1.0000 0.63900  0.81380  0.27640  Biso   1.000  H
  H67      1.0000 0.71700  0.79610  0.27040  Biso   1.000  H
  H68      1.0000 0.68760  0.86810  0.14700  Biso   1.000  H
  H69      1.0000 0.71920  0.79730  0.13010  Biso   1.000  H
  H70      1.0000 0.64060  0.81080  0.12210  Biso   1.000  H
  N6       1.0000 0.66680  0.79280  0.19970  Biso   1.000  N
  O48      1.0000 0.51940  0.56380  0.10250  Biso   1.000  O
  H71      1.0000 0.48220  0.54110  0.10160  Biso   1.000  H
  H72      1.0000 0.53530  0.58130  0.07310  Biso   1.000  H
  O49      1.0000 0.04100  0.55620  0.71230  Biso   1.000  O
  O50      1.0000 0.10230  0.50230  0.77100  Biso   1.000  O
  O51      1.0000 0.27810  0.66090  0.54890  Biso   1.000  O
  O52      1.0000 0.17380  0.69140  0.56440  Biso   1.000  O
  O53      1.0000 0.39890  0.50900  0.67010  Biso   1.000  O
  O54      1.0000 0.34580  0.45250  0.73830  Biso   1.000  O
  O55      1.0000 0.81810  0.64150  0.67510  Biso   1.000  O
  C61      1.0000 0.09660  0.53440  0.72510  Biso   1.000  C
  C62      1.0000 0.22390  0.65340  0.57440  Biso   1.000  C
  C63      1.0000 0.34600  0.49010  0.69870  Biso   1.000  C
  C64      1.0000 0.16000  0.54420  0.69410  Biso   1.000  C
  C65      1.0000 0.22050  0.51300  0.70890  Biso   1.000  C
  H73      1.0000 0.22120  0.48380  0.73920  Biso   1.000  H
  C66      1.0000 0.27990  0.52410  0.67960  Biso   1.000  C
  C67      1.0000 0.27970  0.56860  0.63460  Biso   1.000  C
  H74      1.0000 0.31970  0.57600  0.61460  Biso   1.000  H
  C68      1.0000 0.21910  0.60200  0.61960  Biso   1.000  C
  C69      1.0000 0.15940  0.58910  0.64950  Biso   1.000  C
  H75      1.0000 0.11880  0.61070  0.63960  Biso   1.000  H
  C70      1.0000 0.77940  0.65410  0.71440  Biso   1.000  C
  H76      1.0000 0.79460  0.65350  0.75200  Biso   1.000  H
  H77      1.0000 0.63200  0.68980  0.75190  Biso   1.000  H
  H78      1.0000 0.68620  0.63900  0.77640  Biso   1.000  H
  H79      1.0000 0.70390  0.71700  0.77040  Biso   1.000  H
  H80      1.0000 0.63190  0.68760  0.64700  Biso   1.000  H
  H81      1.0000 0.70270  0.71920  0.63010  Biso   1.000  H
  H82      1.0000 0.68920  0.64060  0.62210  Biso   1.000  H
  N7       1.0000 0.70720  0.66680  0.69970  Biso   1.000  N
  O56      1.0000 0.93620  0.51940  0.60250  Biso   1.000  O
  H83      1.0000 0.95890  0.48220  0.60160  Biso   1.000  H
  H84      1.0000 0.91870  0.53530  0.57310  Biso   1.000  H
  O57      1.0000 0.45900  0.94380  0.71230  Biso   1.000  O
  O58      1.0000 0.39770  0.99770  0.77100  Biso   1.000  O
  O59      1.0000 0.22190  0.83910  0.54890  Biso   1.000  O
  O60      1.0000 0.32620  0.80860  0.56440  Biso   1.000  O
  O61      1.0000 0.10110  0.99100  0.67010  Biso   1.000  O
  O62      1.0000 0.15420  0.04750  0.73830  Biso   1.000  O
  O63      1.0000 0.68190  0.85850  0.67510  Biso   1.000  O
  C71      1.0000 0.40340  0.96560  0.72510  Biso   1.000  C
  C72      1.0000 0.27610  0.84660  0.57440  Biso   1.000  C
  C73      1.0000 0.15400  0.00990  0.69870  Biso   1.000  C
  C74      1.0000 0.34000  0.95580  0.69410  Biso   1.000  C
  C75      1.0000 0.27950  0.98700  0.70890  Biso   1.000  C
  H85      1.0000 0.27880  0.01620  0.73920  Biso   1.000  H
  C76      1.0000 0.22010  0.97590  0.67960  Biso   1.000  C
  C77      1.0000 0.22030  0.93140  0.63460  Biso   1.000  C
  H86      1.0000 0.18030  0.92400  0.61460  Biso   1.000  H
  C78      1.0000 0.28090  0.89800  0.61960  Biso   1.000  C
  C79      1.0000 0.34060  0.91090  0.64950  Biso   1.000  C
  H87      1.0000 0.38120  0.88930  0.63960  Biso   1.000  H
  C80      1.0000 0.72060  0.84590  0.71440  Biso   1.000  C
  H88      1.0000 0.70540  0.84650  0.75200  Biso   1.000  H
  H89      1.0000 0.86800  0.81020  0.75190  Biso   1.000  H
  H90      1.0000 0.81380  0.86100  0.77640  Biso   1.000  H
  H91      1.0000 0.79610  0.78300  0.77040  Biso   1.000  H
  H92      1.0000 0.86810  0.81240  0.64700  Biso   1.000  H
  H93      1.0000 0.79730  0.78080  0.63010  Biso   1.000  H
  H94      1.0000 0.81080  0.85940  0.62210  Biso   1.000  H
  N8       1.0000 0.79280  0.83320  0.69970  Biso   1.000  N
  O64      1.0000 0.56380  0.98060  0.60250  Biso   1.000  O
  H95      1.0000 0.54110  0.01780  0.60160  Biso   1.000  H
  H96      1.0000 0.58130  0.96470  0.57310  Biso   1.000  H
  O65      1.0000 0.94380  0.45900  0.71230  Biso   1.000  O
  O66      1.0000 0.99770  0.39770  0.77100  Biso   1.000  O
  O67      1.0000 0.83910  0.22190  0.54890  Biso   1.000  O
  O68      1.0000 0.80860  0.32620  0.56440  Biso   1.000  O
  O69      1.0000 0.99100  0.10110  0.67010  Biso   1.000  O
  O70      1.0000 0.04750  0.15420  0.73830  Biso   1.000  O
  O71      1.0000 0.85850  0.68190  0.67510  Biso   1.000  O
  C81      1.0000 0.96560  0.40340  0.72510  Biso   1.000  C
  C82      1.0000 0.84660  0.27610  0.57440  Biso   1.000  C
  C83      1.0000 0.00990  0.15400  0.69870  Biso   1.000  C
  C84      1.0000 0.95580  0.34000  0.69410  Biso   1.000  C
  C85      1.0000 0.98700  0.27950  0.70890  Biso   1.000  C
  H97      1.0000 0.01620  0.27880  0.73920  Biso   1.000  H
  C86      1.0000 0.97590  0.22010  0.67960  Biso   1.000  C
  C87      1.0000 0.93140  0.22030  0.63460  Biso   1.000  C
  H98      1.0000 0.92400  0.18030  0.61460  Biso   1.000  H
  C88      1.0000 0.89800  0.28090  0.61960  Biso   1.000  C
  C89      1.0000 0.91090  0.34060  0.64950  Biso   1.000  C
  H99      1.0000 0.88930  0.38120  0.63960  Biso   1.000  H
  C90      1.0000 0.84590  0.72060  0.71440  Biso   1.000  C
  H100     1.0000 0.84650  0.70540  0.75200  Biso   1.000  H
  H101     1.0000 0.81020  0.86800  0.75190  Biso   1.000  H
  H102     1.0000 0.86100  0.81380  0.77640  Biso   1.000  H
  H103     1.0000 0.78300  0.79610  0.77040  Biso   1.000  H
  H104     1.0000 0.81240  0.86810  0.64700  Biso   1.000  H
  H105     1.0000 0.78080  0.79730  0.63010  Biso   1.000  H
  H106     1.0000 0.85940  0.81080  0.62210  Biso   1.000  H
  N9       1.0000 0.83320  0.79280  0.69970  Biso   1.000  N
  O72      1.0000 0.98060  0.56380  0.60250  Biso   1.000  O
  H107     1.0000 0.01780  0.54110  0.60160  Biso   1.000  H
  H108     1.0000 0.96470  0.58130  0.57310  Biso   1.000  H
  O73      1.0000 0.55620  0.04100  0.71230  Biso   1.000  O
  O74      1.0000 0.50230  0.10230  0.77100  Biso   1.000  O
  O75      1.0000 0.66090  0.27810  0.54890  Biso   1.000  O
  O76      1.0000 0.69140  0.17380  0.56440  Biso   1.000  O
  O77      1.0000 0.50900  0.39890  0.67010  Biso   1.000  O
  O78      1.0000 0.45250  0.34580  0.73830  Biso   1.000  O
  O79      1.0000 0.64150  0.81810  0.67510  Biso   1.000  O
  C91      1.0000 0.53440  0.09660  0.72510  Biso   1.000  C
  C92      1.0000 0.65340  0.22390  0.57440  Biso   1.000  C
  C93      1.0000 0.49010  0.34600  0.69870  Biso   1.000  C
  C94      1.0000 0.54420  0.16000  0.69410  Biso   1.000  C
  C95      1.0000 0.51300  0.22050  0.70890  Biso   1.000  C
  H109     1.0000 0.48380  0.22120  0.73920  Biso   1.000  H
  C96      1.0000 0.52410  0.27990  0.67960  Biso   1.000  C
  C97      1.0000 0.56860  0.27970  0.63460  Biso   1.000  C
  H110     1.0000 0.57600  0.31970  0.61460  Biso   1.000  H
  C98      1.0000 0.60200  0.21910  0.61960  Biso   1.000  C
  C99      1.0000 0.58910  0.15940  0.64950  Biso   1.000  C
  H111     1.0000 0.61070  0.11880  0.63960  Biso   1.000  H
  C100     1.0000 0.65410  0.77940  0.71440  Biso   1.000  C
  H112     1.0000 0.65350  0.79460  0.75200  Biso   1.000  H
  H113     1.0000 0.68980  0.63200  0.75190  Biso   1.000  H
  H114     1.0000 0.63900  0.68620  0.77640  Biso   1.000  H
  H115     1.0000 0.71700  0.70390  0.77040  Biso   1.000  H
  H116     1.0000 0.68760  0.63190  0.64700  Biso   1.000  H
  H117     1.0000 0.71920  0.70270  0.63010  Biso   1.000  H
  H118     1.0000 0.64060  0.68920  0.62210  Biso   1.000  H
  N10      1.0000 0.66680  0.70720  0.69970  Biso   1.000  N
  O80      1.0000 0.51940  0.93620  0.60250  Biso   1.000  O
  H119     1.0000 0.48220  0.95890  0.60160  Biso   1.000  H
  H120     1.0000 0.53530  0.91870  0.57310  Biso   1.000  H
  O81      1.0000 0.04100  0.94380  0.21230  Biso   1.000  O
  O82      1.0000 0.10230  0.99770  0.27100  Biso   1.000  O
  O83      1.0000 0.27810  0.83910  0.04890  Biso   1.000  O
  O84      1.0000 0.17380  0.80860  0.06440  Biso   1.000  O
  O85      1.0000 0.39890  0.99100  0.17010  Biso   1.000  O
  O86      1.0000 0.34580  0.04750  0.23830  Biso   1.000  O
  O87      1.0000 0.81810  0.85850  0.17510  Biso   1.000  O
  C101     1.0000 0.09660  0.96560  0.22510  Biso   1.000  C
  C102     1.0000 0.22390  0.84660  0.07440  Biso   1.000  C
  C103     1.0000 0.34600  0.00990  0.19870  Biso   1.000  C
  C104     1.0000 0.16000  0.95580  0.19410  Biso   1.000  C
  C105     1.0000 0.22050  0.98700  0.20890  Biso   1.000  C
  H121     1.0000 0.22120  0.01620  0.23920  Biso   1.000  H
  C106     1.0000 0.27990  0.97590  0.17960  Biso   1.000  C
  C107     1.0000 0.27970  0.93140  0.13460  Biso   1.000  C
  H122     1.0000 0.31970  0.92400  0.11460  Biso   1.000  H
  C108     1.0000 0.21910  0.89800  0.11960  Biso   1.000  C
  C109     1.0000 0.15940  0.91090  0.14950  Biso   1.000  C
  H123     1.0000 0.11880  0.88930  0.13960  Biso   1.000  H
  C110     1.0000 0.77940  0.84590  0.21440  Biso   1.000  C
  H124     1.0000 0.79460  0.84650  0.25200  Biso   1.000  H
  H125     1.0000 0.63200  0.81020  0.25190  Biso   1.000  H
  H126     1.0000 0.68620  0.86100  0.27640  Biso   1.000  H
  H127     1.0000 0.70390  0.78300  0.27040  Biso   1.000  H
  H128     1.0000 0.63190  0.81240  0.14700  Biso   1.000  H
  H129     1.0000 0.70270  0.78080  0.13010  Biso   1.000  H
  H130     1.0000 0.68920  0.85940  0.12210  Biso   1.000  H
  N11      1.0000 0.70720  0.83320  0.19970  Biso   1.000  N
  O88      1.0000 0.93620  0.98060  0.10250  Biso   1.000  O
  H131     1.0000 0.95890  0.01780  0.10160  Biso   1.000  H
  H132     1.0000 0.91870  0.96470  0.07310  Biso   1.000  H
  O89      1.0000 0.45900  0.55620  0.21230  Biso   1.000  O
  O90      1.0000 0.39770  0.50230  0.27100  Biso   1.000  O
  O91      1.0000 0.22190  0.66090  0.04890  Biso   1.000  O
  O92      1.0000 0.32620  0.69140  0.06440  Biso   1.000  O
  O93      1.0000 0.10110  0.50900  0.17010  Biso   1.000  O
  O94      1.0000 0.15420  0.45250  0.23830  Biso   1.000  O
  O95      1.0000 0.68190  0.64150  0.17510  Biso   1.000  O
  C111     1.0000 0.40340  0.53440  0.22510  Biso   1.000  C
  C112     1.0000 0.27610  0.65340  0.07440  Biso   1.000  C
  C113     1.0000 0.15400  0.49010  0.19870  Biso   1.000  C
  C114     1.0000 0.34000  0.54420  0.19410  Biso   1.000  C
  C115     1.0000 0.27950  0.51300  0.20890  Biso   1.000  C
  H133     1.0000 0.27880  0.48380  0.23920  Biso   1.000  H
  C116     1.0000 0.22010  0.52410  0.17960  Biso   1.000  C
  C117     1.0000 0.22030  0.56860  0.13460  Biso   1.000  C
  H134     1.0000 0.18030  0.57600  0.11460  Biso   1.000  H
  C118     1.0000 0.28090  0.60200  0.11960  Biso   1.000  C
  C119     1.0000 0.34060  0.58910  0.14950  Biso   1.000  C
  H135     1.0000 0.38120  0.61070  0.13960  Biso   1.000  H
  C120     1.0000 0.72060  0.65410  0.21440  Biso   1.000  C
  H136     1.0000 0.70540  0.65350  0.25200  Biso   1.000  H
  H137     1.0000 0.86800  0.68980  0.25190  Biso   1.000  H
  H138     1.0000 0.81380  0.63900  0.27640  Biso   1.000  H
  H139     1.0000 0.79610  0.71700  0.27040  Biso   1.000  H
  H140     1.0000 0.86810  0.68760  0.14700  Biso   1.000  H
  H141     1.0000 0.79730  0.71920  0.13010  Biso   1.000  H
  H142     1.0000 0.81080  0.64060  0.12210  Biso   1.000  H
  N12      1.0000 0.79280  0.66680  0.19970  Biso   1.000  N
  O96      1.0000 0.56380  0.51940  0.10250  Biso   1.000  O
  H143     1.0000 0.54110  0.48220  0.10160  Biso   1.000  H
  H144     1.0000 0.58130  0.53530  0.07310  Biso   1.000  H
  O97      1.0000 0.05620  0.95900  0.78770  Biso   1.000  O
  O98      1.0000 0.00230  0.89770  0.72900  Biso   1.000  O
  O99      1.0000 0.16090  0.72190  0.95110  Biso   1.000  O
  O100     1.0000 0.19140  0.82620  0.93560  Biso   1.000  O
  O101     1.0000 0.00900  0.60110  0.82990  Biso   1.000  O
  O102     1.0000 0.95250  0.65420  0.76170  Biso   1.000  O
  O103     1.0000 0.14150  0.18190  0.82490  Biso   1.000  O
  C121     1.0000 0.03440  0.90340  0.77490  Biso   1.000  C
  C122     1.0000 0.15340  0.77610  0.92560  Biso   1.000  C
  C123     1.0000 0.99010  0.65400  0.80130  Biso   1.000  C
  C124     1.0000 0.04420  0.84000  0.80590  Biso   1.000  C
  C125     1.0000 0.01300  0.77950  0.79110  Biso   1.000  C
  H145     1.0000 0.98380  0.77880  0.76080  Biso   1.000  H
  C126     1.0000 0.02410  0.72010  0.82040  Biso   1.000  C
  C127     1.0000 0.06860  0.72030  0.86540  Biso   1.000  C
  H146     1.0000 0.07600  0.68030  0.88540  Biso   1.000  H
  C128     1.0000 0.10200  0.78090  0.88040  Biso   1.000  C
  C129     1.0000 0.08910  0.84060  0.85050  Biso   1.000  C
  H147     1.0000 0.11070  0.88120  0.86040  Biso   1.000  H
  C130     1.0000 0.15410  0.22060  0.78560  Biso   1.000  C
  H148     1.0000 0.15350  0.20540  0.74800  Biso   1.000  H
  H149     1.0000 0.18980  0.36800  0.74810  Biso   1.000  H
  H150     1.0000 0.13900  0.31380  0.72360  Biso   1.000  H
  H151     1.0000 0.21700  0.29610  0.72960  Biso   1.000  H
  H152     1.0000 0.18760  0.36810  0.85300  Biso   1.000  H
  H153     1.0000 0.21920  0.29730  0.86990  Biso   1.000  H
  H154     1.0000 0.14060  0.31080  0.87790  Biso   1.000  H
  N13      1.0000 0.16680  0.29280  0.80030  Biso   1.000  N
  O104     1.0000 0.01940  0.06380  0.89750  Biso   1.000  O
  H155     1.0000 0.98220  0.04110  0.89840  Biso   1.000  H
  H156     1.0000 0.03530  0.08130  0.92690  Biso   1.000  H
  O105     1.0000 0.44380  0.54100  0.78770  Biso   1.000  O
  O106     1.0000 0.49770  0.60230  0.72900  Biso   1.000  O
  O107     1.0000 0.33910  0.77810  0.95110  Biso   1.000  O
  O108     1.0000 0.30860  0.67380  0.93560  Biso   1.000  O
  O109     1.0000 0.49100  0.89890  0.82990  Biso   1.000  O
  O110     1.0000 0.54750  0.84580  0.76170  Biso   1.000  O
  O111     1.0000 0.35850  0.31810  0.82490  Biso   1.000  O
  C131     1.0000 0.46560  0.59660  0.77490  Biso   1.000  C
  C132     1.0000 0.34660  0.72390  0.92560  Biso   1.000  C
  C133     1.0000 0.50990  0.84600  0.80130  Biso   1.000  C
  C134     1.0000 0.45580  0.66000  0.80590  Biso   1.000  C
  C135     1.0000 0.48700  0.72050  0.79110  Biso   1.000  C
  H157     1.0000 0.51620  0.72120  0.76080  Biso   1.000  H
  C136     1.0000 0.47590  0.77990  0.82040  Biso   1.000  C
  C137     1.0000 0.43140  0.77970  0.86540  Biso   1.000  C
  H158     1.0000 0.42400  0.81970  0.88540  Biso   1.000  H
  C138     1.0000 0.39800  0.71910  0.88040  Biso   1.000  C
  C139     1.0000 0.41090  0.65940  0.85050  Biso   1.000  C
  H159     1.0000 0.38930  0.61880  0.86040  Biso   1.000  H
  C140     1.0000 0.34590  0.27940  0.78560  Biso   1.000  C
  H160     1.0000 0.34650  0.29460  0.74800  Biso   1.000  H
  H161     1.0000 0.31020  0.13200  0.74810  Biso   1.000  H
  H162     1.0000 0.36100  0.18620  0.72360  Biso   1.000  H
  H163     1.0000 0.28300  0.20390  0.72960  Biso   1.000  H
  H164     1.0000 0.31240  0.13190  0.85300  Biso   1.000  H
  H165     1.0000 0.28080  0.20270  0.86990  Biso   1.000  H
  H166     1.0000 0.35940  0.18920  0.87790  Biso   1.000  H
  N14      1.0000 0.33320  0.20720  0.80030  Biso   1.000  N
  O112     1.0000 0.48060  0.43620  0.89750  Biso   1.000  O
  H167     1.0000 0.51780  0.45890  0.89840  Biso   1.000  H
  H168     1.0000 0.46470  0.41870  0.92690  Biso   1.000  H
  O113     1.0000 0.95900  0.44380  0.28770  Biso   1.000  O
  O114     1.0000 0.89770  0.49770  0.22900  Biso   1.000  O
  O115     1.0000 0.72190  0.33910  0.45110  Biso   1.000  O
  O116     1.0000 0.82620  0.30860  0.43560  Biso   1.000  O
  O117     1.0000 0.60110  0.49100  0.32990  Biso   1.000  O
  O118     1.0000 0.65420  0.54750  0.26170  Biso   1.000  O
  O119     1.0000 0.18190  0.35850  0.32490  Biso   1.000  O
  C141     1.0000 0.90340  0.46560  0.27490  Biso   1.000  C
  C142     1.0000 0.77610  0.34660  0.42560  Biso   1.000  C
  C143     1.0000 0.65400  0.50990  0.30130  Biso   1.000  C
  C144     1.0000 0.84000  0.45580  0.30590  Biso   1.000  C
  C145     1.0000 0.77950  0.48700  0.29110  Biso   1.000  C
  H169     1.0000 0.77880  0.51620  0.26080  Biso   1.000  H
  C146     1.0000 0.72010  0.47590  0.32040  Biso   1.000  C
  C147     1.0000 0.72030  0.43140  0.36540  Biso   1.000  C
  H170     1.0000 0.68030  0.42400  0.38540  Biso   1.000  H
  C148     1.0000 0.78090  0.39800  0.38040  Biso   1.000  C
  C149     1.0000 0.84060  0.41090  0.35050  Biso   1.000  C
  H171     1.0000 0.88120  0.38930  0.36040  Biso   1.000  H
  C150     1.0000 0.22060  0.34590  0.28560  Biso   1.000  C
  H172     1.0000 0.20540  0.34650  0.24800  Biso   1.000  H
  H173     1.0000 0.36800  0.31020  0.24810  Biso   1.000  H
  H174     1.0000 0.31380  0.36100  0.22360  Biso   1.000  H
  H175     1.0000 0.29610  0.28300  0.22960  Biso   1.000  H
  H176     1.0000 0.36810  0.31240  0.35300  Biso   1.000  H
  H177     1.0000 0.29730  0.28080  0.36990  Biso   1.000  H
  H178     1.0000 0.31080  0.35940  0.37790  Biso   1.000  H
  N15      1.0000 0.29280  0.33320  0.30030  Biso   1.000  N
  O120     1.0000 0.06380  0.48060  0.39750  Biso   1.000  O
  H179     1.0000 0.04110  0.51780  0.39840  Biso   1.000  H
  H180     1.0000 0.08130  0.46470  0.42690  Biso   1.000  H
  O121     1.0000 0.54100  0.05620  0.28770  Biso   1.000  O
  O122     1.0000 0.60230  0.00230  0.22900  Biso   1.000  O
  O123     1.0000 0.77810  0.16090  0.45110  Biso   1.000  O
  O124     1.0000 0.67380  0.19140  0.43560  Biso   1.000  O
  O125     1.0000 0.89890  0.00900  0.32990  Biso   1.000  O
  O126     1.0000 0.84580  0.95250  0.26170  Biso   1.000  O
  O127     1.0000 0.31810  0.14150  0.32490  Biso   1.000  O
  C151     1.0000 0.59660  0.03440  0.27490  Biso   1.000  C
  C152     1.0000 0.72390  0.15340  0.42560  Biso   1.000  C
  C153     1.0000 0.84600  0.99010  0.30130  Biso   1.000  C
  C154     1.0000 0.66000  0.04420  0.30590  Biso   1.000  C
  C155     1.0000 0.72050  0.01300  0.29110  Biso   1.000  C
  H181     1.0000 0.72120  0.98380  0.26080  Biso   1.000  H
  C156     1.0000 0.77990  0.02410  0.32040  Biso   1.000  C
  C157     1.0000 0.77970  0.06860  0.36540  Biso   1.000  C
  H182     1.0000 0.81970  0.07600  0.38540  Biso   1.000  H
  C158     1.0000 0.71910  0.10200  0.38040  Biso   1.000  C
  C159     1.0000 0.65940  0.08910  0.35050  Biso   1.000  C
  H183     1.0000 0.61880  0.11070  0.36040  Biso   1.000  H
  C160     1.0000 0.27940  0.15410  0.28560  Biso   1.000  C
  H184     1.0000 0.29460  0.15350  0.24800  Biso   1.000  H
  H185     1.0000 0.13200  0.18980  0.24810  Biso   1.000  H
  H186     1.0000 0.18620  0.13900  0.22360  Biso   1.000  H
  H187     1.0000 0.20390  0.21700  0.22960  Biso   1.000  H
  H188     1.0000 0.13190  0.18760  0.35300  Biso   1.000  H
  H189     1.0000 0.20270  0.21920  0.36990  Biso   1.000  H
  H190     1.0000 0.18920  0.14060  0.37790  Biso   1.000  H
  N16      1.0000 0.20720  0.16680  0.30030  Biso   1.000  N
  O128     1.0000 0.43620  0.01940  0.39750  Biso   1.000  O
  H191     1.0000 0.45890  0.98220  0.39840  Biso   1.000  H
  H192     1.0000 0.41870  0.03530  0.42690  Biso   1.000  H
  In1      1.0000 0.99606  0.50394  0.18996  Biso   1.000  In
  Ca1      1.0000 0.07921  0.42079  0.31218  Biso   1.000  Ca
  Cl1      1.0000 0.95749  0.54251  0.10279  Biso   1.000  Cl
  In2      1.0000 0.50394  0.99606  0.18996  Biso   1.000  In
  Ca2      1.0000 0.42079  0.07921  0.31218  Biso   1.000  Ca
  Cl2      1.0000 0.54251  0.95749  0.10279  Biso   1.000  Cl
  In3      1.0000 0.99606  0.99606  0.68996  Biso   1.000  In
  Ca3      1.0000 0.07921  0.07921  0.81218  Biso   1.000  Ca
  Cl3      1.0000 0.95749  0.95749  0.60279  Biso   1.000  Cl
  In4      1.0000 0.50394  0.50394  0.68996  Biso   1.000  In
  Ca4      1.0000 0.42079  0.42079  0.81218  Biso   1.000  Ca
  Cl4      1.0000 0.54251  0.54251  0.60279  Biso   1.000  Cl
  In5      1.0000 0.00394  0.00394  0.31004  Biso   1.000  In
  Ca5      1.0000 0.92079  0.92079  0.18782  Biso   1.000  Ca
  Cl5      1.0000 0.04251  0.04251  0.39721  Biso   1.000  Cl
  In6      1.0000 0.49606  0.49606  0.31004  Biso   1.000  In
  Ca6      1.0000 0.57921  0.57921  0.18782  Biso   1.000  Ca
  Cl6      1.0000 0.45749  0.45749  0.39721  Biso   1.000  Cl
  In7      1.0000 0.00394  0.49606  0.81004  Biso   1.000  In
  Ca7      1.0000 0.92079  0.57921  0.68782  Biso   1.000  Ca
  Cl7      1.0000 0.04251  0.45749  0.89721  Biso   1.000  Cl
  In8      1.0000 0.49606  0.00394  0.81004  Biso   1.000  In
  Ca8      1.0000 0.57921  0.92079  0.68782  Biso   1.000  Ca
  Cl8      1.0000 0.45749  0.04251  0.89721  Biso   1.000  Cl
  In9      1.0000 0.25000  0.75000  0.50000  Biso   1.000  In
  In10     1.0000 0.75000  0.25000  0.00000  Biso   1.000  In
  In11     1.0000 0.75000  0.25000  0.50000  Biso   1.000  In
  In12     1.0000 0.25000  0.75000  0.00000  Biso   1.000  In
  C161     1.0000 0.17900  0.17900  0.24590  Biso   1.000  C
  C162     1.0000 0.17960  0.17960  0.35480  Biso   1.000  C
  C163     1.0000 0.32100  0.32100  0.24590  Biso   1.000  C
  C164     1.0000 0.32040  0.32040  0.35480  Biso   1.000  C
  C165     1.0000 0.32100  0.17900  0.74590  Biso   1.000  C
  C166     1.0000 0.32040  0.17960  0.85480  Biso   1.000  C
  C167     1.0000 0.17900  0.32100  0.74590  Biso   1.000  C
  C168     1.0000 0.17960  0.32040  0.85480  Biso   1.000  C
  C169     1.0000 0.82100  0.67900  0.25410  Biso   1.000  C
  C170     1.0000 0.82040  0.67960  0.14520  Biso   1.000  C
  C171     1.0000 0.67900  0.82100  0.25410  Biso   1.000  C
  C172     1.0000 0.67960  0.82040  0.14520  Biso   1.000  C
  C173     1.0000 0.67900  0.67900  0.75410  Biso   1.000  C
  C174     1.0000 0.67960  0.67960  0.64520  Biso   1.000  C
  C175     1.0000 0.82100  0.82100  0.75410  Biso   1.000  C
  C176     1.0000 0.82040  0.82040  0.64520  Biso   1.000  C
