data_image0
_cell_length_a       16.2019
_cell_length_b       16.2019
_cell_length_c       6.8947
_cell_angle_alpha    90
_cell_angle_beta     90
_cell_angle_gamma    90

_symmetry_space_group_name_H-M    "P 1"
_symmetry_int_tables_number       1

loop_
  _symmetry_equiv_pos_as_xyz
  'x, y, z'

loop_
  _atom_site_label
  _atom_site_occupancy
  _atom_site_fract_x
  _atom_site_fract_y
  _atom_site_fract_z
  _atom_site_thermal_displace_type
  _atom_site_B_iso_or_equiv
  _atom_site_type_symbol
  O1       1.0000 0.42740  0.01790  0.56790  Biso   1.000  O
  O2       1.0000 0.32990  0.08020  0.73940  Biso   1.000  O
  N1       1.0000 0.31900  0.97260  0.28450  Biso   1.000  N
  C1       1.0000 0.35320  0.03880  0.59500  Biso   1.000  C
  C2       1.0000 0.29250  0.01050  0.45140  Biso   1.000  C
  H1       1.0000 0.29800  0.92680  0.92710  Biso   1.000  H
  H2       1.0000 0.29840  0.80340  0.09350  Biso   1.000  H
  H3       1.0000 0.36990  0.09190  0.80660  Biso   1.000  H
  H4       1.0000 0.28790  0.86410  0.00030  Biso   1.000  H
  H5       1.0000 0.26980  0.94870  0.90450  Biso   1.000  H
  C3       1.0000 0.17650  0.87800  0.91500  Biso   1.000  C
  H6       1.0000 0.18890  0.85290  0.79240  Biso   1.000  H
  H7       1.0000 0.13770  0.92180  0.89730  Biso   1.000  H
  H8       1.0000 0.15330  0.83710  0.00060  Biso   1.000  H
  O3       1.0000 0.07260  0.48210  0.56790  Biso   1.000  O
  O4       1.0000 0.17010  0.41980  0.73940  Biso   1.000  O
  N2       1.0000 0.18100  0.52740  0.28450  Biso   1.000  N
  C4       1.0000 0.14680  0.46120  0.59500  Biso   1.000  C
  C5       1.0000 0.20750  0.48950  0.45140  Biso   1.000  C
  H9       1.0000 0.20200  0.57320  0.92710  Biso   1.000  H
  H10      1.0000 0.20160  0.69660  0.09350  Biso   1.000  H
  H11      1.0000 0.13010  0.40810  0.80660  Biso   1.000  H
  H12      1.0000 0.21210  0.63590  0.00030  Biso   1.000  H
  H13      1.0000 0.23020  0.55130  0.90450  Biso   1.000  H
  C6       1.0000 0.32350  0.62200  0.91500  Biso   1.000  C
  H14      1.0000 0.31110  0.64710  0.79240  Biso   1.000  H
  H15      1.0000 0.36230  0.57820  0.89730  Biso   1.000  H
  H16      1.0000 0.34670  0.66290  0.00060  Biso   1.000  H
  O5       1.0000 0.48210  0.42740  0.06790  Biso   1.000  O
  O6       1.0000 0.41980  0.32990  0.23940  Biso   1.000  O
  N3       1.0000 0.52740  0.31900  0.78450  Biso   1.000  N
  C7       1.0000 0.46120  0.35320  0.09500  Biso   1.000  C
  C8       1.0000 0.48950  0.29250  0.95140  Biso   1.000  C
  H17      1.0000 0.57320  0.29800  0.42710  Biso   1.000  H
  H18      1.0000 0.69660  0.29840  0.59350  Biso   1.000  H
  H19      1.0000 0.40810  0.36990  0.30660  Biso   1.000  H
  H20      1.0000 0.63590  0.28790  0.50030  Biso   1.000  H
  H21      1.0000 0.55130  0.26980  0.40450  Biso   1.000  H
  C9       1.0000 0.62200  0.17650  0.41500  Biso   1.000  C
  H22      1.0000 0.64710  0.18890  0.29240  Biso   1.000  H
  H23      1.0000 0.57820  0.13770  0.39730  Biso   1.000  H
  H24      1.0000 0.66290  0.15330  0.50060  Biso   1.000  H
  O7       1.0000 0.01790  0.07260  0.06790  Biso   1.000  O
  O8       1.0000 0.08020  0.17010  0.23940  Biso   1.000  O
  N4       1.0000 0.97260  0.18100  0.78450  Biso   1.000  N
  C10      1.0000 0.03880  0.14680  0.09500  Biso   1.000  C
  C11      1.0000 0.01050  0.20750  0.95140  Biso   1.000  C
  H25      1.0000 0.92680  0.20200  0.42710  Biso   1.000  H
  H26      1.0000 0.80340  0.20160  0.59350  Biso   1.000  H
  H27      1.0000 0.09190  0.13010  0.30660  Biso   1.000  H
  H28      1.0000 0.86410  0.21210  0.50030  Biso   1.000  H
  H29      1.0000 0.94870  0.23020  0.40450  Biso   1.000  H
  C12      1.0000 0.87800  0.32350  0.41500  Biso   1.000  C
  H30      1.0000 0.85290  0.31110  0.29240  Biso   1.000  H
  H31      1.0000 0.92180  0.36230  0.39730  Biso   1.000  H
  H32      1.0000 0.83710  0.34670  0.50060  Biso   1.000  H
  O9       1.0000 0.57260  0.51790  0.43210  Biso   1.000  O
  O10      1.0000 0.67010  0.58020  0.26060  Biso   1.000  O
  N5       1.0000 0.68100  0.47260  0.71550  Biso   1.000  N
  C13      1.0000 0.64680  0.53880  0.40500  Biso   1.000  C
  C14      1.0000 0.70750  0.51050  0.54860  Biso   1.000  C
  H33      1.0000 0.70200  0.42680  0.07290  Biso   1.000  H
  H34      1.0000 0.70160  0.30340  0.90650  Biso   1.000  H
  H35      1.0000 0.63010  0.59190  0.19340  Biso   1.000  H
  H36      1.0000 0.71210  0.36410  0.99970  Biso   1.000  H
  H37      1.0000 0.73020  0.44870  0.09550  Biso   1.000  H
  C15      1.0000 0.82350  0.37800  0.08500  Biso   1.000  C
  H38      1.0000 0.81110  0.35290  0.20760  Biso   1.000  H
  H39      1.0000 0.86230  0.42180  0.10270  Biso   1.000  H
  H40      1.0000 0.84670  0.33710  0.99940  Biso   1.000  H
  O11      1.0000 0.92740  0.98210  0.43210  Biso   1.000  O
  O12      1.0000 0.82990  0.91980  0.26060  Biso   1.000  O
  N6       1.0000 0.81900  0.02740  0.71550  Biso   1.000  N
  C16      1.0000 0.85320  0.96120  0.40500  Biso   1.000  C
  C17      1.0000 0.79250  0.98950  0.54860  Biso   1.000  C
  H41      1.0000 0.79800  0.07320  0.07290  Biso   1.000  H
  H42      1.0000 0.79840  0.19660  0.90650  Biso   1.000  H
  H43      1.0000 0.86990  0.90810  0.19340  Biso   1.000  H
  H44      1.0000 0.78790  0.13590  0.99970  Biso   1.000  H
  H45      1.0000 0.76980  0.05130  0.09550  Biso   1.000  H
  C18      1.0000 0.67650  0.12200  0.08500  Biso   1.000  C
  H46      1.0000 0.68890  0.14710  0.20760  Biso   1.000  H
  H47      1.0000 0.63770  0.07820  0.10270  Biso   1.000  H
  H48      1.0000 0.65330  0.16290  0.99940  Biso   1.000  H
  O13      1.0000 0.51790  0.92740  0.93210  Biso   1.000  O
  O14      1.0000 0.58020  0.82990  0.76060  Biso   1.000  O
  N7       1.0000 0.47260  0.81900  0.21550  Biso   1.000  N
  C19      1.0000 0.53880  0.85320  0.90500  Biso   1.000  C
  C20      1.0000 0.51050  0.79250  0.04860  Biso   1.000  C
  H49      1.0000 0.42680  0.79800  0.57290  Biso   1.000  H
  H50      1.0000 0.30340  0.79840  0.40650  Biso   1.000  H
  H51      1.0000 0.59190  0.86990  0.69340  Biso   1.000  H
  H52      1.0000 0.36410  0.78790  0.49970  Biso   1.000  H
  H53      1.0000 0.44870  0.76980  0.59550  Biso   1.000  H
  C21      1.0000 0.37800  0.67650  0.58500  Biso   1.000  C
  H54      1.0000 0.35290  0.68890  0.70760  Biso   1.000  H
  H55      1.0000 0.42180  0.63770  0.60270  Biso   1.000  H
  H56      1.0000 0.33710  0.65330  0.49940  Biso   1.000  H
  O15      1.0000 0.98210  0.57260  0.93210  Biso   1.000  O
  O16      1.0000 0.91980  0.67010  0.76060  Biso   1.000  O
  N8       1.0000 0.02740  0.68100  0.21550  Biso   1.000  N
  C22      1.0000 0.96120  0.64680  0.90500  Biso   1.000  C
  C23      1.0000 0.98950  0.70750  0.04860  Biso   1.000  C
  H57      1.0000 0.07320  0.70200  0.57290  Biso   1.000  H
  H58      1.0000 0.19660  0.70160  0.40650  Biso   1.000  H
  H59      1.0000 0.90810  0.63010  0.69340  Biso   1.000  H
  H60      1.0000 0.13590  0.71210  0.49970  Biso   1.000  H
  H61      1.0000 0.05130  0.73020  0.59550  Biso   1.000  H
  C24      1.0000 0.12200  0.82350  0.58500  Biso   1.000  C
  H62      1.0000 0.14710  0.81110  0.70760  Biso   1.000  H
  H63      1.0000 0.07820  0.86230  0.60270  Biso   1.000  H
  H64      1.0000 0.16290  0.84670  0.49940  Biso   1.000  H
  O17      1.0000 0.57260  0.98210  0.43210  Biso   1.000  O
  O18      1.0000 0.67010  0.91980  0.26060  Biso   1.000  O
  N9       1.0000 0.68100  0.02740  0.71550  Biso   1.000  N
  C25      1.0000 0.64680  0.96120  0.40500  Biso   1.000  C
  C26      1.0000 0.70750  0.98950  0.54860  Biso   1.000  C
  H65      1.0000 0.70200  0.07320  0.07290  Biso   1.000  H
  H66      1.0000 0.70160  0.19660  0.90650  Biso   1.000  H
  H67      1.0000 0.63010  0.90810  0.19340  Biso   1.000  H
  H68      1.0000 0.71210  0.13590  0.99970  Biso   1.000  H
  H69      1.0000 0.73020  0.05130  0.09550  Biso   1.000  H
  C27      1.0000 0.82350  0.12200  0.08500  Biso   1.000  C
  H70      1.0000 0.81110  0.14710  0.20760  Biso   1.000  H
  H71      1.0000 0.86230  0.07820  0.10270  Biso   1.000  H
  H72      1.0000 0.84670  0.16290  0.99940  Biso   1.000  H
  O19      1.0000 0.92740  0.51790  0.43210  Biso   1.000  O
  O20      1.0000 0.82990  0.58020  0.26060  Biso   1.000  O
  N10      1.0000 0.81900  0.47260  0.71550  Biso   1.000  N
  C28      1.0000 0.85320  0.53880  0.40500  Biso   1.000  C
  C29      1.0000 0.79250  0.51050  0.54860  Biso   1.000  C
  H73      1.0000 0.79800  0.42680  0.07290  Biso   1.000  H
  H74      1.0000 0.79840  0.30340  0.90650  Biso   1.000  H
  H75      1.0000 0.86990  0.59190  0.19340  Biso   1.000  H
  H76      1.0000 0.78790  0.36410  0.99970  Biso   1.000  H
  H77      1.0000 0.76980  0.44870  0.09550  Biso   1.000  H
  C30      1.0000 0.67650  0.37800  0.08500  Biso   1.000  C
  H78      1.0000 0.68890  0.35290  0.20760  Biso   1.000  H
  H79      1.0000 0.63770  0.42180  0.10270  Biso   1.000  H
  H80      1.0000 0.65330  0.33710  0.99940  Biso   1.000  H
  O21      1.0000 0.51790  0.57260  0.93210  Biso   1.000  O
  O22      1.0000 0.58020  0.67010  0.76060  Biso   1.000  O
  N11      1.0000 0.47260  0.68100  0.21550  Biso   1.000  N
  C31      1.0000 0.53880  0.64680  0.90500  Biso   1.000  C
  C32      1.0000 0.51050  0.70750  0.04860  Biso   1.000  C
  H81      1.0000 0.42680  0.70200  0.57290  Biso   1.000  H
  H82      1.0000 0.30340  0.70160  0.40650  Biso   1.000  H
  H83      1.0000 0.59190  0.63010  0.69340  Biso   1.000  H
  H84      1.0000 0.36410  0.71210  0.49970  Biso   1.000  H
  H85      1.0000 0.44870  0.73020  0.59550  Biso   1.000  H
  C33      1.0000 0.37800  0.82350  0.58500  Biso   1.000  C
  H86      1.0000 0.35290  0.81110  0.70760  Biso   1.000  H
  H87      1.0000 0.42180  0.86230  0.60270  Biso   1.000  H
  H88      1.0000 0.33710  0.84670  0.49940  Biso   1.000  H
  O23      1.0000 0.98210  0.92740  0.93210  Biso   1.000  O
  O24      1.0000 0.91980  0.82990  0.76060  Biso   1.000  O
  N12      1.0000 0.02740  0.81900  0.21550  Biso   1.000  N
  C34      1.0000 0.96120  0.85320  0.90500  Biso   1.000  C
  C35      1.0000 0.98950  0.79250  0.04860  Biso   1.000  C
  H89      1.0000 0.07320  0.79800  0.57290  Biso   1.000  H
  H90      1.0000 0.19660  0.79840  0.40650  Biso   1.000  H
  H91      1.0000 0.90810  0.86990  0.69340  Biso   1.000  H
  H92      1.0000 0.13590  0.78790  0.49970  Biso   1.000  H
  H93      1.0000 0.05130  0.76980  0.59550  Biso   1.000  H
  C36      1.0000 0.12200  0.67650  0.58500  Biso   1.000  C
  H94      1.0000 0.14710  0.68890  0.70760  Biso   1.000  H
  H95      1.0000 0.07820  0.63770  0.60270  Biso   1.000  H
  H96      1.0000 0.16290  0.65330  0.49940  Biso   1.000  H
  O25      1.0000 0.42740  0.48210  0.56790  Biso   1.000  O
  O26      1.0000 0.32990  0.41980  0.73940  Biso   1.000  O
  N13      1.0000 0.31900  0.52740  0.28450  Biso   1.000  N
  C37      1.0000 0.35320  0.46120  0.59500  Biso   1.000  C
  C38      1.0000 0.29250  0.48950  0.45140  Biso   1.000  C
  H97      1.0000 0.29800  0.57320  0.92710  Biso   1.000  H
  H98      1.0000 0.29840  0.69660  0.09350  Biso   1.000  H
  H99      1.0000 0.36990  0.40810  0.80660  Biso   1.000  H
  H100     1.0000 0.28790  0.63590  0.00030  Biso   1.000  H
  H101     1.0000 0.26980  0.55130  0.90450  Biso   1.000  H
  C39      1.0000 0.17650  0.62200  0.91500  Biso   1.000  C
  H102     1.0000 0.18890  0.64710  0.79240  Biso   1.000  H
  H103     1.0000 0.13770  0.57820  0.89730  Biso   1.000  H
  H104     1.0000 0.15330  0.66290  0.00060  Biso   1.000  H
  O27      1.0000 0.07260  0.01790  0.56790  Biso   1.000  O
  O28      1.0000 0.17010  0.08020  0.73940  Biso   1.000  O
  N14      1.0000 0.18100  0.97260  0.28450  Biso   1.000  N
  C40      1.0000 0.14680  0.03880  0.59500  Biso   1.000  C
  C41      1.0000 0.20750  0.01050  0.45140  Biso   1.000  C
  H105     1.0000 0.20200  0.92680  0.92710  Biso   1.000  H
  H106     1.0000 0.20160  0.80340  0.09350  Biso   1.000  H
  H107     1.0000 0.13010  0.09190  0.80660  Biso   1.000  H
  H108     1.0000 0.21210  0.86410  0.00030  Biso   1.000  H
  H109     1.0000 0.23020  0.94870  0.90450  Biso   1.000  H
  C42      1.0000 0.32350  0.87800  0.91500  Biso   1.000  C
  H110     1.0000 0.31110  0.85290  0.79240  Biso   1.000  H
  H111     1.0000 0.36230  0.92180  0.89730  Biso   1.000  H
  H112     1.0000 0.34670  0.83710  0.00060  Biso   1.000  H
  O29      1.0000 0.48210  0.07260  0.06790  Biso   1.000  O
  O30      1.0000 0.41980  0.17010  0.23940  Biso   1.000  O
  N15      1.0000 0.52740  0.18100  0.78450  Biso   1.000  N
  C43      1.0000 0.46120  0.14680  0.09500  Biso   1.000  C
  C44      1.0000 0.48950  0.20750  0.95140  Biso   1.000  C
  H113     1.0000 0.57320  0.20200  0.42710  Biso   1.000  H
  H114     1.0000 0.69660  0.20160  0.59350  Biso   1.000  H
  H115     1.0000 0.40810  0.13010  0.30660  Biso   1.000  H
  H116     1.0000 0.63590  0.21210  0.50030  Biso   1.000  H
  H117     1.0000 0.55130  0.23020  0.40450  Biso   1.000  H
  C45      1.0000 0.62200  0.32350  0.41500  Biso   1.000  C
  H118     1.0000 0.64710  0.31110  0.29240  Biso   1.000  H
  H119     1.0000 0.57820  0.36230  0.39730  Biso   1.000  H
  H120     1.0000 0.66290  0.34670  0.50060  Biso   1.000  H
  O31      1.0000 0.01790  0.42740  0.06790  Biso   1.000  O
  O32      1.0000 0.08020  0.32990  0.23940  Biso   1.000  O
  N16      1.0000 0.97260  0.31900  0.78450  Biso   1.000  N
  C46      1.0000 0.03880  0.35320  0.09500  Biso   1.000  C
  C47      1.0000 0.01050  0.29250  0.95140  Biso   1.000  C
  H121     1.0000 0.92680  0.29800  0.42710  Biso   1.000  H
  H122     1.0000 0.80340  0.29840  0.59350  Biso   1.000  H
  H123     1.0000 0.09190  0.36990  0.30660  Biso   1.000  H
  H124     1.0000 0.86410  0.28790  0.50030  Biso   1.000  H
  H125     1.0000 0.94870  0.26980  0.40450  Biso   1.000  H
  C48      1.0000 0.87800  0.17650  0.41500  Biso   1.000  C
  H126     1.0000 0.85290  0.18890  0.29240  Biso   1.000  H
  H127     1.0000 0.92180  0.13770  0.39730  Biso   1.000  H
  H128     1.0000 0.83710  0.15330  0.50060  Biso   1.000  H
  Cd1      1.0000 0.45735  0.95735  0.25000  Biso   1.000  Cd
  Cd2      1.0000 0.04265  0.54265  0.25000  Biso   1.000  Cd
  Cd3      1.0000 0.54265  0.45735  0.75000  Biso   1.000  Cd
  Cd4      1.0000 0.95735  0.04265  0.75000  Biso   1.000  Cd
  Cd5      1.0000 0.54265  0.04265  0.75000  Biso   1.000  Cd
  Cd6      1.0000 0.95735  0.45735  0.75000  Biso   1.000  Cd
  Cd7      1.0000 0.45735  0.54265  0.25000  Biso   1.000  Cd
  Cd8      1.0000 0.04265  0.95735  0.25000  Biso   1.000  Cd
  C49      1.0000 0.25000  0.95140  0.18750  Biso   1.000  C
  C50      1.0000 0.25000  0.90960  0.99820  Biso   1.000  C
  C51      1.0000 0.25000  0.81920  0.02200  Biso   1.000  C
  H129     1.0000 0.25000  0.79220  0.89830  Biso   1.000  H
  C52      1.0000 0.25000  0.54860  0.18750  Biso   1.000  C
  C53      1.0000 0.25000  0.59040  0.99820  Biso   1.000  C
  C54      1.0000 0.25000  0.68080  0.02200  Biso   1.000  C
  H130     1.0000 0.25000  0.70780  0.89830  Biso   1.000  H
  C55      1.0000 0.54860  0.25000  0.68750  Biso   1.000  C
  C56      1.0000 0.59040  0.25000  0.49820  Biso   1.000  C
  C57      1.0000 0.68080  0.25000  0.52200  Biso   1.000  C
  H131     1.0000 0.70780  0.25000  0.39830  Biso   1.000  H
  C58      1.0000 0.95140  0.25000  0.68750  Biso   1.000  C
  C59      1.0000 0.90960  0.25000  0.49820  Biso   1.000  C
  C60      1.0000 0.81920  0.25000  0.52200  Biso   1.000  C
  H132     1.0000 0.79220  0.25000  0.39830  Biso   1.000  H
  C61      1.0000 0.75000  0.45140  0.81250  Biso   1.000  C
  C62      1.0000 0.75000  0.40960  0.00180  Biso   1.000  C
  C63      1.0000 0.75000  0.31920  0.97800  Biso   1.000  C
  H133     1.0000 0.75000  0.29220  0.10170  Biso   1.000  H
  C64      1.0000 0.75000  0.04860  0.81250  Biso   1.000  C
  C65      1.0000 0.75000  0.09040  0.00180  Biso   1.000  C
  C66      1.0000 0.75000  0.18080  0.97800  Biso   1.000  C
  H134     1.0000 0.75000  0.20780  0.10170  Biso   1.000  H
  C67      1.0000 0.45140  0.75000  0.31250  Biso   1.000  C
  C68      1.0000 0.40960  0.75000  0.50180  Biso   1.000  C
  C69      1.0000 0.31920  0.75000  0.47800  Biso   1.000  C
  H135     1.0000 0.29220  0.75000  0.60170  Biso   1.000  H
  C70      1.0000 0.04860  0.75000  0.31250  Biso   1.000  C
  C71      1.0000 0.09040  0.75000  0.50180  Biso   1.000  C
  C72      1.0000 0.18080  0.75000  0.47800  Biso   1.000  C
  H136     1.0000 0.20780  0.75000  0.60170  Biso   1.000  H
