data_image0
_cell_length_a       22.5557
_cell_length_b       22.5557
_cell_length_c       22.5557
_cell_angle_alpha    90
_cell_angle_beta     90
_cell_angle_gamma    90

_symmetry_space_group_name_H-M    "P 1"
_symmetry_int_tables_number       1

loop_
  _symmetry_equiv_pos_as_xyz
  'x, y, z'

loop_
  _atom_site_label
  _atom_site_occupancy
  _atom_site_fract_x
  _atom_site_fract_y
  _atom_site_fract_z
  _atom_site_thermal_displace_type
  _atom_site_B_iso_or_equiv
  _atom_site_type_symbol
  O1       1.0000 0.43701  0.24728  0.24567  Biso   1.000  O
  O2       1.0000 0.34068  0.25989  0.24766  Biso   1.000  O
  N1       1.0000 0.43330  0.13360  0.23400  Biso   1.000  N
  N2       1.0000 0.42370  0.07560  0.23280  Biso   1.000  N
  C1       1.0000 0.38010  0.16270  0.24960  Biso   1.000  C
  C2       1.0000 0.38450  0.22775  0.24780  Biso   1.000  C
  N3       1.0000 0.23790  0.36480  0.06770  Biso   1.000  N
  O3       1.0000 0.56299  0.75272  0.24567  Biso   1.000  O
  O4       1.0000 0.65932  0.74011  0.24766  Biso   1.000  O
  N4       1.0000 0.56670  0.86640  0.23400  Biso   1.000  N
  N5       1.0000 0.57630  0.92440  0.23280  Biso   1.000  N
  C3       1.0000 0.61990  0.83730  0.24960  Biso   1.000  C
  C4       1.0000 0.61550  0.77225  0.24780  Biso   1.000  C
  N6       1.0000 0.76210  0.63520  0.06770  Biso   1.000  N
  O5       1.0000 0.56299  0.24728  0.75433  Biso   1.000  O
  O6       1.0000 0.65932  0.25989  0.75234  Biso   1.000  O
  N7       1.0000 0.56670  0.13360  0.76600  Biso   1.000  N
  N8       1.0000 0.57630  0.07560  0.76720  Biso   1.000  N
  C5       1.0000 0.61990  0.16270  0.75040  Biso   1.000  C
  C6       1.0000 0.61550  0.22775  0.75220  Biso   1.000  C
  N9       1.0000 0.76210  0.36480  0.93230  Biso   1.000  N
  O7       1.0000 0.43701  0.75272  0.75433  Biso   1.000  O
  O8       1.0000 0.34068  0.74011  0.75234  Biso   1.000  O
  N10      1.0000 0.43330  0.86640  0.76600  Biso   1.000  N
  N11      1.0000 0.42370  0.92440  0.76720  Biso   1.000  N
  C7       1.0000 0.38010  0.83730  0.75040  Biso   1.000  C
  C8       1.0000 0.38450  0.77225  0.75220  Biso   1.000  C
  N12      1.0000 0.23790  0.63520  0.93230  Biso   1.000  N
  O9       1.0000 0.24567  0.43701  0.24728  Biso   1.000  O
  O10      1.0000 0.24766  0.34068  0.25989  Biso   1.000  O
  N13      1.0000 0.23400  0.43330  0.13360  Biso   1.000  N
  N14      1.0000 0.23280  0.42370  0.07560  Biso   1.000  N
  C9       1.0000 0.24960  0.38010  0.16270  Biso   1.000  C
  C10      1.0000 0.24780  0.38450  0.22775  Biso   1.000  C
  N15      1.0000 0.06770  0.23790  0.36480  Biso   1.000  N
  O11      1.0000 0.24567  0.56299  0.75272  Biso   1.000  O
  O12      1.0000 0.24766  0.65932  0.74011  Biso   1.000  O
  N16      1.0000 0.23400  0.56670  0.86640  Biso   1.000  N
  N17      1.0000 0.23280  0.57630  0.92440  Biso   1.000  N
  C11      1.0000 0.24960  0.61990  0.83730  Biso   1.000  C
  C12      1.0000 0.24780  0.61550  0.77225  Biso   1.000  C
  N18      1.0000 0.06770  0.76210  0.63520  Biso   1.000  N
  O13      1.0000 0.75433  0.56299  0.24728  Biso   1.000  O
  O14      1.0000 0.75234  0.65932  0.25989  Biso   1.000  O
  N19      1.0000 0.76600  0.56670  0.13360  Biso   1.000  N
  N20      1.0000 0.76720  0.57630  0.07560  Biso   1.000  N
  C13      1.0000 0.75040  0.61990  0.16270  Biso   1.000  C
  C14      1.0000 0.75220  0.61550  0.22775  Biso   1.000  C
  N21      1.0000 0.93230  0.76210  0.36480  Biso   1.000  N
  O15      1.0000 0.75433  0.43701  0.75272  Biso   1.000  O
  O16      1.0000 0.75234  0.34068  0.74011  Biso   1.000  O
  N22      1.0000 0.76600  0.43330  0.86640  Biso   1.000  N
  N23      1.0000 0.76720  0.42370  0.92440  Biso   1.000  N
  C15      1.0000 0.75040  0.38010  0.83730  Biso   1.000  C
  C16      1.0000 0.75220  0.38450  0.77225  Biso   1.000  C
  N24      1.0000 0.93230  0.23790  0.63520  Biso   1.000  N
  O17      1.0000 0.24728  0.24567  0.43701  Biso   1.000  O
  O18      1.0000 0.25989  0.24766  0.34068  Biso   1.000  O
  N25      1.0000 0.13360  0.23400  0.43330  Biso   1.000  N
  N26      1.0000 0.07560  0.23280  0.42370  Biso   1.000  N
  C17      1.0000 0.16270  0.24960  0.38010  Biso   1.000  C
  C18      1.0000 0.22775  0.24780  0.38450  Biso   1.000  C
  N27      1.0000 0.36480  0.06770  0.23790  Biso   1.000  N
  O19      1.0000 0.75272  0.24567  0.56299  Biso   1.000  O
  O20      1.0000 0.74011  0.24766  0.65932  Biso   1.000  O
  N28      1.0000 0.86640  0.23400  0.56670  Biso   1.000  N
  N29      1.0000 0.92440  0.23280  0.57630  Biso   1.000  N
  C19      1.0000 0.83730  0.24960  0.61990  Biso   1.000  C
  C20      1.0000 0.77225  0.24780  0.61550  Biso   1.000  C
  N30      1.0000 0.63520  0.06770  0.76210  Biso   1.000  N
  O21      1.0000 0.24728  0.75433  0.56299  Biso   1.000  O
  O22      1.0000 0.25989  0.75234  0.65932  Biso   1.000  O
  N31      1.0000 0.13360  0.76600  0.56670  Biso   1.000  N
  N32      1.0000 0.07560  0.76720  0.57630  Biso   1.000  N
  C21      1.0000 0.16270  0.75040  0.61990  Biso   1.000  C
  C22      1.0000 0.22775  0.75220  0.61550  Biso   1.000  C
  N33      1.0000 0.36480  0.93230  0.76210  Biso   1.000  N
  O23      1.0000 0.75272  0.75433  0.43701  Biso   1.000  O
  O24      1.0000 0.74011  0.75234  0.34068  Biso   1.000  O
  N34      1.0000 0.86640  0.76600  0.43330  Biso   1.000  N
  N35      1.0000 0.92440  0.76720  0.42370  Biso   1.000  N
  C23      1.0000 0.83730  0.75040  0.38010  Biso   1.000  C
  C24      1.0000 0.77225  0.75220  0.38450  Biso   1.000  C
  N36      1.0000 0.63520  0.93230  0.23790  Biso   1.000  N
  O25      1.0000 0.74728  0.93701  0.25433  Biso   1.000  O
  O26      1.0000 0.75989  0.84068  0.25234  Biso   1.000  O
  N37      1.0000 0.63360  0.93330  0.26600  Biso   1.000  N
  N38      1.0000 0.57560  0.92370  0.26720  Biso   1.000  N
  C25      1.0000 0.66270  0.88010  0.25040  Biso   1.000  C
  C26      1.0000 0.72775  0.88450  0.25220  Biso   1.000  C
  N39      1.0000 0.86480  0.73790  0.43230  Biso   1.000  N
  O27      1.0000 0.25272  0.06299  0.25433  Biso   1.000  O
  O28      1.0000 0.24011  0.15932  0.25234  Biso   1.000  O
  N40      1.0000 0.36640  0.06670  0.26600  Biso   1.000  N
  N41      1.0000 0.42440  0.07630  0.26720  Biso   1.000  N
  C27      1.0000 0.33730  0.11990  0.25040  Biso   1.000  C
  C28      1.0000 0.27225  0.11550  0.25220  Biso   1.000  C
  N42      1.0000 0.13520  0.26210  0.43230  Biso   1.000  N
  O29      1.0000 0.74728  0.06299  0.74567  Biso   1.000  O
  O30      1.0000 0.75989  0.15932  0.74766  Biso   1.000  O
  N43      1.0000 0.63360  0.06670  0.73400  Biso   1.000  N
  N44      1.0000 0.57560  0.07630  0.73280  Biso   1.000  N
  C29      1.0000 0.66270  0.11990  0.74960  Biso   1.000  C
  C30      1.0000 0.72775  0.11550  0.74780  Biso   1.000  C
  N45      1.0000 0.86480  0.26210  0.56770  Biso   1.000  N
  O31      1.0000 0.25272  0.93701  0.74567  Biso   1.000  O
  O32      1.0000 0.24011  0.84068  0.74766  Biso   1.000  O
  N46      1.0000 0.36640  0.93330  0.73400  Biso   1.000  N
  N47      1.0000 0.42440  0.92370  0.73280  Biso   1.000  N
  C31      1.0000 0.33730  0.88010  0.74960  Biso   1.000  C
  C32      1.0000 0.27225  0.88450  0.74780  Biso   1.000  C
  N48      1.0000 0.13520  0.73790  0.56770  Biso   1.000  N
  O33      1.0000 0.93701  0.74567  0.25272  Biso   1.000  O
  O34      1.0000 0.84068  0.74766  0.24011  Biso   1.000  O
  N49      1.0000 0.93330  0.73400  0.36640  Biso   1.000  N
  N50      1.0000 0.92370  0.73280  0.42440  Biso   1.000  N
  C33      1.0000 0.88010  0.74960  0.33730  Biso   1.000  C
  C34      1.0000 0.88450  0.74780  0.27225  Biso   1.000  C
  N51      1.0000 0.73790  0.56770  0.13520  Biso   1.000  N
  O35      1.0000 0.06299  0.74567  0.74728  Biso   1.000  O
  O36      1.0000 0.15932  0.74766  0.75989  Biso   1.000  O
  N52      1.0000 0.06670  0.73400  0.63360  Biso   1.000  N
  N53      1.0000 0.07630  0.73280  0.57560  Biso   1.000  N
  C35      1.0000 0.11990  0.74960  0.66270  Biso   1.000  C
  C36      1.0000 0.11550  0.74780  0.72775  Biso   1.000  C
  N54      1.0000 0.26210  0.56770  0.86480  Biso   1.000  N
  O37      1.0000 0.06299  0.25433  0.25272  Biso   1.000  O
  O38      1.0000 0.15932  0.25234  0.24011  Biso   1.000  O
  N55      1.0000 0.06670  0.26600  0.36640  Biso   1.000  N
  N56      1.0000 0.07630  0.26720  0.42440  Biso   1.000  N
  C37      1.0000 0.11990  0.25040  0.33730  Biso   1.000  C
  C38      1.0000 0.11550  0.25220  0.27225  Biso   1.000  C
  N57      1.0000 0.26210  0.43230  0.13520  Biso   1.000  N
  O39      1.0000 0.93701  0.25433  0.74728  Biso   1.000  O
  O40      1.0000 0.84068  0.25234  0.75989  Biso   1.000  O
  N58      1.0000 0.93330  0.26600  0.63360  Biso   1.000  N
  N59      1.0000 0.92370  0.26720  0.57560  Biso   1.000  N
  C39      1.0000 0.88010  0.25040  0.66270  Biso   1.000  C
  C40      1.0000 0.88450  0.25220  0.72775  Biso   1.000  C
  N60      1.0000 0.73790  0.43230  0.86480  Biso   1.000  N
  O41      1.0000 0.74567  0.74728  0.06299  Biso   1.000  O
  O42      1.0000 0.74766  0.75989  0.15932  Biso   1.000  O
  N61      1.0000 0.73400  0.63360  0.06670  Biso   1.000  N
  N62      1.0000 0.73280  0.57560  0.07630  Biso   1.000  N
  C41      1.0000 0.74960  0.66270  0.11990  Biso   1.000  C
  C42      1.0000 0.74780  0.72775  0.11550  Biso   1.000  C
  N63      1.0000 0.56770  0.86480  0.26210  Biso   1.000  N
  O43      1.0000 0.74567  0.25272  0.93701  Biso   1.000  O
  O44      1.0000 0.74766  0.24011  0.84068  Biso   1.000  O
  N64      1.0000 0.73400  0.36640  0.93330  Biso   1.000  N
  N65      1.0000 0.73280  0.42440  0.92370  Biso   1.000  N
  C43      1.0000 0.74960  0.33730  0.88010  Biso   1.000  C
  C44      1.0000 0.74780  0.27225  0.88450  Biso   1.000  C
  N66      1.0000 0.56770  0.13520  0.73790  Biso   1.000  N
  O45      1.0000 0.25433  0.74728  0.93701  Biso   1.000  O
  O46      1.0000 0.25234  0.75989  0.84068  Biso   1.000  O
  N67      1.0000 0.26600  0.63360  0.93330  Biso   1.000  N
  N68      1.0000 0.26720  0.57560  0.92370  Biso   1.000  N
  C45      1.0000 0.25040  0.66270  0.88010  Biso   1.000  C
  C46      1.0000 0.25220  0.72775  0.88450  Biso   1.000  C
  N69      1.0000 0.43230  0.86480  0.73790  Biso   1.000  N
  O47      1.0000 0.25433  0.25272  0.06299  Biso   1.000  O
  O48      1.0000 0.25234  0.24011  0.15932  Biso   1.000  O
  N70      1.0000 0.26600  0.36640  0.06670  Biso   1.000  N
  N71      1.0000 0.26720  0.42440  0.07630  Biso   1.000  N
  C47      1.0000 0.25040  0.33730  0.11990  Biso   1.000  C
  C48      1.0000 0.25220  0.27225  0.11550  Biso   1.000  C
  N72      1.0000 0.43230  0.13520  0.26210  Biso   1.000  N
  O49      1.0000 0.56299  0.75272  0.75433  Biso   1.000  O
  O50      1.0000 0.65932  0.74011  0.75234  Biso   1.000  O
  N73      1.0000 0.56670  0.86640  0.76600  Biso   1.000  N
  N74      1.0000 0.57630  0.92440  0.76720  Biso   1.000  N
  C49      1.0000 0.61990  0.83730  0.75040  Biso   1.000  C
  C50      1.0000 0.61550  0.77225  0.75220  Biso   1.000  C
  N75      1.0000 0.76210  0.63520  0.93230  Biso   1.000  N
  O51      1.0000 0.43701  0.24728  0.75433  Biso   1.000  O
  O52      1.0000 0.34068  0.25989  0.75234  Biso   1.000  O
  N76      1.0000 0.43330  0.13360  0.76600  Biso   1.000  N
  N77      1.0000 0.42370  0.07560  0.76720  Biso   1.000  N
  C51      1.0000 0.38010  0.16270  0.75040  Biso   1.000  C
  C52      1.0000 0.38450  0.22775  0.75220  Biso   1.000  C
  N78      1.0000 0.23790  0.36480  0.93230  Biso   1.000  N
  O53      1.0000 0.43701  0.75272  0.24567  Biso   1.000  O
  O54      1.0000 0.34068  0.74011  0.24766  Biso   1.000  O
  N79      1.0000 0.43330  0.86640  0.23400  Biso   1.000  N
  N80      1.0000 0.42370  0.92440  0.23280  Biso   1.000  N
  C53      1.0000 0.38010  0.83730  0.24960  Biso   1.000  C
  C54      1.0000 0.38450  0.77225  0.24780  Biso   1.000  C
  N81      1.0000 0.23790  0.63520  0.06770  Biso   1.000  N
  O55      1.0000 0.56299  0.24728  0.24567  Biso   1.000  O
  O56      1.0000 0.65932  0.25989  0.24766  Biso   1.000  O
  N82      1.0000 0.56670  0.13360  0.23400  Biso   1.000  N
  N83      1.0000 0.57630  0.07560  0.23280  Biso   1.000  N
  C55      1.0000 0.61990  0.16270  0.24960  Biso   1.000  C
  C56      1.0000 0.61550  0.22775  0.24780  Biso   1.000  C
  N84      1.0000 0.76210  0.36480  0.06770  Biso   1.000  N
  O57      1.0000 0.75433  0.56299  0.75272  Biso   1.000  O
  O58      1.0000 0.75234  0.65932  0.74011  Biso   1.000  O
  N85      1.0000 0.76600  0.56670  0.86640  Biso   1.000  N
  N86      1.0000 0.76720  0.57630  0.92440  Biso   1.000  N
  C57      1.0000 0.75040  0.61990  0.83730  Biso   1.000  C
  C58      1.0000 0.75220  0.61550  0.77225  Biso   1.000  C
  N87      1.0000 0.93230  0.76210  0.63520  Biso   1.000  N
  O59      1.0000 0.75433  0.43701  0.24728  Biso   1.000  O
  O60      1.0000 0.75234  0.34068  0.25989  Biso   1.000  O
  N88      1.0000 0.76600  0.43330  0.13360  Biso   1.000  N
  N89      1.0000 0.76720  0.42370  0.07560  Biso   1.000  N
  C59      1.0000 0.75040  0.38010  0.16270  Biso   1.000  C
  C60      1.0000 0.75220  0.38450  0.22775  Biso   1.000  C
  N90      1.0000 0.93230  0.23790  0.36480  Biso   1.000  N
  O61      1.0000 0.24567  0.43701  0.75272  Biso   1.000  O
  O62      1.0000 0.24766  0.34068  0.74011  Biso   1.000  O
  N91      1.0000 0.23400  0.43330  0.86640  Biso   1.000  N
  N92      1.0000 0.23280  0.42370  0.92440  Biso   1.000  N
  C61      1.0000 0.24960  0.38010  0.83730  Biso   1.000  C
  C62      1.0000 0.24780  0.38450  0.77225  Biso   1.000  C
  N93      1.0000 0.06770  0.23790  0.63520  Biso   1.000  N
  O63      1.0000 0.24567  0.56299  0.24728  Biso   1.000  O
  O64      1.0000 0.24766  0.65932  0.25989  Biso   1.000  O
  N94      1.0000 0.23400  0.56670  0.13360  Biso   1.000  N
  N95      1.0000 0.23280  0.57630  0.07560  Biso   1.000  N
  C63      1.0000 0.24960  0.61990  0.16270  Biso   1.000  C
  C64      1.0000 0.24780  0.61550  0.22775  Biso   1.000  C
  N96      1.0000 0.06770  0.76210  0.36480  Biso   1.000  N
  O65      1.0000 0.75272  0.75433  0.56299  Biso   1.000  O
  O66      1.0000 0.74011  0.75234  0.65932  Biso   1.000  O
  N97      1.0000 0.86640  0.76600  0.56670  Biso   1.000  N
  N98      1.0000 0.92440  0.76720  0.57630  Biso   1.000  N
  C65      1.0000 0.83730  0.75040  0.61990  Biso   1.000  C
  C66      1.0000 0.77225  0.75220  0.61550  Biso   1.000  C
  N99      1.0000 0.63520  0.93230  0.76210  Biso   1.000  N
  O67      1.0000 0.24728  0.75433  0.43701  Biso   1.000  O
  O68      1.0000 0.25989  0.75234  0.34068  Biso   1.000  O
  N100     1.0000 0.13360  0.76600  0.43330  Biso   1.000  N
  N101     1.0000 0.07560  0.76720  0.42370  Biso   1.000  N
  C67      1.0000 0.16270  0.75040  0.38010  Biso   1.000  C
  C68      1.0000 0.22775  0.75220  0.38450  Biso   1.000  C
  N102     1.0000 0.36480  0.93230  0.23790  Biso   1.000  N
  O69      1.0000 0.75272  0.24567  0.43701  Biso   1.000  O
  O70      1.0000 0.74011  0.24766  0.34068  Biso   1.000  O
  N103     1.0000 0.86640  0.23400  0.43330  Biso   1.000  N
  N104     1.0000 0.92440  0.23280  0.42370  Biso   1.000  N
  C69      1.0000 0.83730  0.24960  0.38010  Biso   1.000  C
  C70      1.0000 0.77225  0.24780  0.38450  Biso   1.000  C
  N105     1.0000 0.63520  0.06770  0.23790  Biso   1.000  N
  O71      1.0000 0.24728  0.24567  0.56299  Biso   1.000  O
  O72      1.0000 0.25989  0.24766  0.65932  Biso   1.000  O
  N106     1.0000 0.13360  0.23400  0.56670  Biso   1.000  N
  N107     1.0000 0.07560  0.23280  0.57630  Biso   1.000  N
  C71      1.0000 0.16270  0.24960  0.61990  Biso   1.000  C
  C72      1.0000 0.22775  0.24780  0.61550  Biso   1.000  C
  N108     1.0000 0.36480  0.06770  0.76210  Biso   1.000  N
  O73      1.0000 0.25272  0.06299  0.74567  Biso   1.000  O
  O74      1.0000 0.24011  0.15932  0.74766  Biso   1.000  O
  N109     1.0000 0.36640  0.06670  0.73400  Biso   1.000  N
  N110     1.0000 0.42440  0.07630  0.73280  Biso   1.000  N
  C73      1.0000 0.33730  0.11990  0.74960  Biso   1.000  C
  C74      1.0000 0.27225  0.11550  0.74780  Biso   1.000  C
  N111     1.0000 0.13520  0.26210  0.56770  Biso   1.000  N
  O75      1.0000 0.74728  0.93701  0.74567  Biso   1.000  O
  O76      1.0000 0.75989  0.84068  0.74766  Biso   1.000  O
  N112     1.0000 0.63360  0.93330  0.73400  Biso   1.000  N
  N113     1.0000 0.57560  0.92370  0.73280  Biso   1.000  N
  C75      1.0000 0.66270  0.88010  0.74960  Biso   1.000  C
  C76      1.0000 0.72775  0.88450  0.74780  Biso   1.000  C
  N114     1.0000 0.86480  0.73790  0.56770  Biso   1.000  N
  O77      1.0000 0.25272  0.93701  0.25433  Biso   1.000  O
  O78      1.0000 0.24011  0.84068  0.25234  Biso   1.000  O
  N115     1.0000 0.36640  0.93330  0.26600  Biso   1.000  N
  N116     1.0000 0.42440  0.92370  0.26720  Biso   1.000  N
  C77      1.0000 0.33730  0.88010  0.25040  Biso   1.000  C
  C78      1.0000 0.27225  0.88450  0.25220  Biso   1.000  C
  N117     1.0000 0.13520  0.73790  0.43230  Biso   1.000  N
  O79      1.0000 0.74728  0.06299  0.25433  Biso   1.000  O
  O80      1.0000 0.75989  0.15932  0.25234  Biso   1.000  O
  N118     1.0000 0.63360  0.06670  0.26600  Biso   1.000  N
  N119     1.0000 0.57560  0.07630  0.26720  Biso   1.000  N
  C79      1.0000 0.66270  0.11990  0.25040  Biso   1.000  C
  C80      1.0000 0.72775  0.11550  0.25220  Biso   1.000  C
  N120     1.0000 0.86480  0.26210  0.43230  Biso   1.000  N
  O81      1.0000 0.06299  0.25433  0.74728  Biso   1.000  O
  O82      1.0000 0.15932  0.25234  0.75989  Biso   1.000  O
  N121     1.0000 0.06670  0.26600  0.63360  Biso   1.000  N
  N122     1.0000 0.07630  0.26720  0.57560  Biso   1.000  N
  C81      1.0000 0.11990  0.25040  0.66270  Biso   1.000  C
  C82      1.0000 0.11550  0.25220  0.72775  Biso   1.000  C
  N123     1.0000 0.26210  0.43230  0.86480  Biso   1.000  N
  O83      1.0000 0.93701  0.25433  0.25272  Biso   1.000  O
  O84      1.0000 0.84068  0.25234  0.24011  Biso   1.000  O
  N124     1.0000 0.93330  0.26600  0.36640  Biso   1.000  N
  N125     1.0000 0.92370  0.26720  0.42440  Biso   1.000  N
  C83      1.0000 0.88010  0.25040  0.33730  Biso   1.000  C
  C84      1.0000 0.88450  0.25220  0.27225  Biso   1.000  C
  N126     1.0000 0.73790  0.43230  0.13520  Biso   1.000  N
  O85      1.0000 0.93701  0.74567  0.74728  Biso   1.000  O
  O86      1.0000 0.84068  0.74766  0.75989  Biso   1.000  O
  N127     1.0000 0.93330  0.73400  0.63360  Biso   1.000  N
  N128     1.0000 0.92370  0.73280  0.57560  Biso   1.000  N
  C85      1.0000 0.88010  0.74960  0.66270  Biso   1.000  C
  C86      1.0000 0.88450  0.74780  0.72775  Biso   1.000  C
  N129     1.0000 0.73790  0.56770  0.86480  Biso   1.000  N
  O87      1.0000 0.06299  0.74567  0.25272  Biso   1.000  O
  O88      1.0000 0.15932  0.74766  0.24011  Biso   1.000  O
  N130     1.0000 0.06670  0.73400  0.36640  Biso   1.000  N
  N131     1.0000 0.07630  0.73280  0.42440  Biso   1.000  N
  C87      1.0000 0.11990  0.74960  0.33730  Biso   1.000  C
  C88      1.0000 0.11550  0.74780  0.27225  Biso   1.000  C
  N132     1.0000 0.26210  0.56770  0.13520  Biso   1.000  N
  O89      1.0000 0.25433  0.25272  0.93701  Biso   1.000  O
  O90      1.0000 0.25234  0.24011  0.84068  Biso   1.000  O
  N133     1.0000 0.26600  0.36640  0.93330  Biso   1.000  N
  N134     1.0000 0.26720  0.42440  0.92370  Biso   1.000  N
  C89      1.0000 0.25040  0.33730  0.88010  Biso   1.000  C
  C90      1.0000 0.25220  0.27225  0.88450  Biso   1.000  C
  N135     1.0000 0.43230  0.13520  0.73790  Biso   1.000  N
  O91      1.0000 0.25433  0.74728  0.06299  Biso   1.000  O
  O92      1.0000 0.25234  0.75989  0.15932  Biso   1.000  O
  N136     1.0000 0.26600  0.63360  0.06670  Biso   1.000  N
  N137     1.0000 0.26720  0.57560  0.07630  Biso   1.000  N
  C91      1.0000 0.25040  0.66270  0.11990  Biso   1.000  C
  C92      1.0000 0.25220  0.72775  0.11550  Biso   1.000  C
  N138     1.0000 0.43230  0.86480  0.26210  Biso   1.000  N
  O93      1.0000 0.74567  0.25272  0.06299  Biso   1.000  O
  O94      1.0000 0.74766  0.24011  0.15932  Biso   1.000  O
  N139     1.0000 0.73400  0.36640  0.06670  Biso   1.000  N
  N140     1.0000 0.73280  0.42440  0.07630  Biso   1.000  N
  C93      1.0000 0.74960  0.33730  0.11990  Biso   1.000  C
  C94      1.0000 0.74780  0.27225  0.11550  Biso   1.000  C
  N141     1.0000 0.56770  0.13520  0.26210  Biso   1.000  N
  O95      1.0000 0.74567  0.74728  0.93701  Biso   1.000  O
  O96      1.0000 0.74766  0.75989  0.84068  Biso   1.000  O
  N142     1.0000 0.73400  0.63360  0.93330  Biso   1.000  N
  N143     1.0000 0.73280  0.57560  0.92370  Biso   1.000  N
  C95      1.0000 0.74960  0.66270  0.88010  Biso   1.000  C
  C96      1.0000 0.74780  0.72775  0.88450  Biso   1.000  C
  N144     1.0000 0.56770  0.86480  0.73790  Biso   1.000  N
  Cu1      1.0000 0.50000  0.18740  0.23640  Biso   1.000  Cu
  Cu2      1.0000 0.50000  0.81260  0.23640  Biso   1.000  Cu
  Cu3      1.0000 0.50000  0.18740  0.76360  Biso   1.000  Cu
  Cu4      1.0000 0.50000  0.81260  0.76360  Biso   1.000  Cu
  Cu5      1.0000 0.23640  0.50000  0.18740  Biso   1.000  Cu
  Cu6      1.0000 0.23640  0.50000  0.81260  Biso   1.000  Cu
  Cu7      1.0000 0.76360  0.50000  0.18740  Biso   1.000  Cu
  Cu8      1.0000 0.76360  0.50000  0.81260  Biso   1.000  Cu
  Cu9      1.0000 0.18740  0.23640  0.50000  Biso   1.000  Cu
  Cu10     1.0000 0.81260  0.23640  0.50000  Biso   1.000  Cu
  Cu11     1.0000 0.18740  0.76360  0.50000  Biso   1.000  Cu
  Cu12     1.0000 0.81260  0.76360  0.50000  Biso   1.000  Cu
  Cu13     1.0000 0.68740  0.00000  0.26360  Biso   1.000  Cu
  Cu14     1.0000 0.31260  0.00000  0.26360  Biso   1.000  Cu
  Cu15     1.0000 0.68740  0.00000  0.73640  Biso   1.000  Cu
  Cu16     1.0000 0.31260  0.00000  0.73640  Biso   1.000  Cu
  Cu17     1.0000 0.00000  0.73640  0.31260  Biso   1.000  Cu
  Cu18     1.0000 0.00000  0.73640  0.68740  Biso   1.000  Cu
  Cu19     1.0000 0.00000  0.26360  0.31260  Biso   1.000  Cu
  Cu20     1.0000 0.00000  0.26360  0.68740  Biso   1.000  Cu
  Cu21     1.0000 0.73640  0.68740  0.00000  Biso   1.000  Cu
  Cu22     1.0000 0.73640  0.31260  0.00000  Biso   1.000  Cu
  Cu23     1.0000 0.26360  0.68740  0.00000  Biso   1.000  Cu
  Cu24     1.0000 0.26360  0.31260  0.00000  Biso   1.000  Cu
  Cu25     1.0000 0.25000  0.25000  0.25000  Biso   1.000  Cu
  Cu26     1.0000 0.75000  0.75000  0.25000  Biso   1.000  Cu
  Cu27     1.0000 0.75000  0.25000  0.75000  Biso   1.000  Cu
  Cu28     1.0000 0.25000  0.75000  0.75000  Biso   1.000  Cu
  Cu29     1.0000 0.75000  0.75000  0.75000  Biso   1.000  Cu
  Cu30     1.0000 0.25000  0.25000  0.75000  Biso   1.000  Cu
  Cu31     1.0000 0.25000  0.75000  0.25000  Biso   1.000  Cu
  Cu32     1.0000 0.75000  0.25000  0.25000  Biso   1.000  Cu
  Cu33     1.0000 0.24200  0.31200  0.00000  Biso   1.000  Cu
  Cu34     1.0000 0.75800  0.68800  0.00000  Biso   1.000  Cu
  Cu35     1.0000 0.75800  0.31200  0.00000  Biso   1.000  Cu
  Cu36     1.0000 0.24200  0.68800  0.00000  Biso   1.000  Cu
  Cu37     1.0000 0.00000  0.24200  0.31200  Biso   1.000  Cu
  Cu38     1.0000 0.00000  0.75800  0.68800  Biso   1.000  Cu
  Cu39     1.0000 0.00000  0.75800  0.31200  Biso   1.000  Cu
  Cu40     1.0000 0.00000  0.24200  0.68800  Biso   1.000  Cu
  Cu41     1.0000 0.31200  0.00000  0.24200  Biso   1.000  Cu
  Cu42     1.0000 0.68800  0.00000  0.75800  Biso   1.000  Cu
  Cu43     1.0000 0.31200  0.00000  0.75800  Biso   1.000  Cu
  Cu44     1.0000 0.68800  0.00000  0.24200  Biso   1.000  Cu
  Cu45     1.0000 0.81200  0.74200  0.50000  Biso   1.000  Cu
  Cu46     1.0000 0.18800  0.25800  0.50000  Biso   1.000  Cu
  Cu47     1.0000 0.81200  0.25800  0.50000  Biso   1.000  Cu
  Cu48     1.0000 0.18800  0.74200  0.50000  Biso   1.000  Cu
  Cu49     1.0000 0.74200  0.50000  0.18800  Biso   1.000  Cu
  Cu50     1.0000 0.25800  0.50000  0.81200  Biso   1.000  Cu
  Cu51     1.0000 0.25800  0.50000  0.18800  Biso   1.000  Cu
  Cu52     1.0000 0.74200  0.50000  0.81200  Biso   1.000  Cu
  Cu53     1.0000 0.50000  0.81200  0.25800  Biso   1.000  Cu
  Cu54     1.0000 0.50000  0.18800  0.74200  Biso   1.000  Cu
  Cu55     1.0000 0.50000  0.81200  0.74200  Biso   1.000  Cu
  Cu56     1.0000 0.50000  0.18800  0.25800  Biso   1.000  Cu
