data_image0
_cell_length_a       24
_cell_length_b       11.0768
_cell_length_c       34.991
_cell_angle_alpha    90
_cell_angle_beta     99.66
_cell_angle_gamma    90

_symmetry_space_group_name_H-M    "P 1"
_symmetry_int_tables_number       1

loop_
  _symmetry_equiv_pos_as_xyz
  'x, y, z'

loop_
  _atom_site_label
  _atom_site_occupancy
  _atom_site_fract_x
  _atom_site_fract_y
  _atom_site_fract_z
  _atom_site_thermal_displace_type
  _atom_site_B_iso_or_equiv
  _atom_site_type_symbol
  Mn1      1.0000 0.67387  0.53518  0.50519  Biso   1.000  Mn
  Mn2      1.0000 0.74580  0.25600  0.49870  Biso   1.000  Mn
  C1       1.0000 0.77511  0.43600  0.61449  Biso   1.000  C
  C2       1.0000 0.79659  0.33890  0.63604  Biso   1.000  C
  H1       1.0000 0.79330  0.26280  0.62470  Biso   1.000  H
  C3       1.0000 0.82300  0.34940  0.67405  Biso   1.000  C
  H2       1.0000 0.83660  0.28130  0.68820  Biso   1.000  H
  C4       1.0000 0.82880  0.46170  0.69068  Biso   1.000  C
  C5       1.0000 0.80690  0.56040  0.66949  Biso   1.000  C
  H3       1.0000 0.80960  0.63650  0.68090  Biso   1.000  H
  C6       1.0000 0.78140  0.54760  0.63223  Biso   1.000  C
  H4       1.0000 0.76780  0.61580  0.61820  Biso   1.000  H
  C7       1.0000 0.88705  0.39060  0.74925  Biso   1.000  C
  H5       1.0000 0.86230  0.33130  0.75810  Biso   1.000  H
  H6       1.0000 0.91060  0.35040  0.73320  Biso   1.000  H
  C8       1.0000 0.92372  0.45230  0.78396  Biso   1.000  C
  C9       1.0000 0.96422  0.54060  0.76973  Biso   1.000  C
  H7       1.0000 0.98620  0.58300  0.79140  Biso   1.000  H
  H8       1.0000 0.94340  0.59960  0.75240  Biso   1.000  H
  C10      1.0000 0.88740  0.51960  0.80835  Biso   1.000  C
  H9       1.0000 0.86640  0.58340  0.79330  Biso   1.000  H
  H10      1.0000 0.91080  0.55550  0.83080  Biso   1.000  H
  C11      1.0000 0.95557  0.35130  0.80827  Biso   1.000  C
  H11      1.0000 0.97630  0.30230  0.79250  Biso   1.000  H
  H12      1.0000 0.92930  0.29980  0.81900  Biso   1.000  H
  C12      1.0000 0.02292  0.33860  0.86686  Biso   1.000  C
  C13      1.0000 0.06670  0.39300  0.89057  Biso   1.000  C
  H13      1.0000 0.07510  0.47330  0.88640  Biso   1.000  H
  C14      1.0000 0.09846  0.33130  0.92043  Biso   1.000  C
  H14      1.0000 0.12840  0.37000  0.93600  Biso   1.000  H
  C15      1.0000 0.08681  0.21380  0.92763  Biso   1.000  C
  C16      1.0000 0.12240  0.14040  0.95926  Biso   1.000  C
  C17      1.0000 0.04250  0.15830  0.90371  Biso   1.000  C
  H15      1.0000 0.03370  0.07820  0.90800  Biso   1.000  H
  C18      1.0000 0.01090  0.22140  0.87329  Biso   1.000  C
  H16      1.0000 0.98140  0.18320  0.85720  Biso   1.000  H
  C19      1.0000 0.74810  0.42380  0.57305  Biso   1.000  C
  C20      1.0000 0.75830  0.49360  0.95696  Biso   1.000  C
  C21      1.0000 0.78237  0.47890  0.92048  Biso   1.000  C
  C22      1.0000 0.78200  0.36910  0.90201  Biso   1.000  C
  H17      1.0000 0.76660  0.30230  0.91250  Biso   1.000  H
  C23      1.0000 0.82750  0.45480  0.85315  Biso   1.000  C
  C24      1.0000 0.82820  0.56660  0.87074  Biso   1.000  C
  H18      1.0000 0.84330  0.63350  0.86010  Biso   1.000  H
  C25      1.0000 0.80380  0.35620  0.86848  Biso   1.000  C
  H19      1.0000 0.80270  0.28160  0.85610  Biso   1.000  H
  C26      1.0000 0.80560  0.57650  0.90481  Biso   1.000  C
  H20      1.0000 0.80640  0.65090  0.91720  Biso   1.000  H
  O1       1.0000 0.85449  0.48520  0.72782  Biso   1.000  O
  O2       1.0000 0.84937  0.43340  0.82037  Biso   1.000  O
  O3       1.0000 0.99356  0.40860  0.83865  Biso   1.000  O
  O4       1.0000 0.75050  0.32420  0.55702  Biso   1.000  O
  O5       1.0000 0.72506  0.51730  0.55694  Biso   1.000  O
  O6       1.0000 0.72513  0.41300  0.96501  Biso   1.000  O
  O7       1.0000 0.11142  0.03230  0.96194  Biso   1.000  O
  O8       1.0000 0.16083  0.19420  0.98152  Biso   1.000  O
  O9       1.0000 0.77270  0.58340  0.97762  Biso   1.000  O
  Mn3      1.0000 0.17387  0.03518  0.50519  Biso   1.000  Mn
  Mn4      1.0000 0.24580  0.75600  0.49870  Biso   1.000  Mn
  C27      1.0000 0.27511  0.93600  0.61449  Biso   1.000  C
  C28      1.0000 0.29659  0.83890  0.63604  Biso   1.000  C
  H21      1.0000 0.29330  0.76280  0.62470  Biso   1.000  H
  C29      1.0000 0.32300  0.84940  0.67405  Biso   1.000  C
  H22      1.0000 0.33660  0.78130  0.68820  Biso   1.000  H
  C30      1.0000 0.32880  0.96170  0.69068  Biso   1.000  C
  C31      1.0000 0.30690  0.06040  0.66949  Biso   1.000  C
  H23      1.0000 0.30960  0.13650  0.68090  Biso   1.000  H
  C32      1.0000 0.28140  0.04760  0.63223  Biso   1.000  C
  H24      1.0000 0.26780  0.11580  0.61820  Biso   1.000  H
  C33      1.0000 0.38705  0.89060  0.74925  Biso   1.000  C
  H25      1.0000 0.36230  0.83130  0.75810  Biso   1.000  H
  H26      1.0000 0.41060  0.85040  0.73320  Biso   1.000  H
  C34      1.0000 0.42372  0.95230  0.78396  Biso   1.000  C
  C35      1.0000 0.46422  0.04060  0.76973  Biso   1.000  C
  H27      1.0000 0.48620  0.08300  0.79140  Biso   1.000  H
  H28      1.0000 0.44340  0.09960  0.75240  Biso   1.000  H
  C36      1.0000 0.38740  0.01960  0.80835  Biso   1.000  C
  H29      1.0000 0.36640  0.08340  0.79330  Biso   1.000  H
  H30      1.0000 0.41080  0.05550  0.83080  Biso   1.000  H
  C37      1.0000 0.45557  0.85130  0.80827  Biso   1.000  C
  H31      1.0000 0.47630  0.80230  0.79250  Biso   1.000  H
  H32      1.0000 0.42930  0.79980  0.81900  Biso   1.000  H
  C38      1.0000 0.52292  0.83860  0.86686  Biso   1.000  C
  C39      1.0000 0.56670  0.89300  0.89057  Biso   1.000  C
  H33      1.0000 0.57510  0.97330  0.88640  Biso   1.000  H
  C40      1.0000 0.59846  0.83130  0.92043  Biso   1.000  C
  H34      1.0000 0.62840  0.87000  0.93600  Biso   1.000  H
  C41      1.0000 0.58681  0.71380  0.92763  Biso   1.000  C
  C42      1.0000 0.62240  0.64040  0.95926  Biso   1.000  C
  C43      1.0000 0.54250  0.65830  0.90371  Biso   1.000  C
  H35      1.0000 0.53370  0.57820  0.90800  Biso   1.000  H
  C44      1.0000 0.51090  0.72140  0.87329  Biso   1.000  C
  H36      1.0000 0.48140  0.68320  0.85720  Biso   1.000  H
  C45      1.0000 0.24810  0.92380  0.57305  Biso   1.000  C
  C46      1.0000 0.25830  0.99360  0.95696  Biso   1.000  C
  C47      1.0000 0.28237  0.97890  0.92048  Biso   1.000  C
  C48      1.0000 0.28200  0.86910  0.90201  Biso   1.000  C
  H37      1.0000 0.26660  0.80230  0.91250  Biso   1.000  H
  C49      1.0000 0.32750  0.95480  0.85315  Biso   1.000  C
  C50      1.0000 0.32820  0.06660  0.87074  Biso   1.000  C
  H38      1.0000 0.34330  0.13350  0.86010  Biso   1.000  H
  C51      1.0000 0.30380  0.85620  0.86848  Biso   1.000  C
  H39      1.0000 0.30270  0.78160  0.85610  Biso   1.000  H
  C52      1.0000 0.30560  0.07650  0.90481  Biso   1.000  C
  H40      1.0000 0.30640  0.15090  0.91720  Biso   1.000  H
  O10      1.0000 0.35449  0.98520  0.72782  Biso   1.000  O
  O11      1.0000 0.34937  0.93340  0.82037  Biso   1.000  O
  O12      1.0000 0.49356  0.90860  0.83865  Biso   1.000  O
  O13      1.0000 0.25050  0.82420  0.55702  Biso   1.000  O
  O14      1.0000 0.22506  0.01730  0.55694  Biso   1.000  O
  O15      1.0000 0.22513  0.91300  0.96501  Biso   1.000  O
  O16      1.0000 0.61142  0.53230  0.96194  Biso   1.000  O
  O17      1.0000 0.66083  0.69420  0.98152  Biso   1.000  O
  O18      1.0000 0.27270  0.08340  0.97762  Biso   1.000  O
  Mn5      1.0000 0.32613  0.53518  0.99481  Biso   1.000  Mn
  Mn6      1.0000 0.25420  0.25600  0.00130  Biso   1.000  Mn
  C53      1.0000 0.22489  0.43600  0.88551  Biso   1.000  C
  C54      1.0000 0.20341  0.33890  0.86396  Biso   1.000  C
  H41      1.0000 0.20670  0.26280  0.87530  Biso   1.000  H
  C55      1.0000 0.17700  0.34940  0.82595  Biso   1.000  C
  H42      1.0000 0.16340  0.28130  0.81180  Biso   1.000  H
  C56      1.0000 0.17120  0.46170  0.80932  Biso   1.000  C
  C57      1.0000 0.19310  0.56040  0.83051  Biso   1.000  C
  H43      1.0000 0.19040  0.63650  0.81910  Biso   1.000  H
  C58      1.0000 0.21860  0.54760  0.86777  Biso   1.000  C
  H44      1.0000 0.23220  0.61580  0.88180  Biso   1.000  H
  C59      1.0000 0.11295  0.39060  0.75075  Biso   1.000  C
  H45      1.0000 0.13770  0.33130  0.74190  Biso   1.000  H
  H46      1.0000 0.08940  0.35040  0.76680  Biso   1.000  H
  C60      1.0000 0.07628  0.45230  0.71604  Biso   1.000  C
  C61      1.0000 0.03578  0.54060  0.73027  Biso   1.000  C
  H47      1.0000 0.01380  0.58300  0.70860  Biso   1.000  H
  H48      1.0000 0.05660  0.59960  0.74760  Biso   1.000  H
  C62      1.0000 0.11260  0.51960  0.69165  Biso   1.000  C
  H49      1.0000 0.13360  0.58340  0.70670  Biso   1.000  H
  H50      1.0000 0.08920  0.55550  0.66920  Biso   1.000  H
  C63      1.0000 0.04443  0.35130  0.69173  Biso   1.000  C
  H51      1.0000 0.02370  0.30230  0.70750  Biso   1.000  H
  H52      1.0000 0.07070  0.29980  0.68100  Biso   1.000  H
  C64      1.0000 0.97708  0.33860  0.63314  Biso   1.000  C
  C65      1.0000 0.93330  0.39300  0.60943  Biso   1.000  C
  H53      1.0000 0.92490  0.47330  0.61360  Biso   1.000  H
  C66      1.0000 0.90154  0.33130  0.57957  Biso   1.000  C
  H54      1.0000 0.87160  0.37000  0.56400  Biso   1.000  H
  C67      1.0000 0.91319  0.21380  0.57237  Biso   1.000  C
  C68      1.0000 0.87760  0.14040  0.54074  Biso   1.000  C
  C69      1.0000 0.95750  0.15830  0.59629  Biso   1.000  C
  H55      1.0000 0.96630  0.07820  0.59200  Biso   1.000  H
  C70      1.0000 0.98910  0.22140  0.62671  Biso   1.000  C
  H56      1.0000 0.01860  0.18320  0.64280  Biso   1.000  H
  C71      1.0000 0.25190  0.42380  0.92695  Biso   1.000  C
  C72      1.0000 0.24170  0.49360  0.54304  Biso   1.000  C
  C73      1.0000 0.21763  0.47890  0.57952  Biso   1.000  C
  C74      1.0000 0.21800  0.36910  0.59799  Biso   1.000  C
  H57      1.0000 0.23340  0.30230  0.58750  Biso   1.000  H
  C75      1.0000 0.17250  0.45480  0.64685  Biso   1.000  C
  C76      1.0000 0.17180  0.56660  0.62926  Biso   1.000  C
  H58      1.0000 0.15670  0.63350  0.63990  Biso   1.000  H
  C77      1.0000 0.19620  0.35620  0.63152  Biso   1.000  C
  H59      1.0000 0.19730  0.28160  0.64390  Biso   1.000  H
  C78      1.0000 0.19440  0.57650  0.59519  Biso   1.000  C
  H60      1.0000 0.19360  0.65090  0.58280  Biso   1.000  H
  O19      1.0000 0.14551  0.48520  0.77218  Biso   1.000  O
  O20      1.0000 0.15063  0.43340  0.67963  Biso   1.000  O
  O21      1.0000 0.00644  0.40860  0.66135  Biso   1.000  O
  O22      1.0000 0.24950  0.32420  0.94298  Biso   1.000  O
  O23      1.0000 0.27494  0.51730  0.94306  Biso   1.000  O
  O24      1.0000 0.27487  0.41300  0.53499  Biso   1.000  O
  O25      1.0000 0.88858  0.03230  0.53806  Biso   1.000  O
  O26      1.0000 0.83917  0.19420  0.51848  Biso   1.000  O
  O27      1.0000 0.22730  0.58340  0.52238  Biso   1.000  O
  Mn7      1.0000 0.82613  0.03518  0.99481  Biso   1.000  Mn
  Mn8      1.0000 0.75420  0.75600  0.00130  Biso   1.000  Mn
  C79      1.0000 0.72489  0.93600  0.88551  Biso   1.000  C
  C80      1.0000 0.70341  0.83890  0.86396  Biso   1.000  C
  H61      1.0000 0.70670  0.76280  0.87530  Biso   1.000  H
  C81      1.0000 0.67700  0.84940  0.82595  Biso   1.000  C
  H62      1.0000 0.66340  0.78130  0.81180  Biso   1.000  H
  C82      1.0000 0.67120  0.96170  0.80932  Biso   1.000  C
  C83      1.0000 0.69310  0.06040  0.83051  Biso   1.000  C
  H63      1.0000 0.69040  0.13650  0.81910  Biso   1.000  H
  C84      1.0000 0.71860  0.04760  0.86777  Biso   1.000  C
  H64      1.0000 0.73220  0.11580  0.88180  Biso   1.000  H
  C85      1.0000 0.61295  0.89060  0.75075  Biso   1.000  C
  H65      1.0000 0.63770  0.83130  0.74190  Biso   1.000  H
  H66      1.0000 0.58940  0.85040  0.76680  Biso   1.000  H
  C86      1.0000 0.57628  0.95230  0.71604  Biso   1.000  C
  C87      1.0000 0.53578  0.04060  0.73027  Biso   1.000  C
  H67      1.0000 0.51380  0.08300  0.70860  Biso   1.000  H
  H68      1.0000 0.55660  0.09960  0.74760  Biso   1.000  H
  C88      1.0000 0.61260  0.01960  0.69165  Biso   1.000  C
  H69      1.0000 0.63360  0.08340  0.70670  Biso   1.000  H
  H70      1.0000 0.58920  0.05550  0.66920  Biso   1.000  H
  C89      1.0000 0.54443  0.85130  0.69173  Biso   1.000  C
  H71      1.0000 0.52370  0.80230  0.70750  Biso   1.000  H
  H72      1.0000 0.57070  0.79980  0.68100  Biso   1.000  H
  C90      1.0000 0.47708  0.83860  0.63314  Biso   1.000  C
  C91      1.0000 0.43330  0.89300  0.60943  Biso   1.000  C
  H73      1.0000 0.42490  0.97330  0.61360  Biso   1.000  H
  C92      1.0000 0.40154  0.83130  0.57957  Biso   1.000  C
  H74      1.0000 0.37160  0.87000  0.56400  Biso   1.000  H
  C93      1.0000 0.41319  0.71380  0.57237  Biso   1.000  C
  C94      1.0000 0.37760  0.64040  0.54074  Biso   1.000  C
  C95      1.0000 0.45750  0.65830  0.59629  Biso   1.000  C
  H75      1.0000 0.46630  0.57820  0.59200  Biso   1.000  H
  C96      1.0000 0.48910  0.72140  0.62671  Biso   1.000  C
  H76      1.0000 0.51860  0.68320  0.64280  Biso   1.000  H
  C97      1.0000 0.75190  0.92380  0.92695  Biso   1.000  C
  C98      1.0000 0.74170  0.99360  0.54304  Biso   1.000  C
  C99      1.0000 0.71763  0.97890  0.57952  Biso   1.000  C
  C100     1.0000 0.71800  0.86910  0.59799  Biso   1.000  C
  H77      1.0000 0.73340  0.80230  0.58750  Biso   1.000  H
  C101     1.0000 0.67250  0.95480  0.64685  Biso   1.000  C
  C102     1.0000 0.67180  0.06660  0.62926  Biso   1.000  C
  H78      1.0000 0.65670  0.13350  0.63990  Biso   1.000  H
  C103     1.0000 0.69620  0.85620  0.63152  Biso   1.000  C
  H79      1.0000 0.69730  0.78160  0.64390  Biso   1.000  H
  C104     1.0000 0.69440  0.07650  0.59519  Biso   1.000  C
  H80      1.0000 0.69360  0.15090  0.58280  Biso   1.000  H
  O28      1.0000 0.64551  0.98520  0.77218  Biso   1.000  O
  O29      1.0000 0.65063  0.93340  0.67963  Biso   1.000  O
  O30      1.0000 0.50644  0.90860  0.66135  Biso   1.000  O
  O31      1.0000 0.74950  0.82420  0.94298  Biso   1.000  O
  O32      1.0000 0.77494  0.01730  0.94306  Biso   1.000  O
  O33      1.0000 0.77487  0.91300  0.53499  Biso   1.000  O
  O34      1.0000 0.38858  0.53230  0.53806  Biso   1.000  O
  O35      1.0000 0.33917  0.69420  0.51848  Biso   1.000  O
  O36      1.0000 0.72730  0.08340  0.52238  Biso   1.000  O
  Mn9      1.0000 0.32613  0.46482  0.49481  Biso   1.000  Mn
  Mn10     1.0000 0.25420  0.74400  0.50130  Biso   1.000  Mn
  C105     1.0000 0.22489  0.56400  0.38551  Biso   1.000  C
  C106     1.0000 0.20341  0.66110  0.36396  Biso   1.000  C
  H81      1.0000 0.20670  0.73720  0.37530  Biso   1.000  H
  C107     1.0000 0.17700  0.65060  0.32595  Biso   1.000  C
  H82      1.0000 0.16340  0.71870  0.31180  Biso   1.000  H
  C108     1.0000 0.17120  0.53830  0.30932  Biso   1.000  C
  C109     1.0000 0.19310  0.43960  0.33051  Biso   1.000  C
  H83      1.0000 0.19040  0.36350  0.31910  Biso   1.000  H
  C110     1.0000 0.21860  0.45240  0.36777  Biso   1.000  C
  H84      1.0000 0.23220  0.38420  0.38180  Biso   1.000  H
  C111     1.0000 0.11295  0.60940  0.25075  Biso   1.000  C
  H85      1.0000 0.13770  0.66870  0.24190  Biso   1.000  H
  H86      1.0000 0.08940  0.64960  0.26680  Biso   1.000  H
  C112     1.0000 0.07628  0.54770  0.21604  Biso   1.000  C
  C113     1.0000 0.03578  0.45940  0.23027  Biso   1.000  C
  H87      1.0000 0.01380  0.41700  0.20860  Biso   1.000  H
  H88      1.0000 0.05660  0.40040  0.24760  Biso   1.000  H
  C114     1.0000 0.11260  0.48040  0.19165  Biso   1.000  C
  H89      1.0000 0.13360  0.41660  0.20670  Biso   1.000  H
  H90      1.0000 0.08920  0.44450  0.16920  Biso   1.000  H
  C115     1.0000 0.04443  0.64870  0.19173  Biso   1.000  C
  H91      1.0000 0.02370  0.69770  0.20750  Biso   1.000  H
  H92      1.0000 0.07070  0.70020  0.18100  Biso   1.000  H
  C116     1.0000 0.97708  0.66140  0.13314  Biso   1.000  C
  C117     1.0000 0.93330  0.60700  0.10943  Biso   1.000  C
  H93      1.0000 0.92490  0.52670  0.11360  Biso   1.000  H
  C118     1.0000 0.90154  0.66870  0.07957  Biso   1.000  C
  H94      1.0000 0.87160  0.63000  0.06400  Biso   1.000  H
  C119     1.0000 0.91319  0.78620  0.07237  Biso   1.000  C
  C120     1.0000 0.87760  0.85960  0.04074  Biso   1.000  C
  C121     1.0000 0.95750  0.84170  0.09629  Biso   1.000  C
  H95      1.0000 0.96630  0.92180  0.09200  Biso   1.000  H
  C122     1.0000 0.98910  0.77860  0.12671  Biso   1.000  C
  H96      1.0000 0.01860  0.81680  0.14280  Biso   1.000  H
  C123     1.0000 0.25190  0.57620  0.42695  Biso   1.000  C
  C124     1.0000 0.24170  0.50640  0.04304  Biso   1.000  C
  C125     1.0000 0.21763  0.52110  0.07952  Biso   1.000  C
  C126     1.0000 0.21800  0.63090  0.09799  Biso   1.000  C
  H97      1.0000 0.23340  0.69770  0.08750  Biso   1.000  H
  C127     1.0000 0.17250  0.54520  0.14685  Biso   1.000  C
  C128     1.0000 0.17180  0.43340  0.12926  Biso   1.000  C
  H98      1.0000 0.15670  0.36650  0.13990  Biso   1.000  H
  C129     1.0000 0.19620  0.64380  0.13152  Biso   1.000  C
  H99      1.0000 0.19730  0.71840  0.14390  Biso   1.000  H
  C130     1.0000 0.19440  0.42350  0.09519  Biso   1.000  C
  H100     1.0000 0.19360  0.34910  0.08280  Biso   1.000  H
  O37      1.0000 0.14551  0.51480  0.27218  Biso   1.000  O
  O38      1.0000 0.15063  0.56660  0.17963  Biso   1.000  O
  O39      1.0000 0.00644  0.59140  0.16135  Biso   1.000  O
  O40      1.0000 0.24950  0.67580  0.44298  Biso   1.000  O
  O41      1.0000 0.27494  0.48270  0.44306  Biso   1.000  O
  O42      1.0000 0.27487  0.58700  0.03499  Biso   1.000  O
  O43      1.0000 0.88858  0.96770  0.03806  Biso   1.000  O
  O44      1.0000 0.83917  0.80580  0.01848  Biso   1.000  O
  O45      1.0000 0.22730  0.41660  0.02238  Biso   1.000  O
  Mn11     1.0000 0.82613  0.96482  0.49481  Biso   1.000  Mn
  Mn12     1.0000 0.75420  0.24400  0.50130  Biso   1.000  Mn
  C131     1.0000 0.72489  0.06400  0.38551  Biso   1.000  C
  C132     1.0000 0.70341  0.16110  0.36396  Biso   1.000  C
  H101     1.0000 0.70670  0.23720  0.37530  Biso   1.000  H
  C133     1.0000 0.67700  0.15060  0.32595  Biso   1.000  C
  H102     1.0000 0.66340  0.21870  0.31180  Biso   1.000  H
  C134     1.0000 0.67120  0.03830  0.30932  Biso   1.000  C
  C135     1.0000 0.69310  0.93960  0.33051  Biso   1.000  C
  H103     1.0000 0.69040  0.86350  0.31910  Biso   1.000  H
  C136     1.0000 0.71860  0.95240  0.36777  Biso   1.000  C
  H104     1.0000 0.73220  0.88420  0.38180  Biso   1.000  H
  C137     1.0000 0.61295  0.10940  0.25075  Biso   1.000  C
  H105     1.0000 0.63770  0.16870  0.24190  Biso   1.000  H
  H106     1.0000 0.58940  0.14960  0.26680  Biso   1.000  H
  C138     1.0000 0.57628  0.04770  0.21604  Biso   1.000  C
  C139     1.0000 0.53578  0.95940  0.23027  Biso   1.000  C
  H107     1.0000 0.51380  0.91700  0.20860  Biso   1.000  H
  H108     1.0000 0.55660  0.90040  0.24760  Biso   1.000  H
  C140     1.0000 0.61260  0.98040  0.19165  Biso   1.000  C
  H109     1.0000 0.63360  0.91660  0.20670  Biso   1.000  H
  H110     1.0000 0.58920  0.94450  0.16920  Biso   1.000  H
  C141     1.0000 0.54443  0.14870  0.19173  Biso   1.000  C
  H111     1.0000 0.52370  0.19770  0.20750  Biso   1.000  H
  H112     1.0000 0.57070  0.20020  0.18100  Biso   1.000  H
  C142     1.0000 0.47708  0.16140  0.13314  Biso   1.000  C
  C143     1.0000 0.43330  0.10700  0.10943  Biso   1.000  C
  H113     1.0000 0.42490  0.02670  0.11360  Biso   1.000  H
  C144     1.0000 0.40154  0.16870  0.07957  Biso   1.000  C
  H114     1.0000 0.37160  0.13000  0.06400  Biso   1.000  H
  C145     1.0000 0.41319  0.28620  0.07237  Biso   1.000  C
  C146     1.0000 0.37760  0.35960  0.04074  Biso   1.000  C
  C147     1.0000 0.45750  0.34170  0.09629  Biso   1.000  C
  H115     1.0000 0.46630  0.42180  0.09200  Biso   1.000  H
  C148     1.0000 0.48910  0.27860  0.12671  Biso   1.000  C
  H116     1.0000 0.51860  0.31680  0.14280  Biso   1.000  H
  C149     1.0000 0.75190  0.07620  0.42695  Biso   1.000  C
  C150     1.0000 0.74170  0.00640  0.04304  Biso   1.000  C
  C151     1.0000 0.71763  0.02110  0.07952  Biso   1.000  C
  C152     1.0000 0.71800  0.13090  0.09799  Biso   1.000  C
  H117     1.0000 0.73340  0.19770  0.08750  Biso   1.000  H
  C153     1.0000 0.67250  0.04520  0.14685  Biso   1.000  C
  C154     1.0000 0.67180  0.93340  0.12926  Biso   1.000  C
  H118     1.0000 0.65670  0.86650  0.13990  Biso   1.000  H
  C155     1.0000 0.69620  0.14380  0.13152  Biso   1.000  C
  H119     1.0000 0.69730  0.21840  0.14390  Biso   1.000  H
  C156     1.0000 0.69440  0.92350  0.09519  Biso   1.000  C
  H120     1.0000 0.69360  0.84910  0.08280  Biso   1.000  H
  O46      1.0000 0.64551  0.01480  0.27218  Biso   1.000  O
  O47      1.0000 0.65063  0.06660  0.17963  Biso   1.000  O
  O48      1.0000 0.50644  0.09140  0.16135  Biso   1.000  O
  O49      1.0000 0.74950  0.17580  0.44298  Biso   1.000  O
  O50      1.0000 0.77494  0.98270  0.44306  Biso   1.000  O
  O51      1.0000 0.77487  0.08700  0.03499  Biso   1.000  O
  O52      1.0000 0.38858  0.46770  0.03806  Biso   1.000  O
  O53      1.0000 0.33917  0.30580  0.01848  Biso   1.000  O
  O54      1.0000 0.72730  0.91660  0.02238  Biso   1.000  O
  Mn13     1.0000 0.67387  0.46482  0.00519  Biso   1.000  Mn
  Mn14     1.0000 0.74580  0.74400  0.99870  Biso   1.000  Mn
  C157     1.0000 0.77511  0.56400  0.11449  Biso   1.000  C
  C158     1.0000 0.79659  0.66110  0.13604  Biso   1.000  C
  H121     1.0000 0.79330  0.73720  0.12470  Biso   1.000  H
  C159     1.0000 0.82300  0.65060  0.17405  Biso   1.000  C
  H122     1.0000 0.83660  0.71870  0.18820  Biso   1.000  H
  C160     1.0000 0.82880  0.53830  0.19068  Biso   1.000  C
  C161     1.0000 0.80690  0.43960  0.16949  Biso   1.000  C
  H123     1.0000 0.80960  0.36350  0.18090  Biso   1.000  H
  C162     1.0000 0.78140  0.45240  0.13223  Biso   1.000  C
  H124     1.0000 0.76780  0.38420  0.11820  Biso   1.000  H
  C163     1.0000 0.88705  0.60940  0.24925  Biso   1.000  C
  H125     1.0000 0.86230  0.66870  0.25810  Biso   1.000  H
  H126     1.0000 0.91060  0.64960  0.23320  Biso   1.000  H
  C164     1.0000 0.92372  0.54770  0.28396  Biso   1.000  C
  C165     1.0000 0.96422  0.45940  0.26973  Biso   1.000  C
  H127     1.0000 0.98620  0.41700  0.29140  Biso   1.000  H
  H128     1.0000 0.94340  0.40040  0.25240  Biso   1.000  H
  C166     1.0000 0.88740  0.48040  0.30835  Biso   1.000  C
  H129     1.0000 0.86640  0.41660  0.29330  Biso   1.000  H
  H130     1.0000 0.91080  0.44450  0.33080  Biso   1.000  H
  C167     1.0000 0.95557  0.64870  0.30827  Biso   1.000  C
  H131     1.0000 0.97630  0.69770  0.29250  Biso   1.000  H
  H132     1.0000 0.92930  0.70020  0.31900  Biso   1.000  H
  C168     1.0000 0.02292  0.66140  0.36686  Biso   1.000  C
  C169     1.0000 0.06670  0.60700  0.39057  Biso   1.000  C
  H133     1.0000 0.07510  0.52670  0.38640  Biso   1.000  H
  C170     1.0000 0.09846  0.66870  0.42043  Biso   1.000  C
  H134     1.0000 0.12840  0.63000  0.43600  Biso   1.000  H
  C171     1.0000 0.08681  0.78620  0.42763  Biso   1.000  C
  C172     1.0000 0.12240  0.85960  0.45926  Biso   1.000  C
  C173     1.0000 0.04250  0.84170  0.40371  Biso   1.000  C
  H135     1.0000 0.03370  0.92180  0.40800  Biso   1.000  H
  C174     1.0000 0.01090  0.77860  0.37329  Biso   1.000  C
  H136     1.0000 0.98140  0.81680  0.35720  Biso   1.000  H
  C175     1.0000 0.74810  0.57620  0.07305  Biso   1.000  C
  C176     1.0000 0.75830  0.50640  0.45696  Biso   1.000  C
  C177     1.0000 0.78237  0.52110  0.42048  Biso   1.000  C
  C178     1.0000 0.78200  0.63090  0.40201  Biso   1.000  C
  H137     1.0000 0.76660  0.69770  0.41250  Biso   1.000  H
  C179     1.0000 0.82750  0.54520  0.35315  Biso   1.000  C
  C180     1.0000 0.82820  0.43340  0.37074  Biso   1.000  C
  H138     1.0000 0.84330  0.36650  0.36010  Biso   1.000  H
  C181     1.0000 0.80380  0.64380  0.36848  Biso   1.000  C
  H139     1.0000 0.80270  0.71840  0.35610  Biso   1.000  H
  C182     1.0000 0.80560  0.42350  0.40481  Biso   1.000  C
  H140     1.0000 0.80640  0.34910  0.41720  Biso   1.000  H
  O55      1.0000 0.85449  0.51480  0.22782  Biso   1.000  O
  O56      1.0000 0.84937  0.56660  0.32037  Biso   1.000  O
  O57      1.0000 0.99356  0.59140  0.33865  Biso   1.000  O
  O58      1.0000 0.75050  0.67580  0.05702  Biso   1.000  O
  O59      1.0000 0.72506  0.48270  0.05694  Biso   1.000  O
  O60      1.0000 0.72513  0.58700  0.46501  Biso   1.000  O
  O61      1.0000 0.11142  0.96770  0.46194  Biso   1.000  O
  O62      1.0000 0.16083  0.80580  0.48152  Biso   1.000  O
  O63      1.0000 0.77270  0.41660  0.47762  Biso   1.000  O
  Mn15     1.0000 0.17387  0.96482  0.00519  Biso   1.000  Mn
  Mn16     1.0000 0.24580  0.24400  0.99870  Biso   1.000  Mn
  C183     1.0000 0.27511  0.06400  0.11449  Biso   1.000  C
  C184     1.0000 0.29659  0.16110  0.13604  Biso   1.000  C
  H141     1.0000 0.29330  0.23720  0.12470  Biso   1.000  H
  C185     1.0000 0.32300  0.15060  0.17405  Biso   1.000  C
  H142     1.0000 0.33660  0.21870  0.18820  Biso   1.000  H
  C186     1.0000 0.32880  0.03830  0.19068  Biso   1.000  C
  C187     1.0000 0.30690  0.93960  0.16949  Biso   1.000  C
  H143     1.0000 0.30960  0.86350  0.18090  Biso   1.000  H
  C188     1.0000 0.28140  0.95240  0.13223  Biso   1.000  C
  H144     1.0000 0.26780  0.88420  0.11820  Biso   1.000  H
  C189     1.0000 0.38705  0.10940  0.24925  Biso   1.000  C
  H145     1.0000 0.36230  0.16870  0.25810  Biso   1.000  H
  H146     1.0000 0.41060  0.14960  0.23320  Biso   1.000  H
  C190     1.0000 0.42372  0.04770  0.28396  Biso   1.000  C
  C191     1.0000 0.46422  0.95940  0.26973  Biso   1.000  C
  H147     1.0000 0.48620  0.91700  0.29140  Biso   1.000  H
  H148     1.0000 0.44340  0.90040  0.25240  Biso   1.000  H
  C192     1.0000 0.38740  0.98040  0.30835  Biso   1.000  C
  H149     1.0000 0.36640  0.91660  0.29330  Biso   1.000  H
  H150     1.0000 0.41080  0.94450  0.33080  Biso   1.000  H
  C193     1.0000 0.45557  0.14870  0.30827  Biso   1.000  C
  H151     1.0000 0.47630  0.19770  0.29250  Biso   1.000  H
  H152     1.0000 0.42930  0.20020  0.31900  Biso   1.000  H
  C194     1.0000 0.52292  0.16140  0.36686  Biso   1.000  C
  C195     1.0000 0.56670  0.10700  0.39057  Biso   1.000  C
  H153     1.0000 0.57510  0.02670  0.38640  Biso   1.000  H
  C196     1.0000 0.59846  0.16870  0.42043  Biso   1.000  C
  H154     1.0000 0.62840  0.13000  0.43600  Biso   1.000  H
  C197     1.0000 0.58681  0.28620  0.42763  Biso   1.000  C
  C198     1.0000 0.62240  0.35960  0.45926  Biso   1.000  C
  C199     1.0000 0.54250  0.34170  0.40371  Biso   1.000  C
  H155     1.0000 0.53370  0.42180  0.40800  Biso   1.000  H
  C200     1.0000 0.51090  0.27860  0.37329  Biso   1.000  C
  H156     1.0000 0.48140  0.31680  0.35720  Biso   1.000  H
  C201     1.0000 0.24810  0.07620  0.07305  Biso   1.000  C
  C202     1.0000 0.25830  0.00640  0.45696  Biso   1.000  C
  C203     1.0000 0.28237  0.02110  0.42048  Biso   1.000  C
  C204     1.0000 0.28200  0.13090  0.40201  Biso   1.000  C
  H157     1.0000 0.26660  0.19770  0.41250  Biso   1.000  H
  C205     1.0000 0.32750  0.04520  0.35315  Biso   1.000  C
  C206     1.0000 0.32820  0.93340  0.37074  Biso   1.000  C
  H158     1.0000 0.34330  0.86650  0.36010  Biso   1.000  H
  C207     1.0000 0.30380  0.14380  0.36848  Biso   1.000  C
  H159     1.0000 0.30270  0.21840  0.35610  Biso   1.000  H
  C208     1.0000 0.30560  0.92350  0.40481  Biso   1.000  C
  H160     1.0000 0.30640  0.84910  0.41720  Biso   1.000  H
  O64      1.0000 0.35449  0.01480  0.22782  Biso   1.000  O
  O65      1.0000 0.34937  0.06660  0.32037  Biso   1.000  O
  O66      1.0000 0.49356  0.09140  0.33865  Biso   1.000  O
  O67      1.0000 0.25050  0.17580  0.05702  Biso   1.000  O
  O68      1.0000 0.22506  0.98270  0.05694  Biso   1.000  O
  O69      1.0000 0.22513  0.08700  0.46501  Biso   1.000  O
  O70      1.0000 0.61142  0.46770  0.46194  Biso   1.000  O
  O71      1.0000 0.66083  0.30580  0.48152  Biso   1.000  O
  O72      1.0000 0.27270  0.91660  0.47762  Biso   1.000  O
  O73      1.0000 0.00000  0.47210  0.75000  Biso   1.000  O
  O74      1.0000 0.50000  0.97210  0.75000  Biso   1.000  O
  O75      1.0000 0.00000  0.52790  0.25000  Biso   1.000  O
  O76      1.0000 0.50000  0.02790  0.25000  Biso   1.000  O
