data_image0
_cell_length_a       9.5213
_cell_length_b       10.5817
_cell_length_c       18.3319
_cell_angle_alpha    95.927
_cell_angle_beta     99.681
_cell_angle_gamma    114.194

_symmetry_space_group_name_H-M    "P 1"
_symmetry_int_tables_number       1

loop_
  _symmetry_equiv_pos_as_xyz
  'x, y, z'

loop_
  _atom_site_label
  _atom_site_occupancy
  _atom_site_fract_x
  _atom_site_fract_y
  _atom_site_fract_z
  _atom_site_thermal_displace_type
  _atom_site_B_iso_or_equiv
  _atom_site_type_symbol
  U1       1.0000 0.29407  0.81252  0.25744  Biso   1.000  U
  U2       1.0000 0.64642  0.69363  0.24719  Biso   1.000  U
  U3       1.0000 0.00028  0.24162  0.24751  Biso   1.000  U
  Ba1      1.0000 0.56914  0.31604  0.27747  Biso   1.000  Ba
  P1       1.0000 0.64802  0.03902  0.32640  Biso   1.000  P
  P2       1.0000 0.94670  0.03636  0.66519  Biso   1.000  P
  P3       1.0000 0.30371  0.48399  0.15877  Biso   1.000  P
  P4       1.0000 0.11606  0.48527  0.80697  Biso   1.000  P
  O1       1.0000 0.58970  0.88730  0.28250  Biso   1.000  O
  O2       1.0000 0.49410  0.05660  0.31920  Biso   1.000  O
  O3       1.0000 0.76990  0.15300  0.29670  Biso   1.000  O
  O4       1.0000 0.11740  0.14650  0.68460  Biso   1.000  O
  O5       1.0000 0.85190  0.06770  0.71840  Biso   1.000  O
  O6       1.0000 0.93170  0.88750  0.66710  Biso   1.000  O
  O7       1.0000 0.36200  0.63690  0.20280  Biso   1.000  O
  O8       1.0000 0.45040  0.45640  0.17970  Biso   1.000  O
  O9       1.0000 0.15430  0.37830  0.17490  Biso   1.000  O
  O10      1.0000 0.14130  0.63380  0.79610  Biso   1.000  O
  O11      1.0000 0.22390  0.44630  0.76500  Biso   1.000  O
  O12      1.0000 0.94470  0.37510  0.78190  Biso   1.000  O
  O13      1.0000 0.22610  0.17010  0.22010  Biso   1.000  O
  C1       1.0000 0.73280  0.04670  0.42320  Biso   1.000  C
  C2       1.0000 0.64080  0.95500  0.46440  Biso   1.000  C
  H1       1.0000 0.53550  0.89390  0.44220  Biso   1.000  H
  C3       1.0000 0.70470  0.95440  0.53740  Biso   1.000  C
  H2       1.0000 0.64170  0.89420  0.56450  Biso   1.000  H
  C4       1.0000 0.86180  0.04270  0.57090  Biso   1.000  C
  C5       1.0000 0.95210  0.13780  0.53210  Biso   1.000  C
  H3       1.0000 0.05650  0.20040  0.55510  Biso   1.000  H
  C6       1.0000 0.88660  0.14020  0.45810  Biso   1.000  C
  H4       1.0000 0.94740  0.20540  0.43240  Biso   1.000  H
  C7       1.0000 0.25930  0.48530  0.05970  Biso   1.000  C
  C8       1.0000 0.37580  0.53690  0.01860  Biso   1.000  C
  H5       1.0000 0.48190  0.57060  0.04270  Biso   1.000  H
  C9       1.0000 0.33560  0.53840  0.94380  Biso   1.000  C
  H6       1.0000 0.41470  0.57350  0.91760  Biso   1.000  H
  C10      1.0000 0.17820  0.48820  0.90630  Biso   1.000  C
  C11      1.0000 0.11140  0.36310  0.93280  Biso   1.000  C
  H7       1.0000 0.08060  0.27090  0.90890  Biso   1.000  H
  C12      1.0000 0.10080  0.42540  0.02290  Biso   1.000  C
  H8       1.0000 0.01330  0.41990  0.04110  Biso   1.000  H
  C13      1.0000 0.05970  0.42820  0.94570  Biso   1.000  C
  C14      1.0000 0.15330  0.36590  0.00980  Biso   1.000  C
  C15      1.0000 0.32960  0.61190  0.03110  Biso   1.000  C
  C16      1.0000 0.29260  0.61370  0.95540  Biso   1.000  C
  H9       1.0000 0.95870  0.42380  0.93870  Biso   1.000  H
  H10      1.0000 0.13610  0.27300  0.01060  Biso   1.000  H
  H11      1.0000 0.40180  0.69470  0.06430  Biso   1.000  H
  H12      1.0000 0.34170  0.69560  0.93700  Biso   1.000  H
  U4       1.0000 0.70593  0.18748  0.74256  Biso   1.000  U
  U5       1.0000 0.35358  0.30637  0.75281  Biso   1.000  U
  U6       1.0000 0.99972  0.75838  0.75249  Biso   1.000  U
  Ba2      1.0000 0.43086  0.68396  0.72253  Biso   1.000  Ba
  P5       1.0000 0.35198  0.96098  0.67360  Biso   1.000  P
  P6       1.0000 0.05330  0.96364  0.33481  Biso   1.000  P
  P7       1.0000 0.69629  0.51601  0.84123  Biso   1.000  P
  P8       1.0000 0.88394  0.51473  0.19303  Biso   1.000  P
  O14      1.0000 0.41030  0.11270  0.71750  Biso   1.000  O
  O15      1.0000 0.50590  0.94340  0.68080  Biso   1.000  O
  O16      1.0000 0.23010  0.84700  0.70330  Biso   1.000  O
  O17      1.0000 0.88260  0.85350  0.31540  Biso   1.000  O
  O18      1.0000 0.14810  0.93230  0.28160  Biso   1.000  O
  O19      1.0000 0.06830  0.11250  0.33290  Biso   1.000  O
  O20      1.0000 0.63800  0.36310  0.79720  Biso   1.000  O
  O21      1.0000 0.54960  0.54360  0.82030  Biso   1.000  O
  O22      1.0000 0.84570  0.62170  0.82510  Biso   1.000  O
  O23      1.0000 0.85870  0.36620  0.20390  Biso   1.000  O
  O24      1.0000 0.77610  0.55370  0.23500  Biso   1.000  O
  O25      1.0000 0.05530  0.62490  0.21810  Biso   1.000  O
  O26      1.0000 0.77390  0.82990  0.77990  Biso   1.000  O
  C17      1.0000 0.26720  0.95330  0.57680  Biso   1.000  C
  C18      1.0000 0.35920  0.04500  0.53560  Biso   1.000  C
  H13      1.0000 0.46450  0.10610  0.55780  Biso   1.000  H
  C19      1.0000 0.29530  0.04560  0.46260  Biso   1.000  C
  H14      1.0000 0.35830  0.10580  0.43550  Biso   1.000  H
  C20      1.0000 0.13820  0.95730  0.42910  Biso   1.000  C
  C21      1.0000 0.04790  0.86220  0.46790  Biso   1.000  C
  H15      1.0000 0.94350  0.79960  0.44490  Biso   1.000  H
  C22      1.0000 0.11340  0.85980  0.54190  Biso   1.000  C
  H16      1.0000 0.05260  0.79460  0.56760  Biso   1.000  H
  C23      1.0000 0.74070  0.51470  0.94030  Biso   1.000  C
  C24      1.0000 0.62420  0.46310  0.98140  Biso   1.000  C
  H17      1.0000 0.51810  0.42940  0.95730  Biso   1.000  H
  C25      1.0000 0.66440  0.46160  0.05620  Biso   1.000  C
  H18      1.0000 0.58530  0.42650  0.08240  Biso   1.000  H
  C26      1.0000 0.82180  0.51180  0.09370  Biso   1.000  C
  C27      1.0000 0.88860  0.63690  0.06720  Biso   1.000  C
  H19      1.0000 0.91940  0.72910  0.09110  Biso   1.000  H
  C28      1.0000 0.89920  0.57460  0.97710  Biso   1.000  C
  H20      1.0000 0.98670  0.58010  0.95890  Biso   1.000  H
  C29      1.0000 0.94030  0.57180  0.05430  Biso   1.000  C
  C30      1.0000 0.84670  0.63410  0.99020  Biso   1.000  C
  C31      1.0000 0.67040  0.38810  0.96890  Biso   1.000  C
  C32      1.0000 0.70740  0.38630  0.04460  Biso   1.000  C
  H21      1.0000 0.04130  0.57620  0.06130  Biso   1.000  H
  H22      1.0000 0.86390  0.72700  0.98940  Biso   1.000  H
  H23      1.0000 0.59820  0.30530  0.93570  Biso   1.000  H
  H24      1.0000 0.65830  0.30440  0.06300  Biso   1.000  H
