data_image0
_cell_length_a       25.5147
_cell_length_b       25.5147
_cell_length_c       14.5426
_cell_angle_alpha    90
_cell_angle_beta     90
_cell_angle_gamma    90

_symmetry_space_group_name_H-M    "P 1"
_symmetry_int_tables_number       1

loop_
  _symmetry_equiv_pos_as_xyz
  'x, y, z'

loop_
  _atom_site_label
  _atom_site_occupancy
  _atom_site_fract_x
  _atom_site_fract_y
  _atom_site_fract_z
  _atom_site_thermal_displace_type
  _atom_site_B_iso_or_equiv
  _atom_site_type_symbol
  Co1      1.0000 0.49964  0.31661  0.16363  Biso   1.000  Co
  O1       1.0000 0.55830  0.36450  0.10410  Biso   1.000  O
  O2       1.0000 0.56510  0.34310  0.25090  Biso   1.000  O
  O3       1.0000 0.77520  0.46600  0.01250  Biso   1.000  O
  O4       1.0000 0.69600  0.45530  0.94800  Biso   1.000  O
  C1       1.0000 0.63790  0.38580  0.18120  Biso   1.000  C
  C2       1.0000 0.75620  0.40110  0.33500  Biso   1.000  C
  C3       1.0000 0.65630  0.40800  0.10220  Biso   1.000  C
  H1       1.0000 0.63420  0.41050  0.04970  Biso   1.000  H
  C4       1.0000 0.70840  0.42720  0.09860  Biso   1.000  C
  C5       1.0000 0.73920  0.42450  0.17870  Biso   1.000  C
  H2       1.0000 0.77380  0.43820  0.17820  Biso   1.000  H
  C6       1.0000 0.72000  0.40260  0.25710  Biso   1.000  C
  C7       1.0000 0.66930  0.38360  0.25860  Biso   1.000  C
  H3       1.0000 0.65580  0.36870  0.31370  Biso   1.000  H
  C8       1.0000 0.58470  0.36380  0.17960  Biso   1.000  C
  C9       1.0000 0.72930  0.45200  0.01380  Biso   1.000  C
  O5       1.0000 0.81060  0.41010  0.30690  Biso   1.000  O
  N1       1.0000 0.45210  0.38290  0.19480  Biso   1.000  N
  C10      1.0000 0.41950  0.38050  0.27130  Biso   1.000  C
  H4       1.0000 0.42400  0.35340  0.31530  Biso   1.000  H
  C11      1.0000 0.38040  0.41780  0.28330  Biso   1.000  C
  H5       1.0000 0.35820  0.41620  0.33550  Biso   1.000  H
  C12      1.0000 0.37400  0.45750  0.21900  Biso   1.000  C
  H6       1.0000 0.34720  0.48300  0.22700  Biso   1.000  H
  C13      1.0000 0.40660  0.45990  0.14230  Biso   1.000  C
  H7       1.0000 0.40210  0.48700  0.09830  Biso   1.000  H
  C14      1.0000 0.44570  0.42260  0.13030  Biso   1.000  C
  H8       1.0000 0.46790  0.42420  0.07810  Biso   1.000  H
  C15      1.0000 0.58820  0.25800  0.08410  Biso   1.000  C
  C16      1.0000 0.60240  0.27400  0.98590  Biso   1.000  C
  C17      1.0000 0.62940  0.26300  0.02920  Biso   1.000  C
  Co2      1.0000 0.99964  0.81661  0.66363  Biso   1.000  Co
  O6       1.0000 0.05830  0.86450  0.60410  Biso   1.000  O
  O7       1.0000 0.06510  0.84310  0.75090  Biso   1.000  O
  O8       1.0000 0.27520  0.96600  0.51250  Biso   1.000  O
  O9       1.0000 0.19600  0.95530  0.44800  Biso   1.000  O
  C18      1.0000 0.13790  0.88580  0.68120  Biso   1.000  C
  C19      1.0000 0.25620  0.90110  0.83500  Biso   1.000  C
  C20      1.0000 0.15630  0.90800  0.60220  Biso   1.000  C
  H9       1.0000 0.13420  0.91050  0.54970  Biso   1.000  H
  C21      1.0000 0.20840  0.92720  0.59860  Biso   1.000  C
  C22      1.0000 0.23920  0.92450  0.67870  Biso   1.000  C
  H10      1.0000 0.27380  0.93820  0.67820  Biso   1.000  H
  C23      1.0000 0.22000  0.90260  0.75710  Biso   1.000  C
  C24      1.0000 0.16930  0.88360  0.75860  Biso   1.000  C
  H11      1.0000 0.15580  0.86870  0.81370  Biso   1.000  H
  C25      1.0000 0.08470  0.86380  0.67960  Biso   1.000  C
  C26      1.0000 0.22930  0.95200  0.51380  Biso   1.000  C
  O10      1.0000 0.31060  0.91010  0.80690  Biso   1.000  O
  N2       1.0000 0.95210  0.88290  0.69480  Biso   1.000  N
  C27      1.0000 0.91950  0.88050  0.77130  Biso   1.000  C
  H12      1.0000 0.92400  0.85340  0.81530  Biso   1.000  H
  C28      1.0000 0.88040  0.91780  0.78330  Biso   1.000  C
  H13      1.0000 0.85820  0.91620  0.83550  Biso   1.000  H
  C29      1.0000 0.87400  0.95750  0.71900  Biso   1.000  C
  H14      1.0000 0.84720  0.98300  0.72700  Biso   1.000  H
  C30      1.0000 0.90660  0.95990  0.64230  Biso   1.000  C
  H15      1.0000 0.90210  0.98700  0.59830  Biso   1.000  H
  C31      1.0000 0.94570  0.92260  0.63030  Biso   1.000  C
  H16      1.0000 0.96790  0.92420  0.57810  Biso   1.000  H
  C32      1.0000 0.08820  0.75800  0.58410  Biso   1.000  C
  C33      1.0000 0.10240  0.77400  0.48590  Biso   1.000  C
  C34      1.0000 0.12940  0.76300  0.52920  Biso   1.000  C
  Co3      1.0000 0.50036  0.68339  0.16363  Biso   1.000  Co
  O11      1.0000 0.44170  0.63550  0.10410  Biso   1.000  O
  O12      1.0000 0.43490  0.65690  0.25090  Biso   1.000  O
  O13      1.0000 0.22480  0.53400  0.01250  Biso   1.000  O
  O14      1.0000 0.30400  0.54470  0.94800  Biso   1.000  O
  C35      1.0000 0.36210  0.61420  0.18120  Biso   1.000  C
  C36      1.0000 0.24380  0.59890  0.33500  Biso   1.000  C
  C37      1.0000 0.34370  0.59200  0.10220  Biso   1.000  C
  H17      1.0000 0.36580  0.58950  0.04970  Biso   1.000  H
  C38      1.0000 0.29160  0.57280  0.09860  Biso   1.000  C
  C39      1.0000 0.26080  0.57550  0.17870  Biso   1.000  C
  H18      1.0000 0.22620  0.56180  0.17820  Biso   1.000  H
  C40      1.0000 0.28000  0.59740  0.25710  Biso   1.000  C
  C41      1.0000 0.33070  0.61640  0.25860  Biso   1.000  C
  H19      1.0000 0.34420  0.63130  0.31370  Biso   1.000  H
  C42      1.0000 0.41530  0.63620  0.17960  Biso   1.000  C
  C43      1.0000 0.27070  0.54800  0.01380  Biso   1.000  C
  O15      1.0000 0.18940  0.58990  0.30690  Biso   1.000  O
  N3       1.0000 0.54790  0.61710  0.19480  Biso   1.000  N
  C44      1.0000 0.58050  0.61950  0.27130  Biso   1.000  C
  H20      1.0000 0.57600  0.64660  0.31530  Biso   1.000  H
  C45      1.0000 0.61960  0.58220  0.28330  Biso   1.000  C
  H21      1.0000 0.64180  0.58380  0.33550  Biso   1.000  H
  C46      1.0000 0.62600  0.54250  0.21900  Biso   1.000  C
  H22      1.0000 0.65280  0.51700  0.22700  Biso   1.000  H
  C47      1.0000 0.59340  0.54010  0.14230  Biso   1.000  C
  H23      1.0000 0.59790  0.51300  0.09830  Biso   1.000  H
  C48      1.0000 0.55430  0.57740  0.13030  Biso   1.000  C
  H24      1.0000 0.53210  0.57580  0.07810  Biso   1.000  H
  C49      1.0000 0.41180  0.74200  0.08410  Biso   1.000  C
  C50      1.0000 0.39760  0.72600  0.98590  Biso   1.000  C
  C51      1.0000 0.37060  0.73700  0.02920  Biso   1.000  C
  Co4      1.0000 0.00036  0.18339  0.66363  Biso   1.000  Co
  O16      1.0000 0.94170  0.13550  0.60410  Biso   1.000  O
  O17      1.0000 0.93490  0.15690  0.75090  Biso   1.000  O
  O18      1.0000 0.72480  0.03400  0.51250  Biso   1.000  O
  O19      1.0000 0.80400  0.04470  0.44800  Biso   1.000  O
  C52      1.0000 0.86210  0.11420  0.68120  Biso   1.000  C
  C53      1.0000 0.74380  0.09890  0.83500  Biso   1.000  C
  C54      1.0000 0.84370  0.09200  0.60220  Biso   1.000  C
  H25      1.0000 0.86580  0.08950  0.54970  Biso   1.000  H
  C55      1.0000 0.79160  0.07280  0.59860  Biso   1.000  C
  C56      1.0000 0.76080  0.07550  0.67870  Biso   1.000  C
  H26      1.0000 0.72620  0.06180  0.67820  Biso   1.000  H
  C57      1.0000 0.78000  0.09740  0.75710  Biso   1.000  C
  C58      1.0000 0.83070  0.11640  0.75860  Biso   1.000  C
  H27      1.0000 0.84420  0.13130  0.81370  Biso   1.000  H
  C59      1.0000 0.91530  0.13620  0.67960  Biso   1.000  C
  C60      1.0000 0.77070  0.04800  0.51380  Biso   1.000  C
  O20      1.0000 0.68940  0.08990  0.80690  Biso   1.000  O
  N4       1.0000 0.04790  0.11710  0.69480  Biso   1.000  N
  C61      1.0000 0.08050  0.11950  0.77130  Biso   1.000  C
  H28      1.0000 0.07600  0.14660  0.81530  Biso   1.000  H
  C62      1.0000 0.11960  0.08220  0.78330  Biso   1.000  C
  H29      1.0000 0.14180  0.08380  0.83550  Biso   1.000  H
  C63      1.0000 0.12600  0.04250  0.71900  Biso   1.000  C
  H30      1.0000 0.15280  0.01700  0.72700  Biso   1.000  H
  C64      1.0000 0.09340  0.04010  0.64230  Biso   1.000  C
  H31      1.0000 0.09790  0.01300  0.59830  Biso   1.000  H
  C65      1.0000 0.05430  0.07740  0.63030  Biso   1.000  C
  H32      1.0000 0.03210  0.07580  0.57810  Biso   1.000  H
  C66      1.0000 0.91180  0.24200  0.58410  Biso   1.000  C
  C67      1.0000 0.89760  0.22600  0.48590  Biso   1.000  C
  C68      1.0000 0.87060  0.23700  0.52920  Biso   1.000  C
  Co5      1.0000 0.31661  0.50036  0.83637  Biso   1.000  Co
  O21      1.0000 0.36450  0.44170  0.89590  Biso   1.000  O
  O22      1.0000 0.34310  0.43490  0.74910  Biso   1.000  O
  O23      1.0000 0.46600  0.22480  0.98750  Biso   1.000  O
  O24      1.0000 0.45530  0.30400  0.05200  Biso   1.000  O
  C69      1.0000 0.38580  0.36210  0.81880  Biso   1.000  C
  C70      1.0000 0.40110  0.24380  0.66500  Biso   1.000  C
  C71      1.0000 0.40800  0.34370  0.89780  Biso   1.000  C
  H33      1.0000 0.41050  0.36580  0.95030  Biso   1.000  H
  C72      1.0000 0.42720  0.29160  0.90140  Biso   1.000  C
  C73      1.0000 0.42450  0.26080  0.82130  Biso   1.000  C
  H34      1.0000 0.43820  0.22620  0.82180  Biso   1.000  H
  C74      1.0000 0.40260  0.28000  0.74290  Biso   1.000  C
  C75      1.0000 0.38360  0.33070  0.74140  Biso   1.000  C
  H35      1.0000 0.36870  0.34420  0.68630  Biso   1.000  H
  C76      1.0000 0.36380  0.41530  0.82040  Biso   1.000  C
  C77      1.0000 0.45200  0.27070  0.98620  Biso   1.000  C
  O25      1.0000 0.41010  0.18940  0.69310  Biso   1.000  O
  N5       1.0000 0.38290  0.54790  0.80520  Biso   1.000  N
  C78      1.0000 0.38050  0.58050  0.72870  Biso   1.000  C
  H36      1.0000 0.35340  0.57600  0.68470  Biso   1.000  H
  C79      1.0000 0.41780  0.61960  0.71670  Biso   1.000  C
  H37      1.0000 0.41620  0.64180  0.66450  Biso   1.000  H
  C80      1.0000 0.45750  0.62600  0.78100  Biso   1.000  C
  H38      1.0000 0.48300  0.65280  0.77300  Biso   1.000  H
  C81      1.0000 0.45990  0.59340  0.85770  Biso   1.000  C
  H39      1.0000 0.48700  0.59790  0.90170  Biso   1.000  H
  C82      1.0000 0.42260  0.55430  0.86970  Biso   1.000  C
  H40      1.0000 0.42420  0.53210  0.92190  Biso   1.000  H
  C83      1.0000 0.25800  0.41180  0.91590  Biso   1.000  C
  C84      1.0000 0.27400  0.39760  0.01410  Biso   1.000  C
  C85      1.0000 0.26300  0.37060  0.97080  Biso   1.000  C
  Co6      1.0000 0.81661  0.00036  0.33637  Biso   1.000  Co
  O26      1.0000 0.86450  0.94170  0.39590  Biso   1.000  O
  O27      1.0000 0.84310  0.93490  0.24910  Biso   1.000  O
  O28      1.0000 0.96600  0.72480  0.48750  Biso   1.000  O
  O29      1.0000 0.95530  0.80400  0.55200  Biso   1.000  O
  C86      1.0000 0.88580  0.86210  0.31880  Biso   1.000  C
  C87      1.0000 0.90110  0.74380  0.16500  Biso   1.000  C
  C88      1.0000 0.90800  0.84370  0.39780  Biso   1.000  C
  H41      1.0000 0.91050  0.86580  0.45030  Biso   1.000  H
  C89      1.0000 0.92720  0.79160  0.40140  Biso   1.000  C
  C90      1.0000 0.92450  0.76080  0.32130  Biso   1.000  C
  H42      1.0000 0.93820  0.72620  0.32180  Biso   1.000  H
  C91      1.0000 0.90260  0.78000  0.24290  Biso   1.000  C
  C92      1.0000 0.88360  0.83070  0.24140  Biso   1.000  C
  H43      1.0000 0.86870  0.84420  0.18630  Biso   1.000  H
  C93      1.0000 0.86380  0.91530  0.32040  Biso   1.000  C
  C94      1.0000 0.95200  0.77070  0.48620  Biso   1.000  C
  O30      1.0000 0.91010  0.68940  0.19310  Biso   1.000  O
  N6       1.0000 0.88290  0.04790  0.30520  Biso   1.000  N
  C95      1.0000 0.88050  0.08050  0.22870  Biso   1.000  C
  H44      1.0000 0.85340  0.07600  0.18470  Biso   1.000  H
  C96      1.0000 0.91780  0.11960  0.21670  Biso   1.000  C
  H45      1.0000 0.91620  0.14180  0.16450  Biso   1.000  H
  C97      1.0000 0.95750  0.12600  0.28100  Biso   1.000  C
  H46      1.0000 0.98300  0.15280  0.27300  Biso   1.000  H
  C98      1.0000 0.95990  0.09340  0.35770  Biso   1.000  C
  H47      1.0000 0.98700  0.09790  0.40170  Biso   1.000  H
  C99      1.0000 0.92260  0.05430  0.36970  Biso   1.000  C
  H48      1.0000 0.92420  0.03210  0.42190  Biso   1.000  H
  C100     1.0000 0.75800  0.91180  0.41590  Biso   1.000  C
  C101     1.0000 0.77400  0.89760  0.51410  Biso   1.000  C
  C102     1.0000 0.76300  0.87060  0.47080  Biso   1.000  C
  Co7      1.0000 0.68339  0.49964  0.83637  Biso   1.000  Co
  O31      1.0000 0.63550  0.55830  0.89590  Biso   1.000  O
  O32      1.0000 0.65690  0.56510  0.74910  Biso   1.000  O
  O33      1.0000 0.53400  0.77520  0.98750  Biso   1.000  O
  O34      1.0000 0.54470  0.69600  0.05200  Biso   1.000  O
  C103     1.0000 0.61420  0.63790  0.81880  Biso   1.000  C
  C104     1.0000 0.59890  0.75620  0.66500  Biso   1.000  C
  C105     1.0000 0.59200  0.65630  0.89780  Biso   1.000  C
  H49      1.0000 0.58950  0.63420  0.95030  Biso   1.000  H
  C106     1.0000 0.57280  0.70840  0.90140  Biso   1.000  C
  C107     1.0000 0.57550  0.73920  0.82130  Biso   1.000  C
  H50      1.0000 0.56180  0.77380  0.82180  Biso   1.000  H
  C108     1.0000 0.59740  0.72000  0.74290  Biso   1.000  C
  C109     1.0000 0.61640  0.66930  0.74140  Biso   1.000  C
  H51      1.0000 0.63130  0.65580  0.68630  Biso   1.000  H
  C110     1.0000 0.63620  0.58470  0.82040  Biso   1.000  C
  C111     1.0000 0.54800  0.72930  0.98620  Biso   1.000  C
  O35      1.0000 0.58990  0.81060  0.69310  Biso   1.000  O
  N7       1.0000 0.61710  0.45210  0.80520  Biso   1.000  N
  C112     1.0000 0.61950  0.41950  0.72870  Biso   1.000  C
  H52      1.0000 0.64660  0.42400  0.68470  Biso   1.000  H
  C113     1.0000 0.58220  0.38040  0.71670  Biso   1.000  C
  H53      1.0000 0.58380  0.35820  0.66450  Biso   1.000  H
  C114     1.0000 0.54250  0.37400  0.78100  Biso   1.000  C
  H54      1.0000 0.51700  0.34720  0.77300  Biso   1.000  H
  C115     1.0000 0.54010  0.40660  0.85770  Biso   1.000  C
  H55      1.0000 0.51300  0.40210  0.90170  Biso   1.000  H
  C116     1.0000 0.57740  0.44570  0.86970  Biso   1.000  C
  H56      1.0000 0.57580  0.46790  0.92190  Biso   1.000  H
  C117     1.0000 0.74200  0.58820  0.91590  Biso   1.000  C
  C118     1.0000 0.72600  0.60240  0.01410  Biso   1.000  C
  C119     1.0000 0.73700  0.62940  0.97080  Biso   1.000  C
  Co8      1.0000 0.18339  0.99964  0.33637  Biso   1.000  Co
  O36      1.0000 0.13550  0.05830  0.39590  Biso   1.000  O
  O37      1.0000 0.15690  0.06510  0.24910  Biso   1.000  O
  O38      1.0000 0.03400  0.27520  0.48750  Biso   1.000  O
  O39      1.0000 0.04470  0.19600  0.55200  Biso   1.000  O
  C120     1.0000 0.11420  0.13790  0.31880  Biso   1.000  C
  C121     1.0000 0.09890  0.25620  0.16500  Biso   1.000  C
  C122     1.0000 0.09200  0.15630  0.39780  Biso   1.000  C
  H57      1.0000 0.08950  0.13420  0.45030  Biso   1.000  H
  C123     1.0000 0.07280  0.20840  0.40140  Biso   1.000  C
  C124     1.0000 0.07550  0.23920  0.32130  Biso   1.000  C
  H58      1.0000 0.06180  0.27380  0.32180  Biso   1.000  H
  C125     1.0000 0.09740  0.22000  0.24290  Biso   1.000  C
  C126     1.0000 0.11640  0.16930  0.24140  Biso   1.000  C
  H59      1.0000 0.13130  0.15580  0.18630  Biso   1.000  H
  C127     1.0000 0.13620  0.08470  0.32040  Biso   1.000  C
  C128     1.0000 0.04800  0.22930  0.48620  Biso   1.000  C
  O40      1.0000 0.08990  0.31060  0.19310  Biso   1.000  O
  N8       1.0000 0.11710  0.95210  0.30520  Biso   1.000  N
  C129     1.0000 0.11950  0.91950  0.22870  Biso   1.000  C
  H60      1.0000 0.14660  0.92400  0.18470  Biso   1.000  H
  C130     1.0000 0.08220  0.88040  0.21670  Biso   1.000  C
  H61      1.0000 0.08380  0.85820  0.16450  Biso   1.000  H
  C131     1.0000 0.04250  0.87400  0.28100  Biso   1.000  C
  H62      1.0000 0.01700  0.84720  0.27300  Biso   1.000  H
  C132     1.0000 0.04010  0.90660  0.35770  Biso   1.000  C
  H63      1.0000 0.01300  0.90210  0.40170  Biso   1.000  H
  C133     1.0000 0.07740  0.94570  0.36970  Biso   1.000  C
  H64      1.0000 0.07580  0.96790  0.42190  Biso   1.000  H
  C134     1.0000 0.24200  0.08820  0.41590  Biso   1.000  C
  C135     1.0000 0.22600  0.10240  0.51410  Biso   1.000  C
  C136     1.0000 0.23700  0.12940  0.47080  Biso   1.000  C
  Co9      1.0000 0.00036  0.31661  0.58637  Biso   1.000  Co
  O41      1.0000 0.94170  0.36450  0.64590  Biso   1.000  O
  O42      1.0000 0.93490  0.34310  0.49910  Biso   1.000  O
  O43      1.0000 0.72480  0.46600  0.73750  Biso   1.000  O
  O44      1.0000 0.80400  0.45530  0.80200  Biso   1.000  O
  C137     1.0000 0.86210  0.38580  0.56880  Biso   1.000  C
  C138     1.0000 0.74380  0.40110  0.41500  Biso   1.000  C
  C139     1.0000 0.84370  0.40800  0.64780  Biso   1.000  C
  H65      1.0000 0.86580  0.41050  0.70030  Biso   1.000  H
  C140     1.0000 0.79160  0.42720  0.65140  Biso   1.000  C
  C141     1.0000 0.76080  0.42450  0.57130  Biso   1.000  C
  H66      1.0000 0.72620  0.43820  0.57180  Biso   1.000  H
  C142     1.0000 0.78000  0.40260  0.49290  Biso   1.000  C
  C143     1.0000 0.83070  0.38360  0.49140  Biso   1.000  C
  H67      1.0000 0.84420  0.36870  0.43630  Biso   1.000  H
  C144     1.0000 0.91530  0.36380  0.57040  Biso   1.000  C
  C145     1.0000 0.77070  0.45200  0.73620  Biso   1.000  C
  O45      1.0000 0.68940  0.41010  0.44310  Biso   1.000  O
  N9       1.0000 0.04790  0.38290  0.55520  Biso   1.000  N
  C146     1.0000 0.08050  0.38050  0.47870  Biso   1.000  C
  H68      1.0000 0.07600  0.35340  0.43470  Biso   1.000  H
  C147     1.0000 0.11960  0.41780  0.46670  Biso   1.000  C
  H69      1.0000 0.14180  0.41620  0.41450  Biso   1.000  H
  C148     1.0000 0.12600  0.45750  0.53100  Biso   1.000  C
  H70      1.0000 0.15280  0.48300  0.52300  Biso   1.000  H
  C149     1.0000 0.09340  0.45990  0.60770  Biso   1.000  C
  H71      1.0000 0.09790  0.48700  0.65170  Biso   1.000  H
  C150     1.0000 0.05430  0.42260  0.61970  Biso   1.000  C
  H72      1.0000 0.03210  0.42420  0.67190  Biso   1.000  H
  C151     1.0000 0.91180  0.25800  0.66590  Biso   1.000  C
  C152     1.0000 0.89760  0.27400  0.76410  Biso   1.000  C
  C153     1.0000 0.87060  0.26300  0.72080  Biso   1.000  C
  Co10     1.0000 0.50036  0.81661  0.08637  Biso   1.000  Co
  O46      1.0000 0.44170  0.86450  0.14590  Biso   1.000  O
  O47      1.0000 0.43490  0.84310  0.99910  Biso   1.000  O
  O48      1.0000 0.22480  0.96600  0.23750  Biso   1.000  O
  O49      1.0000 0.30400  0.95530  0.30200  Biso   1.000  O
  C154     1.0000 0.36210  0.88580  0.06880  Biso   1.000  C
  C155     1.0000 0.24380  0.90110  0.91500  Biso   1.000  C
  C156     1.0000 0.34370  0.90800  0.14780  Biso   1.000  C
  H73      1.0000 0.36580  0.91050  0.20030  Biso   1.000  H
  C157     1.0000 0.29160  0.92720  0.15140  Biso   1.000  C
  C158     1.0000 0.26080  0.92450  0.07130  Biso   1.000  C
  H74      1.0000 0.22620  0.93820  0.07180  Biso   1.000  H
  C159     1.0000 0.28000  0.90260  0.99290  Biso   1.000  C
  C160     1.0000 0.33070  0.88360  0.99140  Biso   1.000  C
  H75      1.0000 0.34420  0.86870  0.93630  Biso   1.000  H
  C161     1.0000 0.41530  0.86380  0.07040  Biso   1.000  C
  C162     1.0000 0.27070  0.95200  0.23620  Biso   1.000  C
  O50      1.0000 0.18940  0.91010  0.94310  Biso   1.000  O
  N10      1.0000 0.54790  0.88290  0.05520  Biso   1.000  N
  C163     1.0000 0.58050  0.88050  0.97870  Biso   1.000  C
  H76      1.0000 0.57600  0.85340  0.93470  Biso   1.000  H
  C164     1.0000 0.61960  0.91780  0.96670  Biso   1.000  C
  H77      1.0000 0.64180  0.91620  0.91450  Biso   1.000  H
  C165     1.0000 0.62600  0.95750  0.03100  Biso   1.000  C
  H78      1.0000 0.65280  0.98300  0.02300  Biso   1.000  H
  C166     1.0000 0.59340  0.95990  0.10770  Biso   1.000  C
  H79      1.0000 0.59790  0.98700  0.15170  Biso   1.000  H
  C167     1.0000 0.55430  0.92260  0.11970  Biso   1.000  C
  H80      1.0000 0.53210  0.92420  0.17190  Biso   1.000  H
  C168     1.0000 0.41180  0.75800  0.16590  Biso   1.000  C
  C169     1.0000 0.39760  0.77400  0.26410  Biso   1.000  C
  C170     1.0000 0.37060  0.76300  0.22080  Biso   1.000  C
  Co11     1.0000 0.99964  0.68339  0.58637  Biso   1.000  Co
  O51      1.0000 0.05830  0.63550  0.64590  Biso   1.000  O
  O52      1.0000 0.06510  0.65690  0.49910  Biso   1.000  O
  O53      1.0000 0.27520  0.53400  0.73750  Biso   1.000  O
  O54      1.0000 0.19600  0.54470  0.80200  Biso   1.000  O
  C171     1.0000 0.13790  0.61420  0.56880  Biso   1.000  C
  C172     1.0000 0.25620  0.59890  0.41500  Biso   1.000  C
  C173     1.0000 0.15630  0.59200  0.64780  Biso   1.000  C
  H81      1.0000 0.13420  0.58950  0.70030  Biso   1.000  H
  C174     1.0000 0.20840  0.57280  0.65140  Biso   1.000  C
  C175     1.0000 0.23920  0.57550  0.57130  Biso   1.000  C
  H82      1.0000 0.27380  0.56180  0.57180  Biso   1.000  H
  C176     1.0000 0.22000  0.59740  0.49290  Biso   1.000  C
  C177     1.0000 0.16930  0.61640  0.49140  Biso   1.000  C
  H83      1.0000 0.15580  0.63130  0.43630  Biso   1.000  H
  C178     1.0000 0.08470  0.63620  0.57040  Biso   1.000  C
  C179     1.0000 0.22930  0.54800  0.73620  Biso   1.000  C
  O55      1.0000 0.31060  0.58990  0.44310  Biso   1.000  O
  N11      1.0000 0.95210  0.61710  0.55520  Biso   1.000  N
  C180     1.0000 0.91950  0.61950  0.47870  Biso   1.000  C
  H84      1.0000 0.92400  0.64660  0.43470  Biso   1.000  H
  C181     1.0000 0.88040  0.58220  0.46670  Biso   1.000  C
  H85      1.0000 0.85820  0.58380  0.41450  Biso   1.000  H
  C182     1.0000 0.87400  0.54250  0.53100  Biso   1.000  C
  H86      1.0000 0.84720  0.51700  0.52300  Biso   1.000  H
  C183     1.0000 0.90660  0.54010  0.60770  Biso   1.000  C
  H87      1.0000 0.90210  0.51300  0.65170  Biso   1.000  H
  C184     1.0000 0.94570  0.57740  0.61970  Biso   1.000  C
  H88      1.0000 0.96790  0.57580  0.67190  Biso   1.000  H
  C185     1.0000 0.08820  0.74200  0.66590  Biso   1.000  C
  C186     1.0000 0.10240  0.72600  0.76410  Biso   1.000  C
  C187     1.0000 0.12940  0.73700  0.72080  Biso   1.000  C
  Co12     1.0000 0.49964  0.18339  0.08637  Biso   1.000  Co
  O56      1.0000 0.55830  0.13550  0.14590  Biso   1.000  O
  O57      1.0000 0.56510  0.15690  0.99910  Biso   1.000  O
  O58      1.0000 0.77520  0.03400  0.23750  Biso   1.000  O
  O59      1.0000 0.69600  0.04470  0.30200  Biso   1.000  O
  C188     1.0000 0.63790  0.11420  0.06880  Biso   1.000  C
  C189     1.0000 0.75620  0.09890  0.91500  Biso   1.000  C
  C190     1.0000 0.65630  0.09200  0.14780  Biso   1.000  C
  H89      1.0000 0.63420  0.08950  0.20030  Biso   1.000  H
  C191     1.0000 0.70840  0.07280  0.15140  Biso   1.000  C
  C192     1.0000 0.73920  0.07550  0.07130  Biso   1.000  C
  H90      1.0000 0.77380  0.06180  0.07180  Biso   1.000  H
  C193     1.0000 0.72000  0.09740  0.99290  Biso   1.000  C
  C194     1.0000 0.66930  0.11640  0.99140  Biso   1.000  C
  H91      1.0000 0.65580  0.13130  0.93630  Biso   1.000  H
  C195     1.0000 0.58470  0.13620  0.07040  Biso   1.000  C
  C196     1.0000 0.72930  0.04800  0.23620  Biso   1.000  C
  O60      1.0000 0.81060  0.08990  0.94310  Biso   1.000  O
  N12      1.0000 0.45210  0.11710  0.05520  Biso   1.000  N
  C197     1.0000 0.41950  0.11950  0.97870  Biso   1.000  C
  H92      1.0000 0.42400  0.14660  0.93470  Biso   1.000  H
  C198     1.0000 0.38040  0.08220  0.96670  Biso   1.000  C
  H93      1.0000 0.35820  0.08380  0.91450  Biso   1.000  H
  C199     1.0000 0.37400  0.04250  0.03100  Biso   1.000  C
  H94      1.0000 0.34720  0.01700  0.02300  Biso   1.000  H
  C200     1.0000 0.40660  0.04010  0.10770  Biso   1.000  C
  H95      1.0000 0.40210  0.01300  0.15170  Biso   1.000  H
  C201     1.0000 0.44570  0.07740  0.11970  Biso   1.000  C
  H96      1.0000 0.46790  0.07580  0.17190  Biso   1.000  H
  C202     1.0000 0.58820  0.24200  0.16590  Biso   1.000  C
  C203     1.0000 0.60240  0.22600  0.26410  Biso   1.000  C
  C204     1.0000 0.62940  0.23700  0.22080  Biso   1.000  C
  Co13     1.0000 0.18339  0.50036  0.91363  Biso   1.000  Co
  O61      1.0000 0.13550  0.44170  0.85410  Biso   1.000  O
  O62      1.0000 0.15690  0.43490  0.00090  Biso   1.000  O
  O63      1.0000 0.03400  0.22480  0.76250  Biso   1.000  O
  O64      1.0000 0.04470  0.30400  0.69800  Biso   1.000  O
  C205     1.0000 0.11420  0.36210  0.93120  Biso   1.000  C
  C206     1.0000 0.09890  0.24380  0.08500  Biso   1.000  C
  C207     1.0000 0.09200  0.34370  0.85220  Biso   1.000  C
  H97      1.0000 0.08950  0.36580  0.79970  Biso   1.000  H
  C208     1.0000 0.07280  0.29160  0.84860  Biso   1.000  C
  C209     1.0000 0.07550  0.26080  0.92870  Biso   1.000  C
  H98      1.0000 0.06180  0.22620  0.92820  Biso   1.000  H
  C210     1.0000 0.09740  0.28000  0.00710  Biso   1.000  C
  C211     1.0000 0.11640  0.33070  0.00860  Biso   1.000  C
  H99      1.0000 0.13130  0.34420  0.06370  Biso   1.000  H
  C212     1.0000 0.13620  0.41530  0.92960  Biso   1.000  C
  C213     1.0000 0.04800  0.27070  0.76380  Biso   1.000  C
  O65      1.0000 0.08990  0.18940  0.05690  Biso   1.000  O
  N13      1.0000 0.11710  0.54790  0.94480  Biso   1.000  N
  C214     1.0000 0.11950  0.58050  0.02130  Biso   1.000  C
  H100     1.0000 0.14660  0.57600  0.06530  Biso   1.000  H
  C215     1.0000 0.08220  0.61960  0.03330  Biso   1.000  C
  H101     1.0000 0.08380  0.64180  0.08550  Biso   1.000  H
  C216     1.0000 0.04250  0.62600  0.96900  Biso   1.000  C
  H102     1.0000 0.01700  0.65280  0.97700  Biso   1.000  H
  C217     1.0000 0.04010  0.59340  0.89230  Biso   1.000  C
  H103     1.0000 0.01300  0.59790  0.84830  Biso   1.000  H
  C218     1.0000 0.07740  0.55430  0.88030  Biso   1.000  C
  H104     1.0000 0.07580  0.53210  0.82810  Biso   1.000  H
  C219     1.0000 0.24200  0.41180  0.83410  Biso   1.000  C
  C220     1.0000 0.22600  0.39760  0.73590  Biso   1.000  C
  C221     1.0000 0.23700  0.37060  0.77920  Biso   1.000  C
  Co14     1.0000 0.68339  0.00036  0.41363  Biso   1.000  Co
  O66      1.0000 0.63550  0.94170  0.35410  Biso   1.000  O
  O67      1.0000 0.65690  0.93490  0.50090  Biso   1.000  O
  O68      1.0000 0.53400  0.72480  0.26250  Biso   1.000  O
  O69      1.0000 0.54470  0.80400  0.19800  Biso   1.000  O
  C222     1.0000 0.61420  0.86210  0.43120  Biso   1.000  C
  C223     1.0000 0.59890  0.74380  0.58500  Biso   1.000  C
  C224     1.0000 0.59200  0.84370  0.35220  Biso   1.000  C
  H105     1.0000 0.58950  0.86580  0.29970  Biso   1.000  H
  C225     1.0000 0.57280  0.79160  0.34860  Biso   1.000  C
  C226     1.0000 0.57550  0.76080  0.42870  Biso   1.000  C
  H106     1.0000 0.56180  0.72620  0.42820  Biso   1.000  H
  C227     1.0000 0.59740  0.78000  0.50710  Biso   1.000  C
  C228     1.0000 0.61640  0.83070  0.50860  Biso   1.000  C
  H107     1.0000 0.63130  0.84420  0.56370  Biso   1.000  H
  C229     1.0000 0.63620  0.91530  0.42960  Biso   1.000  C
  C230     1.0000 0.54800  0.77070  0.26380  Biso   1.000  C
  O70      1.0000 0.58990  0.68940  0.55690  Biso   1.000  O
  N14      1.0000 0.61710  0.04790  0.44480  Biso   1.000  N
  C231     1.0000 0.61950  0.08050  0.52130  Biso   1.000  C
  H108     1.0000 0.64660  0.07600  0.56530  Biso   1.000  H
  C232     1.0000 0.58220  0.11960  0.53330  Biso   1.000  C
  H109     1.0000 0.58380  0.14180  0.58550  Biso   1.000  H
  C233     1.0000 0.54250  0.12600  0.46900  Biso   1.000  C
  H110     1.0000 0.51700  0.15280  0.47700  Biso   1.000  H
  C234     1.0000 0.54010  0.09340  0.39230  Biso   1.000  C
  H111     1.0000 0.51300  0.09790  0.34830  Biso   1.000  H
  C235     1.0000 0.57740  0.05430  0.38030  Biso   1.000  C
  H112     1.0000 0.57580  0.03210  0.32810  Biso   1.000  H
  C236     1.0000 0.74200  0.91180  0.33410  Biso   1.000  C
  C237     1.0000 0.72600  0.89760  0.23590  Biso   1.000  C
  C238     1.0000 0.73700  0.87060  0.27920  Biso   1.000  C
  Co15     1.0000 0.81661  0.49964  0.91363  Biso   1.000  Co
  O71      1.0000 0.86450  0.55830  0.85410  Biso   1.000  O
  O72      1.0000 0.84310  0.56510  0.00090  Biso   1.000  O
  O73      1.0000 0.96600  0.77520  0.76250  Biso   1.000  O
  O74      1.0000 0.95530  0.69600  0.69800  Biso   1.000  O
  C239     1.0000 0.88580  0.63790  0.93120  Biso   1.000  C
  C240     1.0000 0.90110  0.75620  0.08500  Biso   1.000  C
  C241     1.0000 0.90800  0.65630  0.85220  Biso   1.000  C
  H113     1.0000 0.91050  0.63420  0.79970  Biso   1.000  H
  C242     1.0000 0.92720  0.70840  0.84860  Biso   1.000  C
  C243     1.0000 0.92450  0.73920  0.92870  Biso   1.000  C
  H114     1.0000 0.93820  0.77380  0.92820  Biso   1.000  H
  C244     1.0000 0.90260  0.72000  0.00710  Biso   1.000  C
  C245     1.0000 0.88360  0.66930  0.00860  Biso   1.000  C
  H115     1.0000 0.86870  0.65580  0.06370  Biso   1.000  H
  C246     1.0000 0.86380  0.58470  0.92960  Biso   1.000  C
  C247     1.0000 0.95200  0.72930  0.76380  Biso   1.000  C
  O75      1.0000 0.91010  0.81060  0.05690  Biso   1.000  O
  N15      1.0000 0.88290  0.45210  0.94480  Biso   1.000  N
  C248     1.0000 0.88050  0.41950  0.02130  Biso   1.000  C
  H116     1.0000 0.85340  0.42400  0.06530  Biso   1.000  H
  C249     1.0000 0.91780  0.38040  0.03330  Biso   1.000  C
  H117     1.0000 0.91620  0.35820  0.08550  Biso   1.000  H
  C250     1.0000 0.95750  0.37400  0.96900  Biso   1.000  C
  H118     1.0000 0.98300  0.34720  0.97700  Biso   1.000  H
  C251     1.0000 0.95990  0.40660  0.89230  Biso   1.000  C
  H119     1.0000 0.98700  0.40210  0.84830  Biso   1.000  H
  C252     1.0000 0.92260  0.44570  0.88030  Biso   1.000  C
  H120     1.0000 0.92420  0.46790  0.82810  Biso   1.000  H
  C253     1.0000 0.75800  0.58820  0.83410  Biso   1.000  C
  C254     1.0000 0.77400  0.60240  0.73590  Biso   1.000  C
  C255     1.0000 0.76300  0.62940  0.77920  Biso   1.000  C
  Co16     1.0000 0.31661  0.99964  0.41363  Biso   1.000  Co
  O76      1.0000 0.36450  0.05830  0.35410  Biso   1.000  O
  O77      1.0000 0.34310  0.06510  0.50090  Biso   1.000  O
  O78      1.0000 0.46600  0.27520  0.26250  Biso   1.000  O
  O79      1.0000 0.45530  0.19600  0.19800  Biso   1.000  O
  C256     1.0000 0.38580  0.13790  0.43120  Biso   1.000  C
  C257     1.0000 0.40110  0.25620  0.58500  Biso   1.000  C
  C258     1.0000 0.40800  0.15630  0.35220  Biso   1.000  C
  H121     1.0000 0.41050  0.13420  0.29970  Biso   1.000  H
  C259     1.0000 0.42720  0.20840  0.34860  Biso   1.000  C
  C260     1.0000 0.42450  0.23920  0.42870  Biso   1.000  C
  H122     1.0000 0.43820  0.27380  0.42820  Biso   1.000  H
  C261     1.0000 0.40260  0.22000  0.50710  Biso   1.000  C
  C262     1.0000 0.38360  0.16930  0.50860  Biso   1.000  C
  H123     1.0000 0.36870  0.15580  0.56370  Biso   1.000  H
  C263     1.0000 0.36380  0.08470  0.42960  Biso   1.000  C
  C264     1.0000 0.45200  0.22930  0.26380  Biso   1.000  C
  O80      1.0000 0.41010  0.31060  0.55690  Biso   1.000  O
  N16      1.0000 0.38290  0.95210  0.44480  Biso   1.000  N
  C265     1.0000 0.38050  0.91950  0.52130  Biso   1.000  C
  H124     1.0000 0.35340  0.92400  0.56530  Biso   1.000  H
  C266     1.0000 0.41780  0.88040  0.53330  Biso   1.000  C
  H125     1.0000 0.41620  0.85820  0.58550  Biso   1.000  H
  C267     1.0000 0.45750  0.87400  0.46900  Biso   1.000  C
  H126     1.0000 0.48300  0.84720  0.47700  Biso   1.000  H
  C268     1.0000 0.45990  0.90660  0.39230  Biso   1.000  C
  H127     1.0000 0.48700  0.90210  0.34830  Biso   1.000  H
  C269     1.0000 0.42260  0.94570  0.38030  Biso   1.000  C
  H128     1.0000 0.42420  0.96790  0.32810  Biso   1.000  H
  C270     1.0000 0.25800  0.08820  0.33410  Biso   1.000  C
  C271     1.0000 0.27400  0.10240  0.23590  Biso   1.000  C
  C272     1.0000 0.26300  0.12940  0.27920  Biso   1.000  C
  O81      1.0000 0.54820  0.25000  0.12500  Biso   1.000  O
  N17      1.0000 0.63760  0.25000  0.12500  Biso   1.000  N
  C273     1.0000 0.69380  0.25000  0.12500  Biso   1.000  C
  O82      1.0000 0.45180  0.75000  0.12500  Biso   1.000  O
  N18      1.0000 0.36240  0.75000  0.12500  Biso   1.000  N
  C274     1.0000 0.30620  0.75000  0.12500  Biso   1.000  C
  O83      1.0000 0.25000  0.45180  0.87500  Biso   1.000  O
  N19      1.0000 0.25000  0.36240  0.87500  Biso   1.000  N
  C275     1.0000 0.25000  0.30620  0.87500  Biso   1.000  C
  O84      1.0000 0.75000  0.95180  0.37500  Biso   1.000  O
  N20      1.0000 0.75000  0.86240  0.37500  Biso   1.000  N
  C276     1.0000 0.75000  0.80620  0.37500  Biso   1.000  C
  O85      1.0000 0.75000  0.54820  0.87500  Biso   1.000  O
  N21      1.0000 0.75000  0.63760  0.87500  Biso   1.000  N
  C277     1.0000 0.75000  0.69380  0.87500  Biso   1.000  C
  O86      1.0000 0.25000  0.04820  0.37500  Biso   1.000  O
  N22      1.0000 0.25000  0.13760  0.37500  Biso   1.000  N
  C278     1.0000 0.25000  0.19380  0.37500  Biso   1.000  C
  O87      1.0000 0.95180  0.25000  0.62500  Biso   1.000  O
  N23      1.0000 0.86240  0.25000  0.62500  Biso   1.000  N
  C279     1.0000 0.80620  0.25000  0.62500  Biso   1.000  C
  O88      1.0000 0.04820  0.75000  0.62500  Biso   1.000  O
  N24      1.0000 0.13760  0.75000  0.62500  Biso   1.000  N
  C280     1.0000 0.19380  0.75000  0.62500  Biso   1.000  C
