data_image0
_cell_length_a       7.1564
_cell_length_b       18.2265
_cell_length_c       8.1397
_cell_angle_alpha    90
_cell_angle_beta     95.038
_cell_angle_gamma    90

_symmetry_space_group_name_H-M    "P 1"
_symmetry_int_tables_number       1

loop_
  _symmetry_equiv_pos_as_xyz
  'x, y, z'

loop_
  _atom_site_label
  _atom_site_occupancy
  _atom_site_fract_x
  _atom_site_fract_y
  _atom_site_fract_z
  _atom_site_thermal_displace_type
  _atom_site_B_iso_or_equiv
  _atom_site_type_symbol
  V1       1.0000 0.25250  0.26127  0.99980  Biso   1.000  V
  P1       1.0000 0.97394  0.34764  0.73120  Biso   1.000  P
  P2       1.0000 0.51945  0.15107  0.22678  Biso   1.000  P
  O1       1.0000 0.97800  0.42648  0.67200  Biso   1.000  O
  O2       1.0000 0.16540  0.32720  0.81820  Biso   1.000  O
  O3       1.0000 0.81280  0.33749  0.84240  Biso   1.000  O
  O4       1.0000 0.34070  0.19430  0.18250  Biso   1.000  O
  O5       1.0000 0.68990  0.18650  0.16200  Biso   1.000  O
  O6       1.0000 0.55700  0.07730  0.14500  Biso   1.000  O
  O7       1.0000 0.52790  0.07240  0.81240  Biso   1.000  O
  C1       1.0000 0.92850  0.28580  0.56340  Biso   1.000  C
  H1       1.0000 0.92070  0.23550  0.60830  Biso   1.000  H
  H2       1.0000 0.80420  0.29780  0.50660  Biso   1.000  H
  C2       1.0000 0.55500  0.16820  0.45500  Biso   1.000  C
  H3       1.0000 0.64970  0.13200  0.49790  Biso   1.000  H
  H4       1.0000 0.61630  0.21680  0.46690  Biso   1.000  H
  C3       1.0000 0.56840  0.13070  0.43510  Biso   1.000  C
  H5       1.0000 0.62500  0.08110  0.43860  Biso   1.000  H
  H6       1.0000 0.66990  0.16480  0.47560  Biso   1.000  H
  V2       1.0000 0.74750  0.26127  0.00020  Biso   1.000  V
  P3       1.0000 0.02606  0.34764  0.26880  Biso   1.000  P
  P4       1.0000 0.48055  0.15107  0.77322  Biso   1.000  P
  O8       1.0000 0.02200  0.42648  0.32800  Biso   1.000  O
  O9       1.0000 0.83460  0.32720  0.18180  Biso   1.000  O
  O10      1.0000 0.18720  0.33749  0.15760  Biso   1.000  O
  O11      1.0000 0.65930  0.19430  0.81750  Biso   1.000  O
  O12      1.0000 0.31010  0.18650  0.83800  Biso   1.000  O
  O13      1.0000 0.44300  0.07730  0.85500  Biso   1.000  O
  O14      1.0000 0.47210  0.07240  0.18760  Biso   1.000  O
  C4       1.0000 0.07150  0.28580  0.43660  Biso   1.000  C
  H7       1.0000 0.07930  0.23550  0.39170  Biso   1.000  H
  H8       1.0000 0.19580  0.29780  0.49340  Biso   1.000  H
  C5       1.0000 0.44500  0.16820  0.54500  Biso   1.000  C
  H9       1.0000 0.35030  0.13200  0.50210  Biso   1.000  H
  H10      1.0000 0.38370  0.21680  0.53310  Biso   1.000  H
  C6       1.0000 0.43160  0.13070  0.56490  Biso   1.000  C
  H11      1.0000 0.37500  0.08110  0.56140  Biso   1.000  H
  H12      1.0000 0.33010  0.16480  0.52440  Biso   1.000  H
  V3       1.0000 0.74750  0.73873  0.00020  Biso   1.000  V
  P5       1.0000 0.02606  0.65236  0.26880  Biso   1.000  P
  P6       1.0000 0.48055  0.84893  0.77322  Biso   1.000  P
  O15      1.0000 0.02200  0.57352  0.32800  Biso   1.000  O
  O16      1.0000 0.83460  0.67280  0.18180  Biso   1.000  O
  O17      1.0000 0.18720  0.66251  0.15760  Biso   1.000  O
  O18      1.0000 0.65930  0.80570  0.81750  Biso   1.000  O
  O19      1.0000 0.31010  0.81350  0.83800  Biso   1.000  O
  O20      1.0000 0.44300  0.92270  0.85500  Biso   1.000  O
  O21      1.0000 0.47210  0.92760  0.18760  Biso   1.000  O
  C7       1.0000 0.07150  0.71420  0.43660  Biso   1.000  C
  H13      1.0000 0.07930  0.76450  0.39170  Biso   1.000  H
  H14      1.0000 0.19580  0.70220  0.49340  Biso   1.000  H
  C8       1.0000 0.44500  0.83180  0.54500  Biso   1.000  C
  H15      1.0000 0.35030  0.86800  0.50210  Biso   1.000  H
  H16      1.0000 0.38370  0.78320  0.53310  Biso   1.000  H
  C9       1.0000 0.43160  0.86930  0.56490  Biso   1.000  C
  H17      1.0000 0.37500  0.91890  0.56140  Biso   1.000  H
  H18      1.0000 0.33010  0.83520  0.52440  Biso   1.000  H
  V4       1.0000 0.25250  0.73873  0.99980  Biso   1.000  V
  P7       1.0000 0.97394  0.65236  0.73120  Biso   1.000  P
  P8       1.0000 0.51945  0.84893  0.22678  Biso   1.000  P
  O22      1.0000 0.97800  0.57352  0.67200  Biso   1.000  O
  O23      1.0000 0.16540  0.67280  0.81820  Biso   1.000  O
  O24      1.0000 0.81280  0.66251  0.84240  Biso   1.000  O
  O25      1.0000 0.34070  0.80570  0.18250  Biso   1.000  O
  O26      1.0000 0.68990  0.81350  0.16200  Biso   1.000  O
  O27      1.0000 0.55700  0.92270  0.14500  Biso   1.000  O
  O28      1.0000 0.52790  0.92760  0.81240  Biso   1.000  O
  C10      1.0000 0.92850  0.71420  0.56340  Biso   1.000  C
  H19      1.0000 0.92070  0.76450  0.60830  Biso   1.000  H
  H20      1.0000 0.80420  0.70220  0.50660  Biso   1.000  H
  C11      1.0000 0.55500  0.83180  0.45500  Biso   1.000  C
  H21      1.0000 0.64970  0.86800  0.49790  Biso   1.000  H
  H22      1.0000 0.61630  0.78320  0.46690  Biso   1.000  H
  C12      1.0000 0.56840  0.86930  0.43510  Biso   1.000  C
  H23      1.0000 0.62500  0.91890  0.43860  Biso   1.000  H
  H24      1.0000 0.66990  0.83520  0.47560  Biso   1.000  H
  V5       1.0000 0.00000  0.50000  0.50000  Biso   1.000  V
  V6       1.0000 0.50000  0.00000  0.00000  Biso   1.000  V
  F1       1.0000 0.00000  0.21781  0.00000  Biso   1.000  F
  F2       1.0000 0.00000  0.78219  0.00000  Biso   1.000  F
  F3       1.0000 0.50000  0.30502  0.00000  Biso   1.000  F
  F4       1.0000 0.50000  0.69498  0.00000  Biso   1.000  F
  O29      1.0000 0.24230  0.00000  0.95550  Biso   1.000  O
  O30      1.0000 0.80000  0.00000  0.91700  Biso   1.000  O
  O31      1.0000 0.75770  0.00000  0.04450  Biso   1.000  O
  O32      1.0000 0.20000  0.00000  0.08300  Biso   1.000  O
