data_image0
_cell_length_a       14.803
_cell_length_b       19.783
_cell_length_c       8.202
_cell_angle_alpha    90
_cell_angle_beta     90
_cell_angle_gamma    90

_symmetry_space_group_name_H-M    "P 1"
_symmetry_int_tables_number       1

loop_
  _symmetry_equiv_pos_as_xyz
  'x, y, z'

loop_
  _atom_site_label
  _atom_site_occupancy
  _atom_site_fract_x
  _atom_site_fract_y
  _atom_site_fract_z
  _atom_site_thermal_displace_type
  _atom_site_B_iso_or_equiv
  _atom_site_type_symbol
  O1       1.0000 0.75470  0.71630  0.72720  Biso   1.000  O
  O2       1.0000 0.64310  0.78810  0.66360  Biso   1.000  O
  O3       1.0000 0.64420  0.65900  0.95230  Biso   1.000  O
  O4       1.0000 0.54330  0.74030  0.90910  Biso   1.000  O
  C1       1.0000 0.67810  0.74040  0.74610  Biso   1.000  C
  C2       1.0000 0.61720  0.71000  0.87990  Biso   1.000  C
  O5       1.0000 0.24530  0.71630  0.77280  Biso   1.000  O
  O6       1.0000 0.35690  0.78810  0.83640  Biso   1.000  O
  O7       1.0000 0.35580  0.65900  0.54770  Biso   1.000  O
  O8       1.0000 0.45670  0.74030  0.59090  Biso   1.000  O
  C3       1.0000 0.32190  0.74040  0.75390  Biso   1.000  C
  C4       1.0000 0.38280  0.71000  0.62010  Biso   1.000  C
  Bi1      1.0000 0.50000  0.82854  0.75000  Biso   1.000  Bi
  O9       1.0000 0.74530  0.78370  0.22720  Biso   1.000  O
  O10      1.0000 0.85690  0.71190  0.16360  Biso   1.000  O
  O11      1.0000 0.85580  0.84100  0.45230  Biso   1.000  O
  O12      1.0000 0.95670  0.75970  0.40910  Biso   1.000  O
  C5       1.0000 0.82190  0.75960  0.24610  Biso   1.000  C
  C6       1.0000 0.88280  0.79000  0.37990  Biso   1.000  C
  O13      1.0000 0.25470  0.78370  0.27280  Biso   1.000  O
  O14      1.0000 0.14310  0.71190  0.33640  Biso   1.000  O
  O15      1.0000 0.14420  0.84100  0.04770  Biso   1.000  O
  O16      1.0000 0.04330  0.75970  0.09090  Biso   1.000  O
  C7       1.0000 0.17810  0.75960  0.25390  Biso   1.000  C
  C8       1.0000 0.11720  0.79000  0.12010  Biso   1.000  C
  Bi2      1.0000 0.00000  0.67146  0.25000  Biso   1.000  Bi
  O17      1.0000 0.24530  0.28370  0.27280  Biso   1.000  O
  O18      1.0000 0.35690  0.21190  0.33640  Biso   1.000  O
  O19      1.0000 0.35580  0.34100  0.04770  Biso   1.000  O
  O20      1.0000 0.45670  0.25970  0.09090  Biso   1.000  O
  C9       1.0000 0.32190  0.25960  0.25390  Biso   1.000  C
  C10      1.0000 0.38280  0.29000  0.12010  Biso   1.000  C
  O21      1.0000 0.75470  0.28370  0.22720  Biso   1.000  O
  O22      1.0000 0.64310  0.21190  0.16360  Biso   1.000  O
  O23      1.0000 0.64420  0.34100  0.45230  Biso   1.000  O
  O24      1.0000 0.54330  0.25970  0.40910  Biso   1.000  O
  C11      1.0000 0.67810  0.25960  0.24610  Biso   1.000  C
  C12      1.0000 0.61720  0.29000  0.37990  Biso   1.000  C
  Bi3      1.0000 0.50000  0.17146  0.25000  Biso   1.000  Bi
  O25      1.0000 0.25470  0.21630  0.77280  Biso   1.000  O
  O26      1.0000 0.14310  0.28810  0.83640  Biso   1.000  O
  O27      1.0000 0.14420  0.15900  0.54770  Biso   1.000  O
  O28      1.0000 0.04330  0.24030  0.59090  Biso   1.000  O
  C13      1.0000 0.17810  0.24040  0.75390  Biso   1.000  C
  C14      1.0000 0.11720  0.21000  0.62010  Biso   1.000  C
  O29      1.0000 0.74530  0.21630  0.72720  Biso   1.000  O
  O30      1.0000 0.85690  0.28810  0.66360  Biso   1.000  O
  O31      1.0000 0.85580  0.15900  0.95230  Biso   1.000  O
  O32      1.0000 0.95670  0.24030  0.90910  Biso   1.000  O
  C15      1.0000 0.82190  0.24040  0.74610  Biso   1.000  C
  C16      1.0000 0.88280  0.21000  0.87990  Biso   1.000  C
  Bi4      1.0000 0.00000  0.32854  0.75000  Biso   1.000  Bi
  Bi5      1.0000 0.19557  0.61612  0.59677  Biso   1.000  Bi
  O33      1.0000 0.27640  0.56260  0.79410  Biso   1.000  O
  O34      1.0000 0.28320  0.47150  0.95040  Biso   1.000  O
  O35      1.0000 0.12560  0.51410  0.65050  Biso   1.000  O
  O36      1.0000 0.12960  0.42500  0.81540  Biso   1.000  O
  C17      1.0000 0.15900  0.47950  0.76320  Biso   1.000  C
  C18      1.0000 0.24710  0.50670  0.84420  Biso   1.000  C
  Bi6      1.0000 0.80443  0.61612  0.90323  Biso   1.000  Bi
  O37      1.0000 0.72360  0.56260  0.70590  Biso   1.000  O
  O38      1.0000 0.71680  0.47150  0.54960  Biso   1.000  O
  O39      1.0000 0.87440  0.51410  0.84950  Biso   1.000  O
  O40      1.0000 0.87040  0.42500  0.68460  Biso   1.000  O
  C19      1.0000 0.84100  0.47950  0.73680  Biso   1.000  C
  C20      1.0000 0.75290  0.50670  0.65580  Biso   1.000  C
  O41      1.0000 0.22360  0.06260  0.79410  Biso   1.000  O
  O42      1.0000 0.21680  0.97150  0.95040  Biso   1.000  O
  O43      1.0000 0.37440  0.01410  0.65050  Biso   1.000  O
  O44      1.0000 0.37040  0.92500  0.81540  Biso   1.000  O
  C21      1.0000 0.34100  0.97950  0.76320  Biso   1.000  C
  C22      1.0000 0.25290  0.00670  0.84420  Biso   1.000  C
  Bi7      1.0000 0.30443  0.11612  0.59677  Biso   1.000  Bi
  O45      1.0000 0.77640  0.06260  0.70590  Biso   1.000  O
  O46      1.0000 0.78320  0.97150  0.54960  Biso   1.000  O
  O47      1.0000 0.62560  0.01410  0.84950  Biso   1.000  O
  O48      1.0000 0.62960  0.92500  0.68460  Biso   1.000  O
  C23      1.0000 0.65900  0.97950  0.73680  Biso   1.000  C
  C24      1.0000 0.74710  0.00670  0.65580  Biso   1.000  C
  Bi8      1.0000 0.69557  0.11612  0.90323  Biso   1.000  Bi
  Bi9      1.0000 0.30443  0.88388  0.09677  Biso   1.000  Bi
  O49      1.0000 0.22360  0.93740  0.29410  Biso   1.000  O
  O50      1.0000 0.21680  0.02850  0.45040  Biso   1.000  O
  O51      1.0000 0.37440  0.98590  0.15050  Biso   1.000  O
  O52      1.0000 0.37040  0.07500  0.31540  Biso   1.000  O
  C25      1.0000 0.34100  0.02050  0.26320  Biso   1.000  C
  C26      1.0000 0.25290  0.99330  0.34420  Biso   1.000  C
  Bi10     1.0000 0.69557  0.88388  0.40323  Biso   1.000  Bi
  O53      1.0000 0.77640  0.93740  0.20590  Biso   1.000  O
  O54      1.0000 0.78320  0.02850  0.04960  Biso   1.000  O
  O55      1.0000 0.62560  0.98590  0.34950  Biso   1.000  O
  O56      1.0000 0.62960  0.07500  0.18460  Biso   1.000  O
  C27      1.0000 0.65900  0.02050  0.23680  Biso   1.000  C
  C28      1.0000 0.74710  0.99330  0.15580  Biso   1.000  C
  O57      1.0000 0.27640  0.43740  0.29410  Biso   1.000  O
  O58      1.0000 0.28320  0.52850  0.45040  Biso   1.000  O
  O59      1.0000 0.12560  0.48590  0.15050  Biso   1.000  O
  O60      1.0000 0.12960  0.57500  0.31540  Biso   1.000  O
  C29      1.0000 0.15900  0.52050  0.26320  Biso   1.000  C
  C30      1.0000 0.24710  0.49330  0.34420  Biso   1.000  C
  Bi11     1.0000 0.19557  0.38388  0.09677  Biso   1.000  Bi
  O61      1.0000 0.72360  0.43740  0.20590  Biso   1.000  O
  O62      1.0000 0.71680  0.52850  0.04960  Biso   1.000  O
  O63      1.0000 0.87440  0.48590  0.34950  Biso   1.000  O
  O64      1.0000 0.87040  0.57500  0.18460  Biso   1.000  O
  C31      1.0000 0.84100  0.52050  0.23680  Biso   1.000  C
  C32      1.0000 0.75290  0.49330  0.15580  Biso   1.000  C
  Bi12     1.0000 0.80443  0.38388  0.40323  Biso   1.000  Bi
