data_image0
_cell_length_a       11.1001
_cell_length_b       11.1001
_cell_length_c       8.4055
_cell_angle_alpha    90
_cell_angle_beta     90
_cell_angle_gamma    90

_symmetry_space_group_name_H-M    "P 1"
_symmetry_int_tables_number       1

loop_
  _symmetry_equiv_pos_as_xyz
  'x, y, z'

loop_
  _atom_site_label
  _atom_site_occupancy
  _atom_site_fract_x
  _atom_site_fract_y
  _atom_site_fract_z
  _atom_site_thermal_displace_type
  _atom_site_B_iso_or_equiv
  _atom_site_type_symbol
  C1       1.0000 0.04220  0.36760  0.12640  Biso   1.000  C
  H1       1.0000 0.07220  0.40770  0.21650  Biso   1.000  H
  C2       1.0000 0.04100  0.24510  0.12260  Biso   1.000  C
  H2       1.0000 0.07070  0.20290  0.21130  Biso   1.000  H
  C3       1.0000 0.95780  0.63240  0.12640  Biso   1.000  C
  H3       1.0000 0.92780  0.59230  0.21650  Biso   1.000  H
  C4       1.0000 0.95900  0.75490  0.12260  Biso   1.000  C
  H4       1.0000 0.92930  0.79710  0.21130  Biso   1.000  H
  C5       1.0000 0.63240  0.04220  0.12640  Biso   1.000  C
  H5       1.0000 0.59230  0.07220  0.21650  Biso   1.000  H
  C6       1.0000 0.75490  0.04100  0.12260  Biso   1.000  C
  H6       1.0000 0.79710  0.07070  0.21130  Biso   1.000  H
  C7       1.0000 0.36760  0.95780  0.12640  Biso   1.000  C
  H7       1.0000 0.40770  0.92780  0.21650  Biso   1.000  H
  C8       1.0000 0.24510  0.95900  0.12260  Biso   1.000  C
  H8       1.0000 0.20290  0.92930  0.21130  Biso   1.000  H
  C9       1.0000 0.95780  0.36760  0.87360  Biso   1.000  C
  H9       1.0000 0.92780  0.40770  0.78350  Biso   1.000  H
  C10      1.0000 0.95900  0.24510  0.87740  Biso   1.000  C
  H10      1.0000 0.92930  0.20290  0.78870  Biso   1.000  H
  C11      1.0000 0.04220  0.63240  0.87360  Biso   1.000  C
  H11      1.0000 0.07220  0.59230  0.78350  Biso   1.000  H
  C12      1.0000 0.04100  0.75490  0.87740  Biso   1.000  C
  H12      1.0000 0.07070  0.79710  0.78870  Biso   1.000  H
  C13      1.0000 0.36760  0.04220  0.87360  Biso   1.000  C
  H13      1.0000 0.40770  0.07220  0.78350  Biso   1.000  H
  C14      1.0000 0.24510  0.04100  0.87740  Biso   1.000  C
  H14      1.0000 0.20290  0.07070  0.78870  Biso   1.000  H
  C15      1.0000 0.63240  0.95780  0.87360  Biso   1.000  C
  H15      1.0000 0.59230  0.92780  0.78350  Biso   1.000  H
  C16      1.0000 0.75490  0.95900  0.87740  Biso   1.000  C
  H16      1.0000 0.79710  0.92930  0.78870  Biso   1.000  H
  C17      1.0000 0.95780  0.63240  0.87360  Biso   1.000  C
  H17      1.0000 0.92780  0.59230  0.78350  Biso   1.000  H
  C18      1.0000 0.95900  0.75490  0.87740  Biso   1.000  C
  H18      1.0000 0.92930  0.79710  0.78870  Biso   1.000  H
  C19      1.0000 0.04220  0.36760  0.87360  Biso   1.000  C
  H19      1.0000 0.07220  0.40770  0.78350  Biso   1.000  H
  C20      1.0000 0.04100  0.24510  0.87740  Biso   1.000  C
  H20      1.0000 0.07070  0.20290  0.78870  Biso   1.000  H
  C21      1.0000 0.36760  0.95780  0.87360  Biso   1.000  C
  H21      1.0000 0.40770  0.92780  0.78350  Biso   1.000  H
  C22      1.0000 0.24510  0.95900  0.87740  Biso   1.000  C
  H22      1.0000 0.20290  0.92930  0.78870  Biso   1.000  H
  C23      1.0000 0.63240  0.04220  0.87360  Biso   1.000  C
  H23      1.0000 0.59230  0.07220  0.78350  Biso   1.000  H
  C24      1.0000 0.75490  0.04100  0.87740  Biso   1.000  C
  H24      1.0000 0.79710  0.07070  0.78870  Biso   1.000  H
  C25      1.0000 0.04220  0.63240  0.12640  Biso   1.000  C
  H25      1.0000 0.07220  0.59230  0.21650  Biso   1.000  H
  C26      1.0000 0.04100  0.75490  0.12260  Biso   1.000  C
  H26      1.0000 0.07070  0.79710  0.21130  Biso   1.000  H
  C27      1.0000 0.95780  0.36760  0.12640  Biso   1.000  C
  H27      1.0000 0.92780  0.40770  0.21650  Biso   1.000  H
  C28      1.0000 0.95900  0.24510  0.12260  Biso   1.000  C
  H28      1.0000 0.92930  0.20290  0.21130  Biso   1.000  H
  C29      1.0000 0.63240  0.95780  0.12640  Biso   1.000  C
  H29      1.0000 0.59230  0.92780  0.21650  Biso   1.000  H
  C30      1.0000 0.75490  0.95900  0.12260  Biso   1.000  C
  H30      1.0000 0.79710  0.92930  0.21130  Biso   1.000  H
  C31      1.0000 0.36760  0.04220  0.12640  Biso   1.000  C
  H31      1.0000 0.40770  0.07220  0.21650  Biso   1.000  H
  C32      1.0000 0.24510  0.04100  0.12260  Biso   1.000  C
  H32      1.0000 0.20290  0.07070  0.21130  Biso   1.000  H
  Cu1      1.0000 0.00000  0.00000  0.00000  Biso   1.000  Cu
  C33      1.0000 0.00000  0.43280  0.00000  Biso   1.000  C
  N1       1.0000 0.00000  0.18240  0.00000  Biso   1.000  N
  C34      1.0000 0.00000  0.56720  0.00000  Biso   1.000  C
  N2       1.0000 0.00000  0.81760  0.00000  Biso   1.000  N
  C35      1.0000 0.56720  0.00000  0.00000  Biso   1.000  C
  N3       1.0000 0.81760  0.00000  0.00000  Biso   1.000  N
  C36      1.0000 0.43280  0.00000  0.00000  Biso   1.000  C
  N4       1.0000 0.18240  0.00000  0.00000  Biso   1.000  N
