data_image0
_cell_length_a       11.116
_cell_length_b       11.116
_cell_length_c       8.627
_cell_angle_alpha    90
_cell_angle_beta     90
_cell_angle_gamma    90

_symmetry_space_group_name_H-M    "P 1"
_symmetry_int_tables_number       1

loop_
  _symmetry_equiv_pos_as_xyz
  'x, y, z'

loop_
  _atom_site_label
  _atom_site_occupancy
  _atom_site_fract_x
  _atom_site_fract_y
  _atom_site_fract_z
  _atom_site_thermal_displace_type
  _atom_site_B_iso_or_equiv
  _atom_site_type_symbol
  C1       1.0000 0.03850  0.36770  0.37330  Biso   1.000  C
  H1       1.0000 0.06520  0.40760  0.28360  Biso   1.000  H
  C2       1.0000 0.03790  0.24480  0.37850  Biso   1.000  C
  H2       1.0000 0.06570  0.20230  0.29140  Biso   1.000  H
  C3       1.0000 0.96150  0.63230  0.37330  Biso   1.000  C
  H3       1.0000 0.93480  0.59240  0.28360  Biso   1.000  H
  C4       1.0000 0.96210  0.75520  0.37850  Biso   1.000  C
  H4       1.0000 0.93430  0.79770  0.29140  Biso   1.000  H
  C5       1.0000 0.63230  0.03850  0.37330  Biso   1.000  C
  H5       1.0000 0.59240  0.06520  0.28360  Biso   1.000  H
  C6       1.0000 0.75520  0.03790  0.37850  Biso   1.000  C
  H6       1.0000 0.79770  0.06570  0.29140  Biso   1.000  H
  C7       1.0000 0.36770  0.96150  0.37330  Biso   1.000  C
  H7       1.0000 0.40760  0.93480  0.28360  Biso   1.000  H
  C8       1.0000 0.24480  0.96210  0.37850  Biso   1.000  C
  H8       1.0000 0.20230  0.93430  0.29140  Biso   1.000  H
  C9       1.0000 0.96150  0.36770  0.62670  Biso   1.000  C
  H9       1.0000 0.93480  0.40760  0.71640  Biso   1.000  H
  C10      1.0000 0.96210  0.24480  0.62150  Biso   1.000  C
  H10      1.0000 0.93430  0.20230  0.70860  Biso   1.000  H
  C11      1.0000 0.03850  0.63230  0.62670  Biso   1.000  C
  H11      1.0000 0.06520  0.59240  0.71640  Biso   1.000  H
  C12      1.0000 0.03790  0.75520  0.62150  Biso   1.000  C
  H12      1.0000 0.06570  0.79770  0.70860  Biso   1.000  H
  C13      1.0000 0.36770  0.03850  0.62670  Biso   1.000  C
  H13      1.0000 0.40760  0.06520  0.71640  Biso   1.000  H
  C14      1.0000 0.24480  0.03790  0.62150  Biso   1.000  C
  H14      1.0000 0.20230  0.06570  0.70860  Biso   1.000  H
  C15      1.0000 0.63230  0.96150  0.62670  Biso   1.000  C
  H15      1.0000 0.59240  0.93480  0.71640  Biso   1.000  H
  C16      1.0000 0.75520  0.96210  0.62150  Biso   1.000  C
  H16      1.0000 0.79770  0.93430  0.70860  Biso   1.000  H
  C17      1.0000 0.96150  0.63230  0.62670  Biso   1.000  C
  H17      1.0000 0.93480  0.59240  0.71640  Biso   1.000  H
  C18      1.0000 0.96210  0.75520  0.62150  Biso   1.000  C
  H18      1.0000 0.93430  0.79770  0.70860  Biso   1.000  H
  C19      1.0000 0.03850  0.36770  0.62670  Biso   1.000  C
  H19      1.0000 0.06520  0.40760  0.71640  Biso   1.000  H
  C20      1.0000 0.03790  0.24480  0.62150  Biso   1.000  C
  H20      1.0000 0.06570  0.20230  0.70860  Biso   1.000  H
  C21      1.0000 0.36770  0.96150  0.62670  Biso   1.000  C
  H21      1.0000 0.40760  0.93480  0.71640  Biso   1.000  H
  C22      1.0000 0.24480  0.96210  0.62150  Biso   1.000  C
  H22      1.0000 0.20230  0.93430  0.70860  Biso   1.000  H
  C23      1.0000 0.63230  0.03850  0.62670  Biso   1.000  C
  H23      1.0000 0.59240  0.06520  0.71640  Biso   1.000  H
  C24      1.0000 0.75520  0.03790  0.62150  Biso   1.000  C
  H24      1.0000 0.79770  0.06570  0.70860  Biso   1.000  H
  C25      1.0000 0.03850  0.63230  0.37330  Biso   1.000  C
  H25      1.0000 0.06520  0.59240  0.28360  Biso   1.000  H
  C26      1.0000 0.03790  0.75520  0.37850  Biso   1.000  C
  H26      1.0000 0.06570  0.79770  0.29140  Biso   1.000  H
  C27      1.0000 0.96150  0.36770  0.37330  Biso   1.000  C
  H27      1.0000 0.93480  0.40760  0.28360  Biso   1.000  H
  C28      1.0000 0.96210  0.24480  0.37850  Biso   1.000  C
  H28      1.0000 0.93430  0.20230  0.29140  Biso   1.000  H
  C29      1.0000 0.63230  0.96150  0.37330  Biso   1.000  C
  H29      1.0000 0.59240  0.93480  0.28360  Biso   1.000  H
  C30      1.0000 0.75520  0.96210  0.37850  Biso   1.000  C
  H30      1.0000 0.79770  0.93430  0.29140  Biso   1.000  H
  C31      1.0000 0.36770  0.03850  0.37330  Biso   1.000  C
  H31      1.0000 0.40760  0.06520  0.28360  Biso   1.000  H
  C32      1.0000 0.24480  0.03790  0.37850  Biso   1.000  C
  H32      1.0000 0.20230  0.06570  0.29140  Biso   1.000  H
  Cu1      1.0000 0.00000  0.00000  0.50000  Biso   1.000  Cu
  N1       1.0000 0.00000  0.18260  0.50000  Biso   1.000  N
  C33      1.0000 0.00000  0.43360  0.50000  Biso   1.000  C
  N2       1.0000 0.00000  0.81740  0.50000  Biso   1.000  N
  C34      1.0000 0.00000  0.56640  0.50000  Biso   1.000  C
  N3       1.0000 0.81740  0.00000  0.50000  Biso   1.000  N
  C35      1.0000 0.56640  0.00000  0.50000  Biso   1.000  C
  N4       1.0000 0.18260  0.00000  0.50000  Biso   1.000  N
  C36      1.0000 0.43360  0.00000  0.50000  Biso   1.000  C
