data_image0
_cell_length_a       13.455
_cell_length_b       13.564
_cell_length_c       9.7
_cell_angle_alpha    90
_cell_angle_beta     90
_cell_angle_gamma    90

_symmetry_space_group_name_H-M    "P 1"
_symmetry_int_tables_number       1

loop_
  _symmetry_equiv_pos_as_xyz
  'x, y, z'

loop_
  _atom_site_label
  _atom_site_occupancy
  _atom_site_fract_x
  _atom_site_fract_y
  _atom_site_fract_z
  _atom_site_thermal_displace_type
  _atom_site_B_iso_or_equiv
  _atom_site_type_symbol
  O1       1.0000 0.13940  0.44750  0.11880  Biso   1.000  O
  O2       1.0000 0.14770  0.47690  0.89040  Biso   1.000  O
  O3       1.0000 0.44750  0.13940  0.88120  Biso   1.000  O
  O4       1.0000 0.47690  0.14770  0.10960  Biso   1.000  O
  C1       1.0000 0.18510  0.45080  0.00430  Biso   1.000  C
  C2       1.0000 0.29510  0.42120  0.00380  Biso   1.000  C
  C3       1.0000 0.34420  0.48480  0.13510  Biso   1.000  C
  C4       1.0000 0.31130  0.30630  0.05210  Biso   1.000  C
  C5       1.0000 0.35190  0.43190  0.87770  Biso   1.000  C
  C6       1.0000 0.24280  0.24470  0.95620  Biso   1.000  C
  C7       1.0000 0.43530  0.35240  0.87590  Biso   1.000  C
  C8       1.0000 0.28920  0.27420  0.19870  Biso   1.000  C
  C9       1.0000 0.45080  0.18510  0.99570  Biso   1.000  C
  C10      1.0000 0.42120  0.29510  0.99620  Biso   1.000  C
  H1       1.0000 0.33527  0.55408  0.11911  Biso   1.000  H
  H2       1.0000 0.41385  0.47026  0.14197  Biso   1.000  H
  H3       1.0000 0.30860  0.42289  0.79875  Biso   1.000  H
  H4       1.0000 0.38136  0.49712  0.87413  Biso   1.000  H
  H5       1.0000 0.26230  0.25464  0.86202  Biso   1.000  H
  H6       1.0000 0.24879  0.17612  0.97922  Biso   1.000  H
  H7       1.0000 0.42953  0.31147  0.79429  Biso   1.000  H
  H8       1.0000 0.33030  0.31080  0.26135  Biso   1.000  H
  H9       1.0000 0.22049  0.28648  0.21909  Biso   1.000  H
  H10      1.0000 0.30288  0.20506  0.20813  Biso   1.000  H
  H11      1.0000 0.46343  0.32577  0.06647  Biso   1.000  H
  H12      1.0000 0.48687  0.41457  0.87511  Biso   1.000  H
  H13      1.0000 0.17625  0.26272  0.04195  Biso   1.000  H
  H14      1.0000 0.31097  0.42996  0.20560  Biso   1.000  H
  C11      1.0000 0.50245  0.08359  0.41943  Biso   1.000  C
  H15      1.0000 0.50439  0.14996  0.36582  Biso   1.000  H
  C12      1.0000 0.50245  0.08359  0.55446  Biso   1.000  C
  H16      1.0000 0.49561  0.85004  0.60805  Biso   1.000  H
  C13      1.0000 0.48480  0.34420  0.86490  Biso   1.000  C
  C14      1.0000 0.30630  0.31130  0.94790  Biso   1.000  C
  C15      1.0000 0.24470  0.24280  0.04380  Biso   1.000  C
  C16      1.0000 0.35240  0.43530  0.12410  Biso   1.000  C
  C17      1.0000 0.27420  0.28920  0.80130  Biso   1.000  C
  C18      1.0000 0.43190  0.35190  0.12230  Biso   1.000  C
  H17      1.0000 0.32622  0.46294  0.93353  Biso   1.000  H
  H18      1.0000 0.31153  0.46640  0.21924  Biso   1.000  H
  H19      1.0000 0.50022  0.38348  0.87729  Biso   1.000  H
  H20      1.0000 0.45263  0.32765  0.77964  Biso   1.000  H
  H21      1.0000 0.38413  0.49950  0.12261  Biso   1.000  H
  H22      1.0000 0.17513  0.26540  0.96831  Biso   1.000  H
  H23      1.0000 0.26969  0.24756  0.13626  Biso   1.000  H
  H24      1.0000 0.25025  0.17595  0.01221  Biso   1.000  H
  H25      1.0000 0.42241  0.30912  0.20135  Biso   1.000  H
  H26      1.0000 0.49783  0.38070  0.12599  Biso   1.000  H
  H27      1.0000 0.20489  0.30429  0.79101  Biso   1.000  H
  H28      1.0000 0.31236  0.32872  0.73853  Biso   1.000  H
  H29      1.0000 0.28510  0.22065  0.78187  Biso   1.000  H
  H30      1.0000 0.55126  0.31846  0.86485  Biso   1.000  H
  O5       1.0000 0.86060  0.55250  0.11880  Biso   1.000  O
  O6       1.0000 0.85230  0.52310  0.89040  Biso   1.000  O
  O7       1.0000 0.55250  0.86060  0.88120  Biso   1.000  O
  O8       1.0000 0.52310  0.85230  0.10960  Biso   1.000  O
  C19      1.0000 0.81490  0.54920  0.00430  Biso   1.000  C
  C20      1.0000 0.70490  0.57880  0.00380  Biso   1.000  C
  C21      1.0000 0.65580  0.51520  0.13510  Biso   1.000  C
  C22      1.0000 0.68870  0.69370  0.05210  Biso   1.000  C
  C23      1.0000 0.64810  0.56810  0.87770  Biso   1.000  C
  C24      1.0000 0.75720  0.75530  0.95620  Biso   1.000  C
  C25      1.0000 0.56470  0.64760  0.87590  Biso   1.000  C
  C26      1.0000 0.71080  0.72580  0.19870  Biso   1.000  C
  C27      1.0000 0.54920  0.81490  0.99570  Biso   1.000  C
  C28      1.0000 0.57880  0.70490  0.99620  Biso   1.000  C
  H31      1.0000 0.66473  0.44592  0.11911  Biso   1.000  H
  H32      1.0000 0.58615  0.52974  0.14197  Biso   1.000  H
  H33      1.0000 0.69140  0.57711  0.79875  Biso   1.000  H
  H34      1.0000 0.61864  0.50288  0.87413  Biso   1.000  H
  H35      1.0000 0.73770  0.74536  0.86202  Biso   1.000  H
  H36      1.0000 0.75121  0.82388  0.97922  Biso   1.000  H
  H37      1.0000 0.57047  0.68853  0.79429  Biso   1.000  H
  H38      1.0000 0.66970  0.68920  0.26135  Biso   1.000  H
  H39      1.0000 0.77951  0.71352  0.21909  Biso   1.000  H
  H40      1.0000 0.69712  0.79494  0.20813  Biso   1.000  H
  H41      1.0000 0.53657  0.67423  0.06647  Biso   1.000  H
  H42      1.0000 0.51313  0.58543  0.87511  Biso   1.000  H
  H43      1.0000 0.82375  0.73728  0.04195  Biso   1.000  H
  H44      1.0000 0.68903  0.57004  0.20560  Biso   1.000  H
  C29      1.0000 0.49755  0.91641  0.41943  Biso   1.000  C
  H45      1.0000 0.49561  0.85004  0.36582  Biso   1.000  H
  C30      1.0000 0.49755  0.91641  0.55446  Biso   1.000  C
  H46      1.0000 0.50439  0.14996  0.60805  Biso   1.000  H
  C31      1.0000 0.51520  0.65580  0.86490  Biso   1.000  C
  C32      1.0000 0.69370  0.68870  0.94790  Biso   1.000  C
  C33      1.0000 0.75530  0.75720  0.04380  Biso   1.000  C
  C34      1.0000 0.64760  0.56470  0.12410  Biso   1.000  C
  C35      1.0000 0.72580  0.71080  0.80130  Biso   1.000  C
  C36      1.0000 0.56810  0.64810  0.12230  Biso   1.000  C
  H47      1.0000 0.67378  0.53706  0.93353  Biso   1.000  H
  H48      1.0000 0.68847  0.53360  0.21924  Biso   1.000  H
  H49      1.0000 0.49978  0.61652  0.87729  Biso   1.000  H
  H50      1.0000 0.54737  0.67235  0.77964  Biso   1.000  H
  H51      1.0000 0.61587  0.50050  0.12261  Biso   1.000  H
  H52      1.0000 0.82487  0.73460  0.96831  Biso   1.000  H
  H53      1.0000 0.73031  0.75244  0.13626  Biso   1.000  H
  H54      1.0000 0.74975  0.82405  0.01221  Biso   1.000  H
  H55      1.0000 0.57759  0.69088  0.20135  Biso   1.000  H
  H56      1.0000 0.50217  0.61930  0.12599  Biso   1.000  H
  H57      1.0000 0.79511  0.69571  0.79101  Biso   1.000  H
  H58      1.0000 0.68764  0.67128  0.73853  Biso   1.000  H
  H59      1.0000 0.71490  0.77935  0.78187  Biso   1.000  H
  H60      1.0000 0.44874  0.68154  0.86485  Biso   1.000  H
  O9       1.0000 0.36060  0.94750  0.88120  Biso   1.000  O
  O10      1.0000 0.35230  0.97690  0.10960  Biso   1.000  O
  O11      1.0000 0.05250  0.63940  0.11880  Biso   1.000  O
  O12      1.0000 0.02310  0.64770  0.89040  Biso   1.000  O
  C37      1.0000 0.31490  0.95080  0.99570  Biso   1.000  C
  C38      1.0000 0.20490  0.92120  0.99620  Biso   1.000  C
  C39      1.0000 0.15580  0.98480  0.86490  Biso   1.000  C
  C40      1.0000 0.18870  0.80630  0.94790  Biso   1.000  C
  C41      1.0000 0.14810  0.93190  0.12230  Biso   1.000  C
  C42      1.0000 0.25720  0.74470  0.04380  Biso   1.000  C
  C43      1.0000 0.06470  0.85240  0.12410  Biso   1.000  C
  C44      1.0000 0.21080  0.77420  0.80130  Biso   1.000  C
  C45      1.0000 0.04920  0.68510  0.00430  Biso   1.000  C
  C46      1.0000 0.07880  0.79510  0.00380  Biso   1.000  C
  H61      1.0000 0.16473  0.05408  0.88089  Biso   1.000  H
  H62      1.0000 0.08615  0.97026  0.85803  Biso   1.000  H
  H63      1.0000 0.19140  0.92289  0.20125  Biso   1.000  H
  H64      1.0000 0.11864  0.99712  0.12587  Biso   1.000  H
  H65      1.0000 0.23770  0.75464  0.13798  Biso   1.000  H
  H66      1.0000 0.25121  0.67612  0.02078  Biso   1.000  H
  H67      1.0000 0.07047  0.81147  0.20571  Biso   1.000  H
  H68      1.0000 0.16970  0.81080  0.73865  Biso   1.000  H
  H69      1.0000 0.27951  0.78648  0.78091  Biso   1.000  H
  H70      1.0000 0.19712  0.70506  0.79187  Biso   1.000  H
  H71      1.0000 0.03657  0.82577  0.93353  Biso   1.000  H
  H72      1.0000 0.01313  0.91457  0.12489  Biso   1.000  H
  H73      1.0000 0.32375  0.76272  0.95805  Biso   1.000  H
  H74      1.0000 0.18903  0.92996  0.79440  Biso   1.000  H
  C47      1.0000 0.99755  0.58359  0.58057  Biso   1.000  C
  H75      1.0000 0.99561  0.64996  0.63418  Biso   1.000  H
  C48      1.0000 0.99755  0.58359  0.44554  Biso   1.000  C
  H76      1.0000 0.00439  0.35004  0.39195  Biso   1.000  H
  C49      1.0000 0.01520  0.84420  0.13510  Biso   1.000  C
  C50      1.0000 0.19370  0.81130  0.05210  Biso   1.000  C
  C51      1.0000 0.25530  0.74280  0.95620  Biso   1.000  C
  C52      1.0000 0.14760  0.93530  0.87590  Biso   1.000  C
  C53      1.0000 0.22580  0.78920  0.19870  Biso   1.000  C
  C54      1.0000 0.06810  0.85190  0.87770  Biso   1.000  C
  H77      1.0000 0.17378  0.96294  0.06647  Biso   1.000  H
  H78      1.0000 0.18847  0.96640  0.78076  Biso   1.000  H
  H79      1.0000 0.99978  0.88348  0.12271  Biso   1.000  H
  H80      1.0000 0.04737  0.82765  0.22036  Biso   1.000  H
  H81      1.0000 0.11587  0.99950  0.87739  Biso   1.000  H
  H82      1.0000 0.32487  0.76540  0.03169  Biso   1.000  H
  H83      1.0000 0.23031  0.74756  0.86374  Biso   1.000  H
  H84      1.0000 0.24975  0.67595  0.98779  Biso   1.000  H
  H85      1.0000 0.07759  0.80912  0.79865  Biso   1.000  H
  H86      1.0000 0.00217  0.88070  0.87401  Biso   1.000  H
  H87      1.0000 0.29511  0.80429  0.20899  Biso   1.000  H
  H88      1.0000 0.18764  0.82872  0.26147  Biso   1.000  H
  H89      1.0000 0.21490  0.72065  0.21813  Biso   1.000  H
  H90      1.0000 0.94874  0.81846  0.13515  Biso   1.000  H
  O13      1.0000 0.63940  0.05250  0.88120  Biso   1.000  O
  O14      1.0000 0.64770  0.02310  0.10960  Biso   1.000  O
  O15      1.0000 0.94750  0.36060  0.11880  Biso   1.000  O
  O16      1.0000 0.97690  0.35230  0.89040  Biso   1.000  O
  C55      1.0000 0.68510  0.04920  0.99570  Biso   1.000  C
  C56      1.0000 0.79510  0.07880  0.99620  Biso   1.000  C
  C57      1.0000 0.84420  0.01520  0.86490  Biso   1.000  C
  C58      1.0000 0.81130  0.19370  0.94790  Biso   1.000  C
  C59      1.0000 0.85190  0.06810  0.12230  Biso   1.000  C
  C60      1.0000 0.74280  0.25530  0.04380  Biso   1.000  C
  C61      1.0000 0.93530  0.14760  0.12410  Biso   1.000  C
  C62      1.0000 0.78920  0.22580  0.80130  Biso   1.000  C
  C63      1.0000 0.95080  0.31490  0.00430  Biso   1.000  C
  C64      1.0000 0.92120  0.20490  0.00380  Biso   1.000  C
  H91      1.0000 0.83527  0.94592  0.88089  Biso   1.000  H
  H92      1.0000 0.91385  0.02974  0.85803  Biso   1.000  H
  H93      1.0000 0.80860  0.07711  0.20125  Biso   1.000  H
  H94      1.0000 0.88136  0.00288  0.12587  Biso   1.000  H
  H95      1.0000 0.76230  0.24536  0.13798  Biso   1.000  H
  H96      1.0000 0.74879  0.32388  0.02078  Biso   1.000  H
  H97      1.0000 0.92953  0.18853  0.20571  Biso   1.000  H
  H98      1.0000 0.83030  0.18920  0.73865  Biso   1.000  H
  H99      1.0000 0.72049  0.21352  0.78091  Biso   1.000  H
  H100     1.0000 0.80288  0.29494  0.79187  Biso   1.000  H
  H101     1.0000 0.96343  0.17423  0.93353  Biso   1.000  H
  H102     1.0000 0.98687  0.08543  0.12489  Biso   1.000  H
  H103     1.0000 0.67625  0.23728  0.95805  Biso   1.000  H
  H104     1.0000 0.81097  0.07004  0.79440  Biso   1.000  H
  C65      1.0000 0.00245  0.41641  0.58057  Biso   1.000  C
  H105     1.0000 0.00439  0.35004  0.63418  Biso   1.000  H
  C66      1.0000 0.00245  0.41641  0.44554  Biso   1.000  C
  H106     1.0000 0.99561  0.64996  0.39195  Biso   1.000  H
  C67      1.0000 0.98480  0.15580  0.13510  Biso   1.000  C
  C68      1.0000 0.80630  0.18870  0.05210  Biso   1.000  C
  C69      1.0000 0.74470  0.25720  0.95620  Biso   1.000  C
  C70      1.0000 0.85240  0.06470  0.87590  Biso   1.000  C
  C71      1.0000 0.77420  0.21080  0.19870  Biso   1.000  C
  C72      1.0000 0.93190  0.14810  0.87770  Biso   1.000  C
  H107     1.0000 0.82622  0.03706  0.06647  Biso   1.000  H
  H108     1.0000 0.81153  0.03360  0.78076  Biso   1.000  H
  H109     1.0000 0.00022  0.11652  0.12271  Biso   1.000  H
  H110     1.0000 0.95263  0.17235  0.22036  Biso   1.000  H
  H111     1.0000 0.88413  0.00050  0.87739  Biso   1.000  H
  H112     1.0000 0.67513  0.23460  0.03169  Biso   1.000  H
  H113     1.0000 0.76969  0.25244  0.86374  Biso   1.000  H
  H114     1.0000 0.75025  0.32405  0.98779  Biso   1.000  H
  H115     1.0000 0.92241  0.19088  0.79865  Biso   1.000  H
  H116     1.0000 0.99783  0.11930  0.87401  Biso   1.000  H
  H117     1.0000 0.70489  0.19571  0.20899  Biso   1.000  H
  H118     1.0000 0.81236  0.17128  0.26147  Biso   1.000  H
  H119     1.0000 0.78510  0.27935  0.21813  Biso   1.000  H
  H120     1.0000 0.05126  0.18154  0.13515  Biso   1.000  H
  Zn1      1.0000 0.50000  0.00000  0.84593  Biso   1.000  Zn
  Zn2      1.0000 0.50000  0.00000  0.14538  Biso   1.000  Zn
  N1       1.0000 0.50000  0.00000  0.62197  Biso   1.000  N
  N2       1.0000 0.50000  0.00000  0.35191  Biso   1.000  N
  Zn3      1.0000 0.00000  0.50000  0.15407  Biso   1.000  Zn
  Zn4      1.0000 0.00000  0.50000  0.85462  Biso   1.000  Zn
  N3       1.0000 0.00000  0.50000  0.37803  Biso   1.000  N
  N4       1.0000 0.00000  0.50000  0.64809  Biso   1.000  N
