data_image0
_cell_length_a       21.3799
_cell_length_b       21.4597
_cell_length_c       27.944
_cell_angle_alpha    90
_cell_angle_beta     90
_cell_angle_gamma    90

_symmetry_space_group_name_H-M    "P 1"
_symmetry_int_tables_number       1

loop_
  _symmetry_equiv_pos_as_xyz
  'x, y, z'

loop_
  _atom_site_label
  _atom_site_occupancy
  _atom_site_fract_x
  _atom_site_fract_y
  _atom_site_fract_z
  _atom_site_thermal_displace_type
  _atom_site_B_iso_or_equiv
  _atom_site_type_symbol
  C1       1.0000 0.77457  0.22502  0.25067  Biso   1.000  C
  C2       1.0000 0.85811  0.17215  0.28851  Biso   1.000  C
  H1       1.0000 0.88410  0.16790  0.31500  Biso   1.000  H
  C3       1.0000 0.81400  0.21656  0.28946  Biso   1.000  C
  C4       1.0000 0.96070  0.03680  0.10110  Biso   1.000  C
  C5       1.0000 0.95930  0.03950  0.05200  Biso   1.000  C
  C6       1.0000 0.91591  0.08392  0.25049  Biso   1.000  C
  O1       1.0000 0.92671  0.05725  0.21112  Biso   1.000  O
  O2       1.0000 0.94273  0.07342  0.28860  Biso   1.000  O
  C7       1.0000 0.86675  0.13325  0.25105  Biso   1.000  C
  C8       1.0000 0.82870  0.14163  0.21149  Biso   1.000  C
  H2       1.0000 0.83420  0.11630  0.18480  Biso   1.000  H
  C9       1.0000 0.78370  0.18595  0.21077  Biso   1.000  C
  C10      1.0000 0.05220  0.01380  0.10160  Biso   1.000  C
  C11      1.0000 0.01240  0.05320  0.10070  Biso   1.000  C
  C12      1.0000 0.01490  0.05380  0.05210  Biso   1.000  C
  C13      1.0000 0.94620  0.98610  0.05200  Biso   1.000  C
  C14      1.0000 0.27457  0.72502  0.25067  Biso   1.000  C
  C15      1.0000 0.35811  0.67215  0.28851  Biso   1.000  C
  H3       1.0000 0.38410  0.66790  0.31500  Biso   1.000  H
  C16      1.0000 0.31400  0.71656  0.28946  Biso   1.000  C
  C17      1.0000 0.46070  0.53680  0.10110  Biso   1.000  C
  C18      1.0000 0.45930  0.53950  0.05200  Biso   1.000  C
  C19      1.0000 0.41591  0.58392  0.25049  Biso   1.000  C
  O3       1.0000 0.42671  0.55725  0.21112  Biso   1.000  O
  O4       1.0000 0.44273  0.57342  0.28860  Biso   1.000  O
  C20      1.0000 0.36675  0.63325  0.25105  Biso   1.000  C
  C21      1.0000 0.32870  0.64163  0.21149  Biso   1.000  C
  H4       1.0000 0.33420  0.61630  0.18480  Biso   1.000  H
  C22      1.0000 0.28370  0.68595  0.21077  Biso   1.000  C
  C23      1.0000 0.55220  0.51380  0.10160  Biso   1.000  C
  C24      1.0000 0.51240  0.55320  0.10070  Biso   1.000  C
  C25      1.0000 0.51490  0.55380  0.05210  Biso   1.000  C
  C26      1.0000 0.44620  0.48610  0.05200  Biso   1.000  C
  C27      1.0000 0.22543  0.77498  0.25067  Biso   1.000  C
  C28      1.0000 0.14189  0.82785  0.28851  Biso   1.000  C
  H5       1.0000 0.11590  0.83210  0.31500  Biso   1.000  H
  C29      1.0000 0.18600  0.78344  0.28946  Biso   1.000  C
  C30      1.0000 0.03930  0.96320  0.10110  Biso   1.000  C
  C31      1.0000 0.04070  0.96050  0.05200  Biso   1.000  C
  C32      1.0000 0.08409  0.91608  0.25049  Biso   1.000  C
  O5       1.0000 0.07329  0.94275  0.21112  Biso   1.000  O
  O6       1.0000 0.05727  0.92658  0.28860  Biso   1.000  O
  C33      1.0000 0.13325  0.86675  0.25105  Biso   1.000  C
  C34      1.0000 0.17130  0.85837  0.21149  Biso   1.000  C
  H6       1.0000 0.16580  0.88370  0.18480  Biso   1.000  H
  C35      1.0000 0.21630  0.81405  0.21077  Biso   1.000  C
  C36      1.0000 0.94780  0.98620  0.10160  Biso   1.000  C
  C37      1.0000 0.98760  0.94680  0.10070  Biso   1.000  C
  C38      1.0000 0.98510  0.94620  0.05210  Biso   1.000  C
  C39      1.0000 0.05380  0.01390  0.05200  Biso   1.000  C
  C40      1.0000 0.72543  0.27498  0.25067  Biso   1.000  C
  C41      1.0000 0.64189  0.32785  0.28851  Biso   1.000  C
  H7       1.0000 0.61590  0.33210  0.31500  Biso   1.000  H
  C42      1.0000 0.68600  0.28344  0.28946  Biso   1.000  C
  C43      1.0000 0.53930  0.46320  0.10110  Biso   1.000  C
  C44      1.0000 0.54070  0.46050  0.05200  Biso   1.000  C
  C45      1.0000 0.58409  0.41608  0.25049  Biso   1.000  C
  O7       1.0000 0.57329  0.44275  0.21112  Biso   1.000  O
  O8       1.0000 0.55727  0.42658  0.28860  Biso   1.000  O
  C46      1.0000 0.63325  0.36675  0.25105  Biso   1.000  C
  C47      1.0000 0.67130  0.35837  0.21149  Biso   1.000  C
  H8       1.0000 0.66580  0.38370  0.18480  Biso   1.000  H
  C48      1.0000 0.71630  0.31405  0.21077  Biso   1.000  C
  C49      1.0000 0.44780  0.48620  0.10160  Biso   1.000  C
  C50      1.0000 0.48760  0.44680  0.10070  Biso   1.000  C
  C51      1.0000 0.48510  0.44620  0.05210  Biso   1.000  C
  C52      1.0000 0.55380  0.51390  0.05200  Biso   1.000  C
  C53      1.0000 0.22543  0.22502  0.24933  Biso   1.000  C
  C54      1.0000 0.14189  0.17215  0.21149  Biso   1.000  C
  H9       1.0000 0.11590  0.16790  0.18500  Biso   1.000  H
  C55      1.0000 0.18600  0.21656  0.21054  Biso   1.000  C
  C56      1.0000 0.03930  0.03680  0.39890  Biso   1.000  C
  C57      1.0000 0.04070  0.03950  0.44800  Biso   1.000  C
  C58      1.0000 0.08409  0.08392  0.24951  Biso   1.000  C
  O9       1.0000 0.07329  0.05725  0.28888  Biso   1.000  O
  O10      1.0000 0.05727  0.07342  0.21140  Biso   1.000  O
  C59      1.0000 0.13325  0.13325  0.24895  Biso   1.000  C
  C60      1.0000 0.17130  0.14163  0.28851  Biso   1.000  C
  H10      1.0000 0.16580  0.11630  0.31520  Biso   1.000  H
  C61      1.0000 0.21630  0.18595  0.28923  Biso   1.000  C
  C62      1.0000 0.94780  0.01380  0.39840  Biso   1.000  C
  C63      1.0000 0.98760  0.05320  0.39930  Biso   1.000  C
  C64      1.0000 0.98510  0.05380  0.44790  Biso   1.000  C
  C65      1.0000 0.05380  0.98610  0.44800  Biso   1.000  C
  C66      1.0000 0.72543  0.72502  0.24933  Biso   1.000  C
  C67      1.0000 0.64189  0.67215  0.21149  Biso   1.000  C
  H11      1.0000 0.61590  0.66790  0.18500  Biso   1.000  H
  C68      1.0000 0.68600  0.71656  0.21054  Biso   1.000  C
  C69      1.0000 0.53930  0.53680  0.39890  Biso   1.000  C
  C70      1.0000 0.54070  0.53950  0.44800  Biso   1.000  C
  C71      1.0000 0.58409  0.58392  0.24951  Biso   1.000  C
  O11      1.0000 0.57329  0.55725  0.28888  Biso   1.000  O
  O12      1.0000 0.55727  0.57342  0.21140  Biso   1.000  O
  C72      1.0000 0.63325  0.63325  0.24895  Biso   1.000  C
  C73      1.0000 0.67130  0.64163  0.28851  Biso   1.000  C
  H12      1.0000 0.66580  0.61630  0.31520  Biso   1.000  H
  C74      1.0000 0.71630  0.68595  0.28923  Biso   1.000  C
  C75      1.0000 0.44780  0.51380  0.39840  Biso   1.000  C
  C76      1.0000 0.48760  0.55320  0.39930  Biso   1.000  C
  C77      1.0000 0.48510  0.55380  0.44790  Biso   1.000  C
  C78      1.0000 0.55380  0.48610  0.44800  Biso   1.000  C
  C79      1.0000 0.77457  0.77498  0.24933  Biso   1.000  C
  C80      1.0000 0.85811  0.82785  0.21149  Biso   1.000  C
  H13      1.0000 0.88410  0.83210  0.18500  Biso   1.000  H
  C81      1.0000 0.81400  0.78344  0.21054  Biso   1.000  C
  C82      1.0000 0.96070  0.96320  0.39890  Biso   1.000  C
  C83      1.0000 0.95930  0.96050  0.44800  Biso   1.000  C
  C84      1.0000 0.91591  0.91608  0.24951  Biso   1.000  C
  O13      1.0000 0.92671  0.94275  0.28888  Biso   1.000  O
  O14      1.0000 0.94273  0.92658  0.21140  Biso   1.000  O
  C85      1.0000 0.86675  0.86675  0.24895  Biso   1.000  C
  C86      1.0000 0.82870  0.85837  0.28851  Biso   1.000  C
  H14      1.0000 0.83420  0.88370  0.31520  Biso   1.000  H
  C87      1.0000 0.78370  0.81405  0.28923  Biso   1.000  C
  C88      1.0000 0.05220  0.98620  0.39840  Biso   1.000  C
  C89      1.0000 0.01240  0.94680  0.39930  Biso   1.000  C
  C90      1.0000 0.01490  0.94620  0.44790  Biso   1.000  C
  C91      1.0000 0.94620  0.01390  0.44800  Biso   1.000  C
  C92      1.0000 0.27457  0.27498  0.24933  Biso   1.000  C
  C93      1.0000 0.35811  0.32785  0.21149  Biso   1.000  C
  H15      1.0000 0.38410  0.33210  0.18500  Biso   1.000  H
  C94      1.0000 0.31400  0.28344  0.21054  Biso   1.000  C
  C95      1.0000 0.46070  0.46320  0.39890  Biso   1.000  C
  C96      1.0000 0.45930  0.46050  0.44800  Biso   1.000  C
  C97      1.0000 0.41591  0.41608  0.24951  Biso   1.000  C
  O15      1.0000 0.42671  0.44275  0.28888  Biso   1.000  O
  O16      1.0000 0.44273  0.42658  0.21140  Biso   1.000  O
  C98      1.0000 0.36675  0.36675  0.24895  Biso   1.000  C
  C99      1.0000 0.32870  0.35837  0.28851  Biso   1.000  C
  H16      1.0000 0.33420  0.38370  0.31520  Biso   1.000  H
  C100     1.0000 0.28370  0.31405  0.28923  Biso   1.000  C
  C101     1.0000 0.55220  0.48620  0.39840  Biso   1.000  C
  C102     1.0000 0.51240  0.44680  0.39930  Biso   1.000  C
  C103     1.0000 0.51490  0.44620  0.44790  Biso   1.000  C
  C104     1.0000 0.44620  0.51390  0.44800  Biso   1.000  C
  C105     1.0000 0.22543  0.77498  0.74933  Biso   1.000  C
  C106     1.0000 0.14189  0.82785  0.71149  Biso   1.000  C
  H17      1.0000 0.11590  0.83210  0.68500  Biso   1.000  H
  C107     1.0000 0.18600  0.78344  0.71054  Biso   1.000  C
  C108     1.0000 0.03930  0.96320  0.89890  Biso   1.000  C
  C109     1.0000 0.04070  0.96050  0.94800  Biso   1.000  C
  C110     1.0000 0.08409  0.91608  0.74951  Biso   1.000  C
  O17      1.0000 0.07329  0.94275  0.78888  Biso   1.000  O
  O18      1.0000 0.05727  0.92658  0.71140  Biso   1.000  O
  C111     1.0000 0.13325  0.86675  0.74895  Biso   1.000  C
  C112     1.0000 0.17130  0.85837  0.78851  Biso   1.000  C
  H18      1.0000 0.16580  0.88370  0.81520  Biso   1.000  H
  C113     1.0000 0.21630  0.81405  0.78923  Biso   1.000  C
  C114     1.0000 0.94780  0.98620  0.89840  Biso   1.000  C
  C115     1.0000 0.98760  0.94680  0.89930  Biso   1.000  C
  C116     1.0000 0.98510  0.94620  0.94790  Biso   1.000  C
  C117     1.0000 0.05380  0.01390  0.94800  Biso   1.000  C
  C118     1.0000 0.72543  0.27498  0.74933  Biso   1.000  C
  C119     1.0000 0.64189  0.32785  0.71149  Biso   1.000  C
  H19      1.0000 0.61590  0.33210  0.68500  Biso   1.000  H
  C120     1.0000 0.68600  0.28344  0.71054  Biso   1.000  C
  C121     1.0000 0.53930  0.46320  0.89890  Biso   1.000  C
  C122     1.0000 0.54070  0.46050  0.94800  Biso   1.000  C
  C123     1.0000 0.58409  0.41608  0.74951  Biso   1.000  C
  O19      1.0000 0.57329  0.44275  0.78888  Biso   1.000  O
  O20      1.0000 0.55727  0.42658  0.71140  Biso   1.000  O
  C124     1.0000 0.63325  0.36675  0.74895  Biso   1.000  C
  C125     1.0000 0.67130  0.35837  0.78851  Biso   1.000  C
  H20      1.0000 0.66580  0.38370  0.81520  Biso   1.000  H
  C126     1.0000 0.71630  0.31405  0.78923  Biso   1.000  C
  C127     1.0000 0.44780  0.48620  0.89840  Biso   1.000  C
  C128     1.0000 0.48760  0.44680  0.89930  Biso   1.000  C
  C129     1.0000 0.48510  0.44620  0.94790  Biso   1.000  C
  C130     1.0000 0.55380  0.51390  0.94800  Biso   1.000  C
  C131     1.0000 0.77457  0.22502  0.74933  Biso   1.000  C
  C132     1.0000 0.85811  0.17215  0.71149  Biso   1.000  C
  H21      1.0000 0.88410  0.16790  0.68500  Biso   1.000  H
  C133     1.0000 0.81400  0.21656  0.71054  Biso   1.000  C
  C134     1.0000 0.96070  0.03680  0.89890  Biso   1.000  C
  C135     1.0000 0.95930  0.03950  0.94800  Biso   1.000  C
  C136     1.0000 0.91591  0.08392  0.74951  Biso   1.000  C
  O21      1.0000 0.92671  0.05725  0.78888  Biso   1.000  O
  O22      1.0000 0.94273  0.07342  0.71140  Biso   1.000  O
  C137     1.0000 0.86675  0.13325  0.74895  Biso   1.000  C
  C138     1.0000 0.82870  0.14163  0.78851  Biso   1.000  C
  H22      1.0000 0.83420  0.11630  0.81520  Biso   1.000  H
  C139     1.0000 0.78370  0.18595  0.78923  Biso   1.000  C
  C140     1.0000 0.05220  0.01380  0.89840  Biso   1.000  C
  C141     1.0000 0.01240  0.05320  0.89930  Biso   1.000  C
  C142     1.0000 0.01490  0.05380  0.94790  Biso   1.000  C
  C143     1.0000 0.94620  0.98610  0.94800  Biso   1.000  C
  C144     1.0000 0.27457  0.72502  0.74933  Biso   1.000  C
  C145     1.0000 0.35811  0.67215  0.71149  Biso   1.000  C
  H23      1.0000 0.38410  0.66790  0.68500  Biso   1.000  H
  C146     1.0000 0.31400  0.71656  0.71054  Biso   1.000  C
  C147     1.0000 0.46070  0.53680  0.89890  Biso   1.000  C
  C148     1.0000 0.45930  0.53950  0.94800  Biso   1.000  C
  C149     1.0000 0.41591  0.58392  0.74951  Biso   1.000  C
  O23      1.0000 0.42671  0.55725  0.78888  Biso   1.000  O
  O24      1.0000 0.44273  0.57342  0.71140  Biso   1.000  O
  C150     1.0000 0.36675  0.63325  0.74895  Biso   1.000  C
  C151     1.0000 0.32870  0.64163  0.78851  Biso   1.000  C
  H24      1.0000 0.33420  0.61630  0.81520  Biso   1.000  H
  C152     1.0000 0.28370  0.68595  0.78923  Biso   1.000  C
  C153     1.0000 0.55220  0.51380  0.89840  Biso   1.000  C
  C154     1.0000 0.51240  0.55320  0.89930  Biso   1.000  C
  C155     1.0000 0.51490  0.55380  0.94790  Biso   1.000  C
  C156     1.0000 0.44620  0.48610  0.94800  Biso   1.000  C
  C157     1.0000 0.77457  0.77498  0.75067  Biso   1.000  C
  C158     1.0000 0.85811  0.82785  0.78851  Biso   1.000  C
  H25      1.0000 0.88410  0.83210  0.81500  Biso   1.000  H
  C159     1.0000 0.81400  0.78344  0.78946  Biso   1.000  C
  C160     1.0000 0.96070  0.96320  0.60110  Biso   1.000  C
  C161     1.0000 0.95930  0.96050  0.55200  Biso   1.000  C
  C162     1.0000 0.91591  0.91608  0.75049  Biso   1.000  C
  O25      1.0000 0.92671  0.94275  0.71112  Biso   1.000  O
  O26      1.0000 0.94273  0.92658  0.78860  Biso   1.000  O
  C163     1.0000 0.86675  0.86675  0.75105  Biso   1.000  C
  C164     1.0000 0.82870  0.85837  0.71149  Biso   1.000  C
  H26      1.0000 0.83420  0.88370  0.68480  Biso   1.000  H
  C165     1.0000 0.78370  0.81405  0.71077  Biso   1.000  C
  C166     1.0000 0.05220  0.98620  0.60160  Biso   1.000  C
  C167     1.0000 0.01240  0.94680  0.60070  Biso   1.000  C
  C168     1.0000 0.01490  0.94620  0.55210  Biso   1.000  C
  C169     1.0000 0.94620  0.01390  0.55200  Biso   1.000  C
  C170     1.0000 0.27457  0.27498  0.75067  Biso   1.000  C
  C171     1.0000 0.35811  0.32785  0.78851  Biso   1.000  C
  H27      1.0000 0.38410  0.33210  0.81500  Biso   1.000  H
  C172     1.0000 0.31400  0.28344  0.78946  Biso   1.000  C
  C173     1.0000 0.46070  0.46320  0.60110  Biso   1.000  C
  C174     1.0000 0.45930  0.46050  0.55200  Biso   1.000  C
  C175     1.0000 0.41591  0.41608  0.75049  Biso   1.000  C
  O27      1.0000 0.42671  0.44275  0.71112  Biso   1.000  O
  O28      1.0000 0.44273  0.42658  0.78860  Biso   1.000  O
  C176     1.0000 0.36675  0.36675  0.75105  Biso   1.000  C
  C177     1.0000 0.32870  0.35837  0.71149  Biso   1.000  C
  H28      1.0000 0.33420  0.38370  0.68480  Biso   1.000  H
  C178     1.0000 0.28370  0.31405  0.71077  Biso   1.000  C
  C179     1.0000 0.55220  0.48620  0.60160  Biso   1.000  C
  C180     1.0000 0.51240  0.44680  0.60070  Biso   1.000  C
  C181     1.0000 0.51490  0.44620  0.55210  Biso   1.000  C
  C182     1.0000 0.44620  0.51390  0.55200  Biso   1.000  C
  C183     1.0000 0.22543  0.22502  0.75067  Biso   1.000  C
  C184     1.0000 0.14189  0.17215  0.78851  Biso   1.000  C
  H29      1.0000 0.11590  0.16790  0.81500  Biso   1.000  H
  C185     1.0000 0.18600  0.21656  0.78946  Biso   1.000  C
  C186     1.0000 0.03930  0.03680  0.60110  Biso   1.000  C
  C187     1.0000 0.04070  0.03950  0.55200  Biso   1.000  C
  C188     1.0000 0.08409  0.08392  0.75049  Biso   1.000  C
  O29      1.0000 0.07329  0.05725  0.71112  Biso   1.000  O
  O30      1.0000 0.05727  0.07342  0.78860  Biso   1.000  O
  C189     1.0000 0.13325  0.13325  0.75105  Biso   1.000  C
  C190     1.0000 0.17130  0.14163  0.71149  Biso   1.000  C
  H30      1.0000 0.16580  0.11630  0.68480  Biso   1.000  H
  C191     1.0000 0.21630  0.18595  0.71077  Biso   1.000  C
  C192     1.0000 0.94780  0.01380  0.60160  Biso   1.000  C
  C193     1.0000 0.98760  0.05320  0.60070  Biso   1.000  C
  C194     1.0000 0.98510  0.05380  0.55210  Biso   1.000  C
  C195     1.0000 0.05380  0.98610  0.55200  Biso   1.000  C
  C196     1.0000 0.72543  0.72502  0.75067  Biso   1.000  C
  C197     1.0000 0.64189  0.67215  0.78851  Biso   1.000  C
  H31      1.0000 0.61590  0.66790  0.81500  Biso   1.000  H
  C198     1.0000 0.68600  0.71656  0.78946  Biso   1.000  C
  C199     1.0000 0.53930  0.53680  0.60110  Biso   1.000  C
  C200     1.0000 0.54070  0.53950  0.55200  Biso   1.000  C
  C201     1.0000 0.58409  0.58392  0.75049  Biso   1.000  C
  O31      1.0000 0.57329  0.55725  0.71112  Biso   1.000  O
  O32      1.0000 0.55727  0.57342  0.78860  Biso   1.000  O
  C202     1.0000 0.63325  0.63325  0.75105  Biso   1.000  C
  C203     1.0000 0.67130  0.64163  0.71149  Biso   1.000  C
  H32      1.0000 0.66580  0.61630  0.68480  Biso   1.000  H
  C204     1.0000 0.71630  0.68595  0.71077  Biso   1.000  C
  C205     1.0000 0.44780  0.51380  0.60160  Biso   1.000  C
  C206     1.0000 0.48760  0.55320  0.60070  Biso   1.000  C
  C207     1.0000 0.48510  0.55380  0.55210  Biso   1.000  C
  C208     1.0000 0.55380  0.48610  0.55200  Biso   1.000  C
  N1       1.0000 0.00000  0.00000  0.12550  Biso   1.000  N
  C209     1.0000 0.00000  0.00000  0.02646  Biso   1.000  C
  Zn1      1.0000 0.00000  0.00000  0.19825  Biso   1.000  Zn
  N2       1.0000 0.50000  0.50000  0.12550  Biso   1.000  N
  C210     1.0000 0.50000  0.50000  0.02646  Biso   1.000  C
  Zn2      1.0000 0.50000  0.50000  0.19825  Biso   1.000  Zn
  N3       1.0000 0.00000  0.00000  0.37450  Biso   1.000  N
  C211     1.0000 0.00000  0.00000  0.47354  Biso   1.000  C
  Zn3      1.0000 0.00000  0.00000  0.30175  Biso   1.000  Zn
  N4       1.0000 0.50000  0.50000  0.37450  Biso   1.000  N
  C212     1.0000 0.50000  0.50000  0.47354  Biso   1.000  C
  Zn4      1.0000 0.50000  0.50000  0.30175  Biso   1.000  Zn
  N5       1.0000 0.00000  0.00000  0.87450  Biso   1.000  N
  C213     1.0000 0.00000  0.00000  0.97354  Biso   1.000  C
  Zn5      1.0000 0.00000  0.00000  0.80175  Biso   1.000  Zn
  N6       1.0000 0.50000  0.50000  0.87450  Biso   1.000  N
  C214     1.0000 0.50000  0.50000  0.97354  Biso   1.000  C
  Zn6      1.0000 0.50000  0.50000  0.80175  Biso   1.000  Zn
  N7       1.0000 0.00000  0.00000  0.62550  Biso   1.000  N
  C215     1.0000 0.00000  0.00000  0.52646  Biso   1.000  C
  Zn7      1.0000 0.00000  0.00000  0.69825  Biso   1.000  Zn
  N8       1.0000 0.50000  0.50000  0.62550  Biso   1.000  N
  C216     1.0000 0.50000  0.50000  0.52646  Biso   1.000  C
  Zn8      1.0000 0.50000  0.50000  0.69825  Biso   1.000  Zn
