data_image0
_cell_length_a       13.758
_cell_length_b       25.2156
_cell_length_c       14.9205
_cell_angle_alpha    90
_cell_angle_beta     111.399
_cell_angle_gamma    90

_symmetry_space_group_name_H-M    "P 1"
_symmetry_int_tables_number       1

loop_
  _symmetry_equiv_pos_as_xyz
  'x, y, z'

loop_
  _atom_site_label
  _atom_site_occupancy
  _atom_site_fract_x
  _atom_site_fract_y
  _atom_site_fract_z
  _atom_site_thermal_displace_type
  _atom_site_B_iso_or_equiv
  _atom_site_type_symbol
  N1       1.0000 0.42140  0.01529  0.16930  Biso   1.000  N
  O1       1.0000 0.37610  0.07082  0.95920  Biso   1.000  O
  O2       1.0000 0.24260  0.08881  0.00200  Biso   1.000  O
  C1       1.0000 0.17610  0.31290  0.68360  Biso   1.000  C
  C2       1.0000 0.36010  0.16950  0.86930  Biso   1.000  C
  H1       1.0000 0.41340  0.14670  0.86980  Biso   1.000  H
  C3       1.0000 0.35030  0.21800  0.82420  Biso   1.000  C
  C4       1.0000 0.30590  0.10020  0.96090  Biso   1.000  C
  C5       1.0000 0.26040  0.30430  0.76680  Biso   1.000  C
  C6       1.0000 0.21560  0.18880  0.91210  Biso   1.000  C
  H2       1.0000 0.17010  0.17950  0.94270  Biso   1.000  H
  C7       1.0000 0.17420  0.35940  0.63010  Biso   1.000  C
  H3       1.0000 0.11810  0.36520  0.57280  Biso   1.000  H
  C8       1.0000 0.29340  0.15440  0.91320  Biso   1.000  C
  C9       1.0000 0.20440  0.23780  0.86510  Biso   1.000  C
  C10      1.0000 0.27260  0.25360  0.82040  Biso   1.000  C
  O3       1.0000 0.17780  0.44710  0.52090  Biso   1.000  O
  O4       1.0000 0.31680  0.47990  0.63060  Biso   1.000  O
  C11      1.0000 0.25220  0.39610  0.66020  Biso   1.000  C
  C12      1.0000 0.33870  0.34390  0.79560  Biso   1.000  C
  C13      1.0000 0.33440  0.38880  0.74330  Biso   1.000  C
  H4       1.0000 0.38730  0.41400  0.76450  Biso   1.000  H
  C14      1.0000 0.24780  0.44610  0.59860  Biso   1.000  C
  C15      1.0000 0.39880  0.98600  0.24960  Biso   1.000  C
  H5       1.0000 0.33650  0.00050  0.25630  Biso   1.000  H
  H6       1.0000 0.38660  0.94870  0.23330  Biso   1.000  H
  C16      1.0000 0.50970  0.99180  0.15680  Biso   1.000  C
  H7       1.0000 0.53040  0.01360  0.11310  Biso   1.000  H
  H8       1.0000 0.49040  0.95720  0.12750  Biso   1.000  H
  C17      1.0000 0.44840  0.07000  0.20700  Biso   1.000  C
  H9       1.0000 0.39340  0.08400  0.22650  Biso   1.000  H
  H10      1.0000 0.45430  0.09270  0.15680  Biso   1.000  H
  N2       1.0000 0.43440  0.34610  0.88570  Biso   1.000  N
  N3       1.0000 0.10900  0.26680  0.86990  Biso   1.000  N
  O5       1.0000 0.04090  0.24570  0.88690  Biso   1.000  O
  O6       1.0000 0.10810  0.31340  0.85400  Biso   1.000  O
  O7       1.0000 0.43570  0.31490  0.94800  Biso   1.000  O
  O8       1.0000 0.51150  0.37560  0.89670  Biso   1.000  O
  Zn1      1.0000 0.29612  0.01403  0.03865  Biso   1.000  Zn
  C18      1.0000 0.46050  0.95920  0.20130  Biso   1.000  C
  H11      1.0000 0.40230  0.93700  0.19960  Biso   1.000  H
  H12      1.0000 0.49020  0.94440  0.15700  Biso   1.000  H
  C19      1.0000 0.51610  0.04420  0.16250  Biso   1.000  C
  H13      1.0000 0.49860  0.08100  0.14570  Biso   1.000  H
  H14      1.0000 0.53590  0.02810  0.11260  Biso   1.000  H
  C20      1.0000 0.39180  0.04080  0.23980  Biso   1.000  C
  H15      1.0000 0.33480  0.02140  0.24810  Biso   1.000  H
  H16      1.0000 0.36720  0.07630  0.21810  Biso   1.000  H
  N4       1.0000 0.93430  0.28360  0.85390  Biso   1.000  N
  N5       1.0000 0.43400  0.21780  0.77710  Biso   1.000  N
  O9       1.0000 0.46820  0.26080  0.76360  Biso   1.000  O
  O10      1.0000 0.93430  0.23670  0.83610  Biso   1.000  O
  O11      1.0000 0.02070  0.30570  0.90120  Biso   1.000  O
  N6       1.0000 0.92140  0.51529  0.16930  Biso   1.000  N
  O12      1.0000 0.87610  0.57082  0.95920  Biso   1.000  O
  O13      1.0000 0.74260  0.58881  0.00200  Biso   1.000  O
  C21      1.0000 0.67610  0.81290  0.68360  Biso   1.000  C
  C22      1.0000 0.86010  0.66950  0.86930  Biso   1.000  C
  H17      1.0000 0.91340  0.64670  0.86980  Biso   1.000  H
  C23      1.0000 0.85030  0.71800  0.82420  Biso   1.000  C
  C24      1.0000 0.80590  0.60020  0.96090  Biso   1.000  C
  C25      1.0000 0.76040  0.80430  0.76680  Biso   1.000  C
  C26      1.0000 0.71560  0.68880  0.91210  Biso   1.000  C
  H18      1.0000 0.67010  0.67950  0.94270  Biso   1.000  H
  C27      1.0000 0.67420  0.85940  0.63010  Biso   1.000  C
  H19      1.0000 0.61810  0.86520  0.57280  Biso   1.000  H
  C28      1.0000 0.79340  0.65440  0.91320  Biso   1.000  C
  C29      1.0000 0.70440  0.73780  0.86510  Biso   1.000  C
  C30      1.0000 0.77260  0.75360  0.82040  Biso   1.000  C
  O14      1.0000 0.67780  0.94710  0.52090  Biso   1.000  O
  O15      1.0000 0.81680  0.97990  0.63060  Biso   1.000  O
  C31      1.0000 0.75220  0.89610  0.66020  Biso   1.000  C
  C32      1.0000 0.83870  0.84390  0.79560  Biso   1.000  C
  C33      1.0000 0.83440  0.88880  0.74330  Biso   1.000  C
  H20      1.0000 0.88730  0.91400  0.76450  Biso   1.000  H
  C34      1.0000 0.74780  0.94610  0.59860  Biso   1.000  C
  C35      1.0000 0.89880  0.48600  0.24960  Biso   1.000  C
  H21      1.0000 0.83650  0.50050  0.25630  Biso   1.000  H
  H22      1.0000 0.88660  0.44870  0.23330  Biso   1.000  H
  C36      1.0000 0.00970  0.49180  0.15680  Biso   1.000  C
  H23      1.0000 0.03040  0.51360  0.11310  Biso   1.000  H
  H24      1.0000 0.99040  0.45720  0.12750  Biso   1.000  H
  C37      1.0000 0.94840  0.57000  0.20700  Biso   1.000  C
  H25      1.0000 0.89340  0.58400  0.22650  Biso   1.000  H
  H26      1.0000 0.95430  0.59270  0.15680  Biso   1.000  H
  N7       1.0000 0.93440  0.84610  0.88570  Biso   1.000  N
  N8       1.0000 0.60900  0.76680  0.86990  Biso   1.000  N
  O16      1.0000 0.54090  0.74570  0.88690  Biso   1.000  O
  O17      1.0000 0.60810  0.81340  0.85400  Biso   1.000  O
  O18      1.0000 0.93570  0.81490  0.94800  Biso   1.000  O
  O19      1.0000 0.01150  0.87560  0.89670  Biso   1.000  O
  Zn2      1.0000 0.79612  0.51403  0.03865  Biso   1.000  Zn
  C38      1.0000 0.96050  0.45920  0.20130  Biso   1.000  C
  H27      1.0000 0.90230  0.43700  0.19960  Biso   1.000  H
  H28      1.0000 0.99020  0.44440  0.15700  Biso   1.000  H
  C39      1.0000 0.01610  0.54420  0.16250  Biso   1.000  C
  H29      1.0000 0.99860  0.58100  0.14570  Biso   1.000  H
  H30      1.0000 0.03590  0.52810  0.11260  Biso   1.000  H
  C40      1.0000 0.89180  0.54080  0.23980  Biso   1.000  C
  H31      1.0000 0.83480  0.52140  0.24810  Biso   1.000  H
  H32      1.0000 0.86720  0.57630  0.21810  Biso   1.000  H
  N9       1.0000 0.43430  0.78360  0.85390  Biso   1.000  N
  N10      1.0000 0.93400  0.71780  0.77710  Biso   1.000  N
  O20      1.0000 0.96820  0.76080  0.76360  Biso   1.000  O
  O21      1.0000 0.43430  0.73670  0.83610  Biso   1.000  O
  O22      1.0000 0.52070  0.80570  0.90120  Biso   1.000  O
  N11      1.0000 0.57860  0.01529  0.33070  Biso   1.000  N
  O23      1.0000 0.62390  0.07082  0.54080  Biso   1.000  O
  O24      1.0000 0.75740  0.08881  0.49800  Biso   1.000  O
  C41      1.0000 0.82390  0.31290  0.81640  Biso   1.000  C
  C42      1.0000 0.63990  0.16950  0.63070  Biso   1.000  C
  H33      1.0000 0.58660  0.14670  0.63020  Biso   1.000  H
  C43      1.0000 0.64970  0.21800  0.67580  Biso   1.000  C
  C44      1.0000 0.69410  0.10020  0.53910  Biso   1.000  C
  C45      1.0000 0.73960  0.30430  0.73320  Biso   1.000  C
  C46      1.0000 0.78440  0.18880  0.58790  Biso   1.000  C
  H34      1.0000 0.82990  0.17950  0.55730  Biso   1.000  H
  C47      1.0000 0.82580  0.35940  0.86990  Biso   1.000  C
  H35      1.0000 0.88190  0.36520  0.92720  Biso   1.000  H
  C48      1.0000 0.70660  0.15440  0.58680  Biso   1.000  C
  C49      1.0000 0.79560  0.23780  0.63490  Biso   1.000  C
  C50      1.0000 0.72740  0.25360  0.67960  Biso   1.000  C
  O25      1.0000 0.82220  0.44710  0.97910  Biso   1.000  O
  O26      1.0000 0.68320  0.47990  0.86940  Biso   1.000  O
  C51      1.0000 0.74780  0.39610  0.83980  Biso   1.000  C
  C52      1.0000 0.66130  0.34390  0.70440  Biso   1.000  C
  C53      1.0000 0.66560  0.38880  0.75670  Biso   1.000  C
  H36      1.0000 0.61270  0.41400  0.73550  Biso   1.000  H
  C54      1.0000 0.75220  0.44610  0.90140  Biso   1.000  C
  C55      1.0000 0.60120  0.98600  0.25040  Biso   1.000  C
  H37      1.0000 0.66350  0.00050  0.24370  Biso   1.000  H
  H38      1.0000 0.61340  0.94870  0.26670  Biso   1.000  H
  C56      1.0000 0.49030  0.99180  0.34320  Biso   1.000  C
  H39      1.0000 0.46960  0.01360  0.38690  Biso   1.000  H
  H40      1.0000 0.50960  0.95720  0.37250  Biso   1.000  H
  C57      1.0000 0.55160  0.07000  0.29300  Biso   1.000  C
  H41      1.0000 0.60660  0.08400  0.27350  Biso   1.000  H
  H42      1.0000 0.54570  0.09270  0.34320  Biso   1.000  H
  N12      1.0000 0.56560  0.34610  0.61430  Biso   1.000  N
  N13      1.0000 0.89100  0.26680  0.63010  Biso   1.000  N
  O27      1.0000 0.95910  0.24570  0.61310  Biso   1.000  O
  O28      1.0000 0.89190  0.31340  0.64600  Biso   1.000  O
  O29      1.0000 0.56430  0.31490  0.55200  Biso   1.000  O
  O30      1.0000 0.48850  0.37560  0.60330  Biso   1.000  O
  Zn3      1.0000 0.70388  0.01403  0.46135  Biso   1.000  Zn
  C58      1.0000 0.53950  0.95920  0.29870  Biso   1.000  C
  H43      1.0000 0.59770  0.93700  0.30040  Biso   1.000  H
  H44      1.0000 0.50980  0.94440  0.34300  Biso   1.000  H
  C59      1.0000 0.48390  0.04420  0.33750  Biso   1.000  C
  H45      1.0000 0.50140  0.08100  0.35430  Biso   1.000  H
  H46      1.0000 0.46410  0.02810  0.38740  Biso   1.000  H
  C60      1.0000 0.60820  0.04080  0.26020  Biso   1.000  C
  H47      1.0000 0.66520  0.02140  0.25190  Biso   1.000  H
  H48      1.0000 0.63280  0.07630  0.28190  Biso   1.000  H
  N14      1.0000 0.06570  0.28360  0.64610  Biso   1.000  N
  N15      1.0000 0.56600  0.21780  0.72290  Biso   1.000  N
  O31      1.0000 0.53180  0.26080  0.73640  Biso   1.000  O
  O32      1.0000 0.06570  0.23670  0.66390  Biso   1.000  O
  O33      1.0000 0.97930  0.30570  0.59880  Biso   1.000  O
  N16      1.0000 0.07860  0.51529  0.33070  Biso   1.000  N
  O34      1.0000 0.12390  0.57082  0.54080  Biso   1.000  O
  O35      1.0000 0.25740  0.58881  0.49800  Biso   1.000  O
  C61      1.0000 0.32390  0.81290  0.81640  Biso   1.000  C
  C62      1.0000 0.13990  0.66950  0.63070  Biso   1.000  C
  H49      1.0000 0.08660  0.64670  0.63020  Biso   1.000  H
  C63      1.0000 0.14970  0.71800  0.67580  Biso   1.000  C
  C64      1.0000 0.19410  0.60020  0.53910  Biso   1.000  C
  C65      1.0000 0.23960  0.80430  0.73320  Biso   1.000  C
  C66      1.0000 0.28440  0.68880  0.58790  Biso   1.000  C
  H50      1.0000 0.32990  0.67950  0.55730  Biso   1.000  H
  C67      1.0000 0.32580  0.85940  0.86990  Biso   1.000  C
  H51      1.0000 0.38190  0.86520  0.92720  Biso   1.000  H
  C68      1.0000 0.20660  0.65440  0.58680  Biso   1.000  C
  C69      1.0000 0.29560  0.73780  0.63490  Biso   1.000  C
  C70      1.0000 0.22740  0.75360  0.67960  Biso   1.000  C
  O36      1.0000 0.32220  0.94710  0.97910  Biso   1.000  O
  O37      1.0000 0.18320  0.97990  0.86940  Biso   1.000  O
  C71      1.0000 0.24780  0.89610  0.83980  Biso   1.000  C
  C72      1.0000 0.16130  0.84390  0.70440  Biso   1.000  C
  C73      1.0000 0.16560  0.88880  0.75670  Biso   1.000  C
  H52      1.0000 0.11270  0.91400  0.73550  Biso   1.000  H
  C74      1.0000 0.25220  0.94610  0.90140  Biso   1.000  C
  C75      1.0000 0.10120  0.48600  0.25040  Biso   1.000  C
  H53      1.0000 0.16350  0.50050  0.24370  Biso   1.000  H
  H54      1.0000 0.11340  0.44870  0.26670  Biso   1.000  H
  C76      1.0000 0.99030  0.49180  0.34320  Biso   1.000  C
  H55      1.0000 0.96960  0.51360  0.38690  Biso   1.000  H
  H56      1.0000 0.00960  0.45720  0.37250  Biso   1.000  H
  C77      1.0000 0.05160  0.57000  0.29300  Biso   1.000  C
  H57      1.0000 0.10660  0.58400  0.27350  Biso   1.000  H
  H58      1.0000 0.04570  0.59270  0.34320  Biso   1.000  H
  N17      1.0000 0.06560  0.84610  0.61430  Biso   1.000  N
  N18      1.0000 0.39100  0.76680  0.63010  Biso   1.000  N
  O38      1.0000 0.45910  0.74570  0.61310  Biso   1.000  O
  O39      1.0000 0.39190  0.81340  0.64600  Biso   1.000  O
  O40      1.0000 0.06430  0.81490  0.55200  Biso   1.000  O
  O41      1.0000 0.98850  0.87560  0.60330  Biso   1.000  O
  Zn4      1.0000 0.20388  0.51403  0.46135  Biso   1.000  Zn
  C78      1.0000 0.03950  0.45920  0.29870  Biso   1.000  C
  H59      1.0000 0.09770  0.43700  0.30040  Biso   1.000  H
  H60      1.0000 0.00980  0.44440  0.34300  Biso   1.000  H
  C79      1.0000 0.98390  0.54420  0.33750  Biso   1.000  C
  H61      1.0000 0.00140  0.58100  0.35430  Biso   1.000  H
  H62      1.0000 0.96410  0.52810  0.38740  Biso   1.000  H
  C80      1.0000 0.10820  0.54080  0.26020  Biso   1.000  C
  H63      1.0000 0.16520  0.52140  0.25190  Biso   1.000  H
  H64      1.0000 0.13280  0.57630  0.28190  Biso   1.000  H
  N19      1.0000 0.56570  0.78360  0.64610  Biso   1.000  N
  N20      1.0000 0.06600  0.71780  0.72290  Biso   1.000  N
  O42      1.0000 0.03180  0.76080  0.73640  Biso   1.000  O
  O43      1.0000 0.56570  0.73670  0.66390  Biso   1.000  O
  O44      1.0000 0.47930  0.80570  0.59880  Biso   1.000  O
  O45      1.0000 0.50000  0.17370  0.75000  Biso   1.000  O
  O46      1.0000 0.00000  0.67370  0.75000  Biso   1.000  O
  N21      1.0000 0.57860  0.98471  0.83070  Biso   1.000  N
  O47      1.0000 0.62390  0.92918  0.04080  Biso   1.000  O
  O48      1.0000 0.75740  0.91119  0.99800  Biso   1.000  O
  C81      1.0000 0.82390  0.68710  0.31640  Biso   1.000  C
  C82      1.0000 0.63990  0.83050  0.13070  Biso   1.000  C
  H65      1.0000 0.58660  0.85330  0.13020  Biso   1.000  H
  C83      1.0000 0.64970  0.78200  0.17580  Biso   1.000  C
  C84      1.0000 0.69410  0.89980  0.03910  Biso   1.000  C
  C85      1.0000 0.73960  0.69570  0.23320  Biso   1.000  C
  C86      1.0000 0.78440  0.81120  0.08790  Biso   1.000  C
  H66      1.0000 0.82990  0.82050  0.05730  Biso   1.000  H
  C87      1.0000 0.82580  0.64060  0.36990  Biso   1.000  C
  H67      1.0000 0.88190  0.63480  0.42720  Biso   1.000  H
  C88      1.0000 0.70660  0.84560  0.08680  Biso   1.000  C
  C89      1.0000 0.79560  0.76220  0.13490  Biso   1.000  C
  C90      1.0000 0.72740  0.74640  0.17960  Biso   1.000  C
  O49      1.0000 0.82220  0.55290  0.47910  Biso   1.000  O
  O50      1.0000 0.68320  0.52010  0.36940  Biso   1.000  O
  C91      1.0000 0.74780  0.60390  0.33980  Biso   1.000  C
  C92      1.0000 0.66130  0.65610  0.20440  Biso   1.000  C
  C93      1.0000 0.66560  0.61120  0.25670  Biso   1.000  C
  H68      1.0000 0.61270  0.58600  0.23550  Biso   1.000  H
  C94      1.0000 0.75220  0.55390  0.40140  Biso   1.000  C
  C95      1.0000 0.60120  0.01400  0.75040  Biso   1.000  C
  H69      1.0000 0.66350  0.99950  0.74370  Biso   1.000  H
  H70      1.0000 0.61340  0.05130  0.76670  Biso   1.000  H
  C96      1.0000 0.49030  0.00820  0.84320  Biso   1.000  C
  H71      1.0000 0.46960  0.98640  0.88690  Biso   1.000  H
  H72      1.0000 0.50960  0.04280  0.87250  Biso   1.000  H
  C97      1.0000 0.55160  0.93000  0.79300  Biso   1.000  C
  H73      1.0000 0.60660  0.91600  0.77350  Biso   1.000  H
  H74      1.0000 0.54570  0.90730  0.84320  Biso   1.000  H
  N22      1.0000 0.56560  0.65390  0.11430  Biso   1.000  N
  N23      1.0000 0.89100  0.73320  0.13010  Biso   1.000  N
  O51      1.0000 0.95910  0.75430  0.11310  Biso   1.000  O
  O52      1.0000 0.89190  0.68660  0.14600  Biso   1.000  O
  O53      1.0000 0.56430  0.68510  0.05200  Biso   1.000  O
  O54      1.0000 0.48850  0.62440  0.10330  Biso   1.000  O
  Zn5      1.0000 0.70388  0.98597  0.96135  Biso   1.000  Zn
  C98      1.0000 0.53950  0.04080  0.79870  Biso   1.000  C
  H75      1.0000 0.59770  0.06300  0.80040  Biso   1.000  H
  H76      1.0000 0.50980  0.05560  0.84300  Biso   1.000  H
  C99      1.0000 0.48390  0.95580  0.83750  Biso   1.000  C
  H77      1.0000 0.50140  0.91900  0.85430  Biso   1.000  H
  H78      1.0000 0.46410  0.97190  0.88740  Biso   1.000  H
  C100     1.0000 0.60820  0.95920  0.76020  Biso   1.000  C
  H79      1.0000 0.66520  0.97860  0.75190  Biso   1.000  H
  H80      1.0000 0.63280  0.92370  0.78190  Biso   1.000  H
  N24      1.0000 0.06570  0.71640  0.14610  Biso   1.000  N
  N25      1.0000 0.56600  0.78220  0.22290  Biso   1.000  N
  O55      1.0000 0.53180  0.73920  0.23640  Biso   1.000  O
  O56      1.0000 0.06570  0.76330  0.16390  Biso   1.000  O
  O57      1.0000 0.97930  0.69430  0.09880  Biso   1.000  O
  N26      1.0000 0.07860  0.48471  0.83070  Biso   1.000  N
  O58      1.0000 0.12390  0.42918  0.04080  Biso   1.000  O
  O59      1.0000 0.25740  0.41119  0.99800  Biso   1.000  O
  C101     1.0000 0.32390  0.18710  0.31640  Biso   1.000  C
  C102     1.0000 0.13990  0.33050  0.13070  Biso   1.000  C
  H81      1.0000 0.08660  0.35330  0.13020  Biso   1.000  H
  C103     1.0000 0.14970  0.28200  0.17580  Biso   1.000  C
  C104     1.0000 0.19410  0.39980  0.03910  Biso   1.000  C
  C105     1.0000 0.23960  0.19570  0.23320  Biso   1.000  C
  C106     1.0000 0.28440  0.31120  0.08790  Biso   1.000  C
  H82      1.0000 0.32990  0.32050  0.05730  Biso   1.000  H
  C107     1.0000 0.32580  0.14060  0.36990  Biso   1.000  C
  H83      1.0000 0.38190  0.13480  0.42720  Biso   1.000  H
  C108     1.0000 0.20660  0.34560  0.08680  Biso   1.000  C
  C109     1.0000 0.29560  0.26220  0.13490  Biso   1.000  C
  C110     1.0000 0.22740  0.24640  0.17960  Biso   1.000  C
  O60      1.0000 0.32220  0.05290  0.47910  Biso   1.000  O
  O61      1.0000 0.18320  0.02010  0.36940  Biso   1.000  O
  C111     1.0000 0.24780  0.10390  0.33980  Biso   1.000  C
  C112     1.0000 0.16130  0.15610  0.20440  Biso   1.000  C
  C113     1.0000 0.16560  0.11120  0.25670  Biso   1.000  C
  H84      1.0000 0.11270  0.08600  0.23550  Biso   1.000  H
  C114     1.0000 0.25220  0.05390  0.40140  Biso   1.000  C
  C115     1.0000 0.10120  0.51400  0.75040  Biso   1.000  C
  H85      1.0000 0.16350  0.49950  0.74370  Biso   1.000  H
  H86      1.0000 0.11340  0.55130  0.76670  Biso   1.000  H
  C116     1.0000 0.99030  0.50820  0.84320  Biso   1.000  C
  H87      1.0000 0.96960  0.48640  0.88690  Biso   1.000  H
  H88      1.0000 0.00960  0.54280  0.87250  Biso   1.000  H
  C117     1.0000 0.05160  0.43000  0.79300  Biso   1.000  C
  H89      1.0000 0.10660  0.41600  0.77350  Biso   1.000  H
  H90      1.0000 0.04570  0.40730  0.84320  Biso   1.000  H
  N27      1.0000 0.06560  0.15390  0.11430  Biso   1.000  N
  N28      1.0000 0.39100  0.23320  0.13010  Biso   1.000  N
  O62      1.0000 0.45910  0.25430  0.11310  Biso   1.000  O
  O63      1.0000 0.39190  0.18660  0.14600  Biso   1.000  O
  O64      1.0000 0.06430  0.18510  0.05200  Biso   1.000  O
  O65      1.0000 0.98850  0.12440  0.10330  Biso   1.000  O
  Zn6      1.0000 0.20388  0.48597  0.96135  Biso   1.000  Zn
  C118     1.0000 0.03950  0.54080  0.79870  Biso   1.000  C
  H91      1.0000 0.09770  0.56300  0.80040  Biso   1.000  H
  H92      1.0000 0.00980  0.55560  0.84300  Biso   1.000  H
  C119     1.0000 0.98390  0.45580  0.83750  Biso   1.000  C
  H93      1.0000 0.00140  0.41900  0.85430  Biso   1.000  H
  H94      1.0000 0.96410  0.47190  0.88740  Biso   1.000  H
  C120     1.0000 0.10820  0.45920  0.76020  Biso   1.000  C
  H95      1.0000 0.16520  0.47860  0.75190  Biso   1.000  H
  H96      1.0000 0.13280  0.42370  0.78190  Biso   1.000  H
  N29      1.0000 0.56570  0.21640  0.14610  Biso   1.000  N
  N30      1.0000 0.06600  0.28220  0.22290  Biso   1.000  N
  O66      1.0000 0.03180  0.23920  0.23640  Biso   1.000  O
  O67      1.0000 0.56570  0.26330  0.16390  Biso   1.000  O
  O68      1.0000 0.47930  0.19430  0.09880  Biso   1.000  O
  N31      1.0000 0.42140  0.98471  0.66930  Biso   1.000  N
  O69      1.0000 0.37610  0.92918  0.45920  Biso   1.000  O
  O70      1.0000 0.24260  0.91119  0.50200  Biso   1.000  O
  C121     1.0000 0.17610  0.68710  0.18360  Biso   1.000  C
  C122     1.0000 0.36010  0.83050  0.36930  Biso   1.000  C
  H97      1.0000 0.41340  0.85330  0.36980  Biso   1.000  H
  C123     1.0000 0.35030  0.78200  0.32420  Biso   1.000  C
  C124     1.0000 0.30590  0.89980  0.46090  Biso   1.000  C
  C125     1.0000 0.26040  0.69570  0.26680  Biso   1.000  C
  C126     1.0000 0.21560  0.81120  0.41210  Biso   1.000  C
  H98      1.0000 0.17010  0.82050  0.44270  Biso   1.000  H
  C127     1.0000 0.17420  0.64060  0.13010  Biso   1.000  C
  H99      1.0000 0.11810  0.63480  0.07280  Biso   1.000  H
  C128     1.0000 0.29340  0.84560  0.41320  Biso   1.000  C
  C129     1.0000 0.20440  0.76220  0.36510  Biso   1.000  C
  C130     1.0000 0.27260  0.74640  0.32040  Biso   1.000  C
  O71      1.0000 0.17780  0.55290  0.02090  Biso   1.000  O
  O72      1.0000 0.31680  0.52010  0.13060  Biso   1.000  O
  C131     1.0000 0.25220  0.60390  0.16020  Biso   1.000  C
  C132     1.0000 0.33870  0.65610  0.29560  Biso   1.000  C
  C133     1.0000 0.33440  0.61120  0.24330  Biso   1.000  C
  H100     1.0000 0.38730  0.58600  0.26450  Biso   1.000  H
  C134     1.0000 0.24780  0.55390  0.09860  Biso   1.000  C
  C135     1.0000 0.39880  0.01400  0.74960  Biso   1.000  C
  H101     1.0000 0.33650  0.99950  0.75630  Biso   1.000  H
  H102     1.0000 0.38660  0.05130  0.73330  Biso   1.000  H
  C136     1.0000 0.50970  0.00820  0.65680  Biso   1.000  C
  H103     1.0000 0.53040  0.98640  0.61310  Biso   1.000  H
  H104     1.0000 0.49040  0.04280  0.62750  Biso   1.000  H
  C137     1.0000 0.44840  0.93000  0.70700  Biso   1.000  C
  H105     1.0000 0.39340  0.91600  0.72650  Biso   1.000  H
  H106     1.0000 0.45430  0.90730  0.65680  Biso   1.000  H
  N32      1.0000 0.43440  0.65390  0.38570  Biso   1.000  N
  N33      1.0000 0.10900  0.73320  0.36990  Biso   1.000  N
  O73      1.0000 0.04090  0.75430  0.38690  Biso   1.000  O
  O74      1.0000 0.10810  0.68660  0.35400  Biso   1.000  O
  O75      1.0000 0.43570  0.68510  0.44800  Biso   1.000  O
  O76      1.0000 0.51150  0.62440  0.39670  Biso   1.000  O
  Zn7      1.0000 0.29612  0.98597  0.53865  Biso   1.000  Zn
  C138     1.0000 0.46050  0.04080  0.70130  Biso   1.000  C
  H107     1.0000 0.40230  0.06300  0.69960  Biso   1.000  H
  H108     1.0000 0.49020  0.05560  0.65700  Biso   1.000  H
  C139     1.0000 0.51610  0.95580  0.66250  Biso   1.000  C
  H109     1.0000 0.49860  0.91900  0.64570  Biso   1.000  H
  H110     1.0000 0.53590  0.97190  0.61260  Biso   1.000  H
  C140     1.0000 0.39180  0.95920  0.73980  Biso   1.000  C
  H111     1.0000 0.33480  0.97860  0.74810  Biso   1.000  H
  H112     1.0000 0.36720  0.92370  0.71810  Biso   1.000  H
  N34      1.0000 0.93430  0.71640  0.35390  Biso   1.000  N
  N35      1.0000 0.43400  0.78220  0.27710  Biso   1.000  N
  O77      1.0000 0.46820  0.73920  0.26360  Biso   1.000  O
  O78      1.0000 0.93430  0.76330  0.33610  Biso   1.000  O
  O79      1.0000 0.02070  0.69430  0.40120  Biso   1.000  O
  N36      1.0000 0.92140  0.48471  0.66930  Biso   1.000  N
  O80      1.0000 0.87610  0.42918  0.45920  Biso   1.000  O
  O81      1.0000 0.74260  0.41119  0.50200  Biso   1.000  O
  C141     1.0000 0.67610  0.18710  0.18360  Biso   1.000  C
  C142     1.0000 0.86010  0.33050  0.36930  Biso   1.000  C
  H113     1.0000 0.91340  0.35330  0.36980  Biso   1.000  H
  C143     1.0000 0.85030  0.28200  0.32420  Biso   1.000  C
  C144     1.0000 0.80590  0.39980  0.46090  Biso   1.000  C
  C145     1.0000 0.76040  0.19570  0.26680  Biso   1.000  C
  C146     1.0000 0.71560  0.31120  0.41210  Biso   1.000  C
  H114     1.0000 0.67010  0.32050  0.44270  Biso   1.000  H
  C147     1.0000 0.67420  0.14060  0.13010  Biso   1.000  C
  H115     1.0000 0.61810  0.13480  0.07280  Biso   1.000  H
  C148     1.0000 0.79340  0.34560  0.41320  Biso   1.000  C
  C149     1.0000 0.70440  0.26220  0.36510  Biso   1.000  C
  C150     1.0000 0.77260  0.24640  0.32040  Biso   1.000  C
  O82      1.0000 0.67780  0.05290  0.02090  Biso   1.000  O
  O83      1.0000 0.81680  0.02010  0.13060  Biso   1.000  O
  C151     1.0000 0.75220  0.10390  0.16020  Biso   1.000  C
  C152     1.0000 0.83870  0.15610  0.29560  Biso   1.000  C
  C153     1.0000 0.83440  0.11120  0.24330  Biso   1.000  C
  H116     1.0000 0.88730  0.08600  0.26450  Biso   1.000  H
  C154     1.0000 0.74780  0.05390  0.09860  Biso   1.000  C
  C155     1.0000 0.89880  0.51400  0.74960  Biso   1.000  C
  H117     1.0000 0.83650  0.49950  0.75630  Biso   1.000  H
  H118     1.0000 0.88660  0.55130  0.73330  Biso   1.000  H
  C156     1.0000 0.00970  0.50820  0.65680  Biso   1.000  C
  H119     1.0000 0.03040  0.48640  0.61310  Biso   1.000  H
  H120     1.0000 0.99040  0.54280  0.62750  Biso   1.000  H
  C157     1.0000 0.94840  0.43000  0.70700  Biso   1.000  C
  H121     1.0000 0.89340  0.41600  0.72650  Biso   1.000  H
  H122     1.0000 0.95430  0.40730  0.65680  Biso   1.000  H
  N37      1.0000 0.93440  0.15390  0.38570  Biso   1.000  N
  N38      1.0000 0.60900  0.23320  0.36990  Biso   1.000  N
  O84      1.0000 0.54090  0.25430  0.38690  Biso   1.000  O
  O85      1.0000 0.60810  0.18660  0.35400  Biso   1.000  O
  O86      1.0000 0.93570  0.18510  0.44800  Biso   1.000  O
  O87      1.0000 0.01150  0.12440  0.39670  Biso   1.000  O
  Zn8      1.0000 0.79612  0.48597  0.53865  Biso   1.000  Zn
  C158     1.0000 0.96050  0.54080  0.70130  Biso   1.000  C
  H123     1.0000 0.90230  0.56300  0.69960  Biso   1.000  H
  H124     1.0000 0.99020  0.55560  0.65700  Biso   1.000  H
  C159     1.0000 0.01610  0.45580  0.66250  Biso   1.000  C
  H125     1.0000 0.99860  0.41900  0.64570  Biso   1.000  H
  H126     1.0000 0.03590  0.47190  0.61260  Biso   1.000  H
  C160     1.0000 0.89180  0.45920  0.73980  Biso   1.000  C
  H127     1.0000 0.83480  0.47860  0.74810  Biso   1.000  H
  H128     1.0000 0.86720  0.42370  0.71810  Biso   1.000  H
  N39      1.0000 0.43430  0.21640  0.35390  Biso   1.000  N
  N40      1.0000 0.93400  0.28220  0.27710  Biso   1.000  N
  O88      1.0000 0.96820  0.23920  0.26360  Biso   1.000  O
  O89      1.0000 0.43430  0.26330  0.33610  Biso   1.000  O
  O90      1.0000 0.52070  0.19430  0.40120  Biso   1.000  O
  O91      1.0000 0.50000  0.82630  0.25000  Biso   1.000  O
  O92      1.0000 0.00000  0.32630  0.25000  Biso   1.000  O
