data_image0
_cell_length_a       12.4009
_cell_length_b       12.5958
_cell_length_c       14.5577
_cell_angle_alpha    77.831
_cell_angle_beta     82.597
_cell_angle_gamma    72.818

_symmetry_space_group_name_H-M    "P 1"
_symmetry_int_tables_number       1

loop_
  _symmetry_equiv_pos_as_xyz
  'x, y, z'

loop_
  _atom_site_label
  _atom_site_occupancy
  _atom_site_fract_x
  _atom_site_fract_y
  _atom_site_fract_z
  _atom_site_thermal_displace_type
  _atom_site_B_iso_or_equiv
  _atom_site_type_symbol
  Cd1      1.0000 0.92057  0.30349  0.42380  Biso   1.000  Cd
  K1       1.0000 0.86897  0.50600  0.62236  Biso   1.000  K
  O1       1.0000 0.89210  0.29880  0.58343  Biso   1.000  O
  O2       1.0000 0.85690  0.15420  0.54350  Biso   1.000  O
  O3       1.0000 0.09960  0.13330  0.46300  Biso   1.000  O
  O4       1.0000 0.10350  0.28990  0.36340  Biso   1.000  O
  O5       1.0000 0.75250  0.03500  0.98200  Biso   1.000  O
  O6       1.0000 0.87670  0.22730  0.31500  Biso   1.000  O
  O7       1.0000 0.93850  0.04050  0.35850  Biso   1.000  O
  O8       1.0000 0.60670  0.99930  0.28770  Biso   1.000  O
  O9       1.0000 0.91350  0.50160  0.42180  Biso   1.000  O
  O10      1.0000 0.77960  0.46170  0.36430  Biso   1.000  O
  C1       1.0000 0.86230  0.20880  0.60640  Biso   1.000  C
  C2       1.0000 0.82780  0.17100  0.70650  Biso   1.000  C
  C3       1.0000 0.77410  0.08690  0.73090  Biso   1.000  C
  H1       1.0000 0.75810  0.05400  0.68300  Biso   1.000  H
  C4       1.0000 0.74320  0.04990  0.82310  Biso   1.000  C
  H2       1.0000 0.70720  0.99090  0.83920  Biso   1.000  H
  C5       1.0000 0.76510  0.09970  0.89340  Biso   1.000  C
  C6       1.0000 0.82170  0.18130  0.87030  Biso   1.000  C
  H3       1.0000 0.84130  0.21200  0.91800  Biso   1.000  H
  C7       1.0000 0.84970  0.21850  0.77620  Biso   1.000  C
  H4       1.0000 0.88480  0.27810  0.75960  Biso   1.000  H
  C8       1.0000 0.77310  0.08000  0.05940  Biso   1.000  C
  C9       1.0000 0.72510  0.17700  0.09220  Biso   1.000  C
  H5       1.0000 0.66400  0.23280  0.06190  Biso   1.000  H
  C10      1.0000 0.76590  0.19480  0.17070  Biso   1.000  C
  H6       1.0000 0.73390  0.26390  0.19300  Biso   1.000  H
  C11      1.0000 0.85220  0.11290  0.21610  Biso   1.000  C
  C12      1.0000 0.89740  0.01530  0.18230  Biso   1.000  C
  H7       1.0000 0.95650  0.95740  0.21330  Biso   1.000  H
  C13      1.0000 0.85720  0.99990  0.10180  Biso   1.000  C
  H8       1.0000 0.89000  0.93220  0.07750  Biso   1.000  H
  C14      1.0000 0.89280  0.12830  0.30360  Biso   1.000  C
  C15      1.0000 0.15090  0.19000  0.40140  Biso   1.000  C
  C16      1.0000 0.27210  0.13990  0.37320  Biso   1.000  C
  C17      1.0000 0.33390  0.04020  0.42510  Biso   1.000  C
  H9       1.0000 0.29890  0.00500  0.48020  Biso   1.000  H
  C18      1.0000 0.44550  0.99090  0.39830  Biso   1.000  C
  H10      1.0000 0.48730  0.92290  0.43500  Biso   1.000  H
  C19      1.0000 0.49490  0.04140  0.31800  Biso   1.000  C
  C20      1.0000 0.43580  0.14190  0.26560  Biso   1.000  C
  H11      1.0000 0.47120  0.17700  0.21060  Biso   1.000  H
  C21      1.0000 0.32480  0.19080  0.29400  Biso   1.000  C
  H12      1.0000 0.28410  0.26040  0.25870  Biso   1.000  H
  C22      1.0000 0.65820  0.88280  0.31160  Biso   1.000  C
  C23      1.0000 0.61080  0.80600  0.29020  Biso   1.000  C
  H13      1.0000 0.54090  0.83080  0.26160  Biso   1.000  H
  C24      1.0000 0.66630  0.69210  0.31090  Biso   1.000  C
  H14      1.0000 0.63460  0.63840  0.29580  Biso   1.000  H
  C25      1.0000 0.76790  0.65560  0.35380  Biso   1.000  C
  C26      1.0000 0.81320  0.73480  0.37360  Biso   1.000  C
  H15      1.0000 0.88300  0.71080  0.40250  Biso   1.000  H
  C27      1.0000 0.75860  0.84940  0.35210  Biso   1.000  C
  H16      1.0000 0.79090  0.90370  0.36540  Biso   1.000  H
  C28      1.0000 0.82370  0.53170  0.38070  Biso   1.000  C
  O11      1.0000 0.66650  0.58910  0.58480  Biso   1.000  O
  N1       1.0000 0.47910  0.66250  0.60870  Biso   1.000  N
  C29      1.0000 0.57460  0.66570  0.56950  Biso   1.000  C
  H17      1.0000 0.57840  0.73130  0.52430  Biso   1.000  H
  C30      1.0000 0.46470  0.59260  0.70370  Biso   1.000  C
  H18      1.0000 0.53830  0.54190  0.72220  Biso   1.000  H
  H19      1.0000 0.41300  0.54770  0.70120  Biso   1.000  H
  H20      1.0000 0.43330  0.64220  0.74980  Biso   1.000  H
  C31      1.0000 0.38230  0.73500  0.56410  Biso   1.000  C
  H21      1.0000 0.36570  0.81030  0.58100  Biso   1.000  H
  H22      1.0000 0.31750  0.70460  0.58490  Biso   1.000  H
  H23      1.0000 0.39680  0.74200  0.49570  Biso   1.000  H
  O12      1.0000 0.70820  0.07890  0.98560  Biso   1.000  O
  O13      1.0000 0.64300  0.56100  0.61930  Biso   1.000  O
  N2       1.0000 0.47980  0.64310  0.54370  Biso   1.000  N
  C32      1.0000 0.58160  0.58650  0.54840  Biso   1.000  C
  H24      1.0000 0.61790  0.55910  0.49300  Biso   1.000  H
  C33      1.0000 0.40000  0.72300  0.60270  Biso   1.000  C
  H25      1.0000 0.36580  0.79470  0.56190  Biso   1.000  H
  H26      1.0000 0.44130  0.73630  0.64980  Biso   1.000  H
  H27      1.0000 0.33970  0.68920  0.63450  Biso   1.000  H
  C34      1.0000 0.41250  0.65490  0.46940  Biso   1.000  C
  H28      1.0000 0.42720  0.71390  0.41770  Biso   1.000  H
  H29      1.0000 0.33240  0.67600  0.49180  Biso   1.000  H
  H30      1.0000 0.43100  0.58310  0.44690  Biso   1.000  H
  Cd2      1.0000 0.07943  0.69651  0.57620  Biso   1.000  Cd
  K2       1.0000 0.13103  0.49400  0.37764  Biso   1.000  K
  O14      1.0000 0.10790  0.70120  0.41657  Biso   1.000  O
  O15      1.0000 0.14310  0.84580  0.45650  Biso   1.000  O
  O16      1.0000 0.90040  0.86670  0.53700  Biso   1.000  O
  O17      1.0000 0.89650  0.71010  0.63660  Biso   1.000  O
  O18      1.0000 0.24750  0.96500  0.01800  Biso   1.000  O
  O19      1.0000 0.12330  0.77270  0.68500  Biso   1.000  O
  O20      1.0000 0.06150  0.95950  0.64150  Biso   1.000  O
  O21      1.0000 0.39330  0.00070  0.71230  Biso   1.000  O
  O22      1.0000 0.08650  0.49840  0.57820  Biso   1.000  O
  O23      1.0000 0.22040  0.53830  0.63570  Biso   1.000  O
  C35      1.0000 0.13770  0.79120  0.39360  Biso   1.000  C
  C36      1.0000 0.17220  0.82900  0.29350  Biso   1.000  C
  C37      1.0000 0.22590  0.91310  0.26910  Biso   1.000  C
  H31      1.0000 0.24190  0.94600  0.31700  Biso   1.000  H
  C38      1.0000 0.25680  0.95010  0.17690  Biso   1.000  C
  H32      1.0000 0.29280  0.00910  0.16080  Biso   1.000  H
  C39      1.0000 0.23490  0.90030  0.10660  Biso   1.000  C
  C40      1.0000 0.17830  0.81870  0.12970  Biso   1.000  C
  H33      1.0000 0.15870  0.78800  0.08200  Biso   1.000  H
  C41      1.0000 0.15030  0.78150  0.22380  Biso   1.000  C
  H34      1.0000 0.11520  0.72190  0.24040  Biso   1.000  H
  C42      1.0000 0.22690  0.92000  0.94060  Biso   1.000  C
  C43      1.0000 0.27490  0.82300  0.90780  Biso   1.000  C
  H35      1.0000 0.33600  0.76720  0.93810  Biso   1.000  H
  C44      1.0000 0.23410  0.80520  0.82930  Biso   1.000  C
  H36      1.0000 0.26610  0.73610  0.80700  Biso   1.000  H
  C45      1.0000 0.14780  0.88710  0.78390  Biso   1.000  C
  C46      1.0000 0.10260  0.98470  0.81770  Biso   1.000  C
  H37      1.0000 0.04350  0.04260  0.78670  Biso   1.000  H
  C47      1.0000 0.14280  0.00010  0.89820  Biso   1.000  C
  H38      1.0000 0.11000  0.06780  0.92250  Biso   1.000  H
  C48      1.0000 0.10720  0.87170  0.69640  Biso   1.000  C
  C49      1.0000 0.84910  0.81000  0.59860  Biso   1.000  C
  C50      1.0000 0.72790  0.86010  0.62680  Biso   1.000  C
  C51      1.0000 0.66610  0.95980  0.57490  Biso   1.000  C
  H39      1.0000 0.70110  0.99500  0.51980  Biso   1.000  H
  C52      1.0000 0.55450  0.00910  0.60170  Biso   1.000  C
  H40      1.0000 0.51270  0.07710  0.56500  Biso   1.000  H
  C53      1.0000 0.50510  0.95860  0.68200  Biso   1.000  C
  C54      1.0000 0.56420  0.85810  0.73440  Biso   1.000  C
  H41      1.0000 0.52880  0.82300  0.78940  Biso   1.000  H
  C55      1.0000 0.67520  0.80920  0.70600  Biso   1.000  C
  H42      1.0000 0.71590  0.73960  0.74130  Biso   1.000  H
  C56      1.0000 0.34180  0.11720  0.68840  Biso   1.000  C
  C57      1.0000 0.38920  0.19400  0.70980  Biso   1.000  C
  H43      1.0000 0.45910  0.16920  0.73840  Biso   1.000  H
  C58      1.0000 0.33370  0.30790  0.68910  Biso   1.000  C
  H44      1.0000 0.36540  0.36160  0.70420  Biso   1.000  H
  C59      1.0000 0.23210  0.34440  0.64620  Biso   1.000  C
  C60      1.0000 0.18680  0.26520  0.62640  Biso   1.000  C
  H45      1.0000 0.11700  0.28920  0.59750  Biso   1.000  H
  C61      1.0000 0.24140  0.15060  0.64790  Biso   1.000  C
  H46      1.0000 0.20910  0.09630  0.63460  Biso   1.000  H
  C62      1.0000 0.17630  0.46830  0.61930  Biso   1.000  C
  O24      1.0000 0.33350  0.41090  0.41520  Biso   1.000  O
  N3       1.0000 0.52090  0.33750  0.39130  Biso   1.000  N
  C63      1.0000 0.42540  0.33430  0.43050  Biso   1.000  C
  H47      1.0000 0.42160  0.26870  0.47570  Biso   1.000  H
  C64      1.0000 0.53530  0.40740  0.29630  Biso   1.000  C
  H48      1.0000 0.46170  0.45810  0.27780  Biso   1.000  H
  H49      1.0000 0.58700  0.45230  0.29880  Biso   1.000  H
  H50      1.0000 0.56670  0.35780  0.25020  Biso   1.000  H
  C65      1.0000 0.61770  0.26500  0.43590  Biso   1.000  C
  H51      1.0000 0.63430  0.18970  0.41900  Biso   1.000  H
  H52      1.0000 0.68250  0.29540  0.41510  Biso   1.000  H
  H53      1.0000 0.60320  0.25800  0.50430  Biso   1.000  H
  O25      1.0000 0.29180  0.92110  0.01440  Biso   1.000  O
  O26      1.0000 0.35700  0.43900  0.38070  Biso   1.000  O
  N4       1.0000 0.52020  0.35690  0.45630  Biso   1.000  N
  C66      1.0000 0.41840  0.41350  0.45160  Biso   1.000  C
  H54      1.0000 0.38210  0.44090  0.50700  Biso   1.000  H
  C67      1.0000 0.60000  0.27700  0.39730  Biso   1.000  C
  H55      1.0000 0.63420  0.20530  0.43810  Biso   1.000  H
  H56      1.0000 0.55870  0.26370  0.35020  Biso   1.000  H
  H57      1.0000 0.66030  0.31080  0.36550  Biso   1.000  H
  C68      1.0000 0.58750  0.34510  0.53060  Biso   1.000  C
  H58      1.0000 0.57280  0.28610  0.58230  Biso   1.000  H
  H59      1.0000 0.66760  0.32400  0.50820  Biso   1.000  H
  H60      1.0000 0.56900  0.41690  0.55310  Biso   1.000  H
  Cd3      1.0000 0.00000  0.00000  0.50000  Biso   1.000  Cd
