data_image0
_cell_length_a       15.3827
_cell_length_b       20.9671
_cell_length_c       19.23
_cell_angle_alpha    90
_cell_angle_beta     109.487
_cell_angle_gamma    90

_symmetry_space_group_name_H-M    "P 1"
_symmetry_int_tables_number       1

loop_
  _symmetry_equiv_pos_as_xyz
  'x, y, z'

loop_
  _atom_site_label
  _atom_site_occupancy
  _atom_site_fract_x
  _atom_site_fract_y
  _atom_site_fract_z
  _atom_site_thermal_displace_type
  _atom_site_B_iso_or_equiv
  _atom_site_type_symbol
  Zn1      1.0000 0.78537  0.74659  0.06359  Biso   1.000  Zn
  Zn2      1.0000 0.70245  0.75435  0.90116  Biso   1.000  Zn
  O1       1.0000 0.69520  0.67137  0.04360  Biso   1.000  O
  O2       1.0000 0.61180  0.69512  0.92680  Biso   1.000  O
  O3       1.0000 0.87130  0.68670  0.03530  Biso   1.000  O
  O4       1.0000 0.78610  0.67580  0.91590  Biso   1.000  O
  O5       1.0000 0.84790  0.82120  0.02940  Biso   1.000  O
  O6       1.0000 0.80630  0.81520  0.90610  Biso   1.000  O
  O7       1.0000 0.68410  0.80820  0.06070  Biso   1.000  O
  O8       1.0000 0.64290  0.82823  0.93900  Biso   1.000  O
  N1       1.0000 0.85360  0.74570  0.17370  Biso   1.000  N
  N2       1.0000 0.63450  0.74650  0.29000  Biso   1.000  N
  C1       1.0000 0.83940  0.78950  0.21870  Biso   1.000  C
  H1       1.0000 0.79500  0.82060  0.19880  Biso   1.000  H
  C2       1.0000 0.91660  0.70160  0.20450  Biso   1.000  C
  H2       1.0000 0.92710  0.67000  0.17430  Biso   1.000  H
  C3       1.0000 0.88720  0.79120  0.29350  Biso   1.000  C
  H3       1.0000 0.87320  0.82190  0.32300  Biso   1.000  H
  C4       1.0000 0.96760  0.69980  0.27900  Biso   1.000  C
  H4       1.0000 0.00940  0.66690  0.29810  Biso   1.000  H
  C5       1.0000 0.95590  0.74700  0.32440  Biso   1.000  C
  C6       1.0000 0.00970  0.74900  0.40160  Biso   1.000  C
  C7       1.0000 0.05560  0.75020  0.46480  Biso   1.000  C
  C8       1.0000 0.12060  0.74140  0.54000  Biso   1.000  C
  C9       1.0000 0.07740  0.75430  0.59110  Biso   1.000  C
  C10      1.0000 0.21600  0.73330  0.56280  Biso   1.000  C
  C11      1.0000 0.13170  0.75410  0.66780  Biso   1.000  C
  C12      1.0000 0.26740  0.73580  0.63670  Biso   1.000  C
  C13      1.0000 0.22840  0.74530  0.69040  Biso   1.000  C
  C14      1.0000 0.28100  0.74640  0.77010  Biso   1.000  C
  C15      1.0000 0.24810  0.71940  0.82170  Biso   1.000  C
  C16      1.0000 0.35700  0.76400  0.79590  Biso   1.000  C
  C17      1.0000 0.29980  0.72070  0.89630  Biso   1.000  C
  C18      1.0000 0.40900  0.76070  0.86930  Biso   1.000  C
  C19      1.0000 0.09960  0.76010  0.54470  Biso   1.000  C
  C20      1.0000 0.06700  0.72600  0.59490  Biso   1.000  C
  C21      1.0000 0.17060  0.79840  0.57080  Biso   1.000  C
  C22      1.0000 0.11800  0.72530  0.66870  Biso   1.000  C
  C23      1.0000 0.22380  0.79920  0.64720  Biso   1.000  C
  C24      1.0000 0.20230  0.76060  0.69460  Biso   1.000  C
  C25      1.0000 0.25850  0.76050  0.77550  Biso   1.000  C
  C26      1.0000 0.21860  0.75090  0.82870  Biso   1.000  C
  C27      1.0000 0.37000  0.77870  0.79310  Biso   1.000  C
  C28      1.0000 0.27380  0.74810  0.90460  Biso   1.000  C
  C29      1.0000 0.42230  0.77970  0.86820  Biso   1.000  C
  C30      1.0000 0.37860  0.75200  0.92250  Biso   1.000  C
  C31      1.0000 0.43320  0.75060  0.99930  Biso   1.000  C
  C32      1.0000 0.48050  0.74950  0.06310  Biso   1.000  C
  C33      1.0000 0.53410  0.74840  0.13980  Biso   1.000  C
  C34      1.0000 0.60490  0.70620  0.16890  Biso   1.000  C
  H5       1.0000 0.62070  0.67720  0.13850  Biso   1.000  H
  C35      1.0000 0.51880  0.79260  0.18770  Biso   1.000  C
  H6       1.0000 0.47470  0.82430  0.16990  Biso   1.000  H
  C36      1.0000 0.56840  0.78980  0.26160  Biso   1.000  C
  H7       1.0000 0.55560  0.81920  0.29300  Biso   1.000  H
  C37      1.0000 0.65230  0.70690  0.24330  Biso   1.000  C
  H8       1.0000 0.70000  0.67770  0.26190  Biso   1.000  H
  C38      1.0000 0.62910  0.66250  0.98370  Biso   1.000  C
  C39      1.0000 0.56880  0.60470  0.98060  Biso   1.000  C
  C40      1.0000 0.49050  0.59560  0.91770  Biso   1.000  C
  H9       1.0000 0.47430  0.62610  0.88050  Biso   1.000  H
  C41      1.0000 0.59140  0.56150  0.03700  Biso   1.000  C
  H10      1.0000 0.64180  0.56940  0.07900  Biso   1.000  H
  C42      1.0000 0.43780  0.54110  0.91130  Biso   1.000  C
  H11      1.0000 0.38670  0.53480  0.86940  Biso   1.000  H
  C43      1.0000 0.53910  0.50470  0.03240  Biso   1.000  C
  C44      1.0000 0.84840  0.65860  0.97440  Biso   1.000  C
  C45      1.0000 0.89770  0.59680  0.97090  Biso   1.000  C
  C46      1.0000 0.86720  0.55770  0.90800  Biso   1.000  C
  H12      1.0000 0.81840  0.57080  0.86700  Biso   1.000  H
  C47      1.0000 0.97050  0.57890  0.03090  Biso   1.000  C
  H13      1.0000 0.99060  0.60560  0.07170  Biso   1.000  H
  C48      1.0000 0.90910  0.50080  0.90700  Biso   1.000  C
  H14      1.0000 0.88820  0.47500  0.86550  Biso   1.000  H
  C49      1.0000 0.01570  0.51960  0.03120  Biso   1.000  C
  C50      1.0000 0.84960  0.83990  0.96800  Biso   1.000  C
  C51      1.0000 0.90730  0.89790  0.96810  Biso   1.000  C
  C52      1.0000 0.91810  0.92020  0.90160  Biso   1.000  C
  H15      1.0000 0.89210  0.89750  0.85810  Biso   1.000  H
  C53      1.0000 0.94640  0.93200  0.03250  Biso   1.000  C
  H16      1.0000 0.94030  0.91680  0.07610  Biso   1.000  H
  C54      1.0000 0.96640  0.97500  0.90120  Biso   1.000  C
  H17      1.0000 0.97390  0.98850  0.85750  Biso   1.000  H
  C55      1.0000 0.99500  0.98860  0.03400  Biso   1.000  C
  C56      1.0000 0.64220  0.83940  0.00290  Biso   1.000  C
  C57      1.0000 0.58940  0.89680  0.01360  Biso   1.000  C
  C58      1.0000 0.54760  0.93670  0.95500  Biso   1.000  C
  H18      1.0000 0.54960  0.92650  0.90850  Biso   1.000  H
  C59      1.0000 0.58500  0.91160  0.08430  Biso   1.000  C
  H19      1.0000 0.61310  0.88480  0.12390  Biso   1.000  H
  C60      1.0000 0.50140  0.99320  0.96430  Biso   1.000  C
  C61      1.0000 0.53990  0.96480  0.09470  Biso   1.000  C
  H20      1.0000 0.53630  0.97350  0.14120  Biso   1.000  H
  Zn3      1.0000 0.21463  0.24659  0.43641  Biso   1.000  Zn
  Zn4      1.0000 0.29755  0.25435  0.59884  Biso   1.000  Zn
  O9       1.0000 0.30480  0.17137  0.45640  Biso   1.000  O
  O10      1.0000 0.38820  0.19512  0.57320  Biso   1.000  O
  O11      1.0000 0.12870  0.18670  0.46470  Biso   1.000  O
  O12      1.0000 0.21390  0.17580  0.58410  Biso   1.000  O
  O13      1.0000 0.15210  0.32120  0.47060  Biso   1.000  O
  O14      1.0000 0.19370  0.31520  0.59390  Biso   1.000  O
  O15      1.0000 0.31590  0.30820  0.43930  Biso   1.000  O
  O16      1.0000 0.35710  0.32823  0.56100  Biso   1.000  O
  N3       1.0000 0.14640  0.24570  0.32630  Biso   1.000  N
  N4       1.0000 0.36550  0.24650  0.21000  Biso   1.000  N
  C62      1.0000 0.16060  0.28950  0.28130  Biso   1.000  C
  H21      1.0000 0.20500  0.32060  0.30120  Biso   1.000  H
  C63      1.0000 0.08340  0.20160  0.29550  Biso   1.000  C
  H22      1.0000 0.07290  0.17000  0.32570  Biso   1.000  H
  C64      1.0000 0.11280  0.29120  0.20650  Biso   1.000  C
  H23      1.0000 0.12680  0.32190  0.17700  Biso   1.000  H
  C65      1.0000 0.03240  0.19980  0.22100  Biso   1.000  C
  H24      1.0000 0.99060  0.16690  0.20190  Biso   1.000  H
  C66      1.0000 0.04410  0.24700  0.17560  Biso   1.000  C
  C67      1.0000 0.99030  0.24900  0.09840  Biso   1.000  C
  C68      1.0000 0.94440  0.25020  0.03520  Biso   1.000  C
  C69      1.0000 0.87940  0.24140  0.96000  Biso   1.000  C
  C70      1.0000 0.92260  0.25430  0.90890  Biso   1.000  C
  C71      1.0000 0.78400  0.23330  0.93720  Biso   1.000  C
  C72      1.0000 0.86830  0.25410  0.83220  Biso   1.000  C
  C73      1.0000 0.73260  0.23580  0.86330  Biso   1.000  C
  C74      1.0000 0.77160  0.24530  0.80960  Biso   1.000  C
  C75      1.0000 0.71900  0.24640  0.72990  Biso   1.000  C
  C76      1.0000 0.75190  0.21940  0.67830  Biso   1.000  C
  C77      1.0000 0.64300  0.26400  0.70410  Biso   1.000  C
  C78      1.0000 0.70020  0.22070  0.60370  Biso   1.000  C
  C79      1.0000 0.59100  0.26070  0.63070  Biso   1.000  C
  C80      1.0000 0.90040  0.26010  0.95530  Biso   1.000  C
  C81      1.0000 0.93300  0.22600  0.90510  Biso   1.000  C
  C82      1.0000 0.82940  0.29840  0.92920  Biso   1.000  C
  C83      1.0000 0.88200  0.22530  0.83130  Biso   1.000  C
  C84      1.0000 0.77620  0.29920  0.85280  Biso   1.000  C
  C85      1.0000 0.79770  0.26060  0.80540  Biso   1.000  C
  C86      1.0000 0.74150  0.26050  0.72450  Biso   1.000  C
  C87      1.0000 0.78140  0.25090  0.67130  Biso   1.000  C
  C88      1.0000 0.63000  0.27870  0.70690  Biso   1.000  C
  C89      1.0000 0.72620  0.24810  0.59540  Biso   1.000  C
  C90      1.0000 0.57770  0.27970  0.63180  Biso   1.000  C
  C91      1.0000 0.62140  0.25200  0.57750  Biso   1.000  C
  C92      1.0000 0.56680  0.25060  0.50070  Biso   1.000  C
  C93      1.0000 0.51950  0.24950  0.43690  Biso   1.000  C
  C94      1.0000 0.46590  0.24840  0.36020  Biso   1.000  C
  C95      1.0000 0.39510  0.20620  0.33110  Biso   1.000  C
  H25      1.0000 0.37930  0.17720  0.36150  Biso   1.000  H
  C96      1.0000 0.48120  0.29260  0.31230  Biso   1.000  C
  H26      1.0000 0.52530  0.32430  0.33010  Biso   1.000  H
  C97      1.0000 0.43160  0.28980  0.23840  Biso   1.000  C
  H27      1.0000 0.44440  0.31920  0.20700  Biso   1.000  H
  C98      1.0000 0.34770  0.20690  0.25670  Biso   1.000  C
  H28      1.0000 0.30000  0.17770  0.23810  Biso   1.000  H
  C99      1.0000 0.37090  0.16250  0.51630  Biso   1.000  C
  C100     1.0000 0.43120  0.10470  0.51940  Biso   1.000  C
  C101     1.0000 0.50950  0.09560  0.58230  Biso   1.000  C
  H29      1.0000 0.52570  0.12610  0.61950  Biso   1.000  H
  C102     1.0000 0.40860  0.06150  0.46300  Biso   1.000  C
  H30      1.0000 0.35820  0.06940  0.42100  Biso   1.000  H
  C103     1.0000 0.56220  0.04110  0.58870  Biso   1.000  C
  H31      1.0000 0.61330  0.03480  0.63060  Biso   1.000  H
  C104     1.0000 0.46090  0.00470  0.46760  Biso   1.000  C
  C105     1.0000 0.15160  0.15860  0.52560  Biso   1.000  C
  C106     1.0000 0.10230  0.09680  0.52910  Biso   1.000  C
  C107     1.0000 0.13280  0.05770  0.59200  Biso   1.000  C
  H32      1.0000 0.18160  0.07080  0.63300  Biso   1.000  H
  C108     1.0000 0.02950  0.07890  0.46910  Biso   1.000  C
  H33      1.0000 0.00940  0.10560  0.42830  Biso   1.000  H
  C109     1.0000 0.09090  0.00080  0.59300  Biso   1.000  C
  H34      1.0000 0.11180  0.97500  0.63450  Biso   1.000  H
  C110     1.0000 0.98430  0.01960  0.46880  Biso   1.000  C
  C111     1.0000 0.15040  0.33990  0.53200  Biso   1.000  C
  C112     1.0000 0.09270  0.39790  0.53190  Biso   1.000  C
  C113     1.0000 0.08190  0.42020  0.59840  Biso   1.000  C
  H35      1.0000 0.10790  0.39750  0.64190  Biso   1.000  H
  C114     1.0000 0.05360  0.43200  0.46750  Biso   1.000  C
  H36      1.0000 0.05970  0.41680  0.42390  Biso   1.000  H
  C115     1.0000 0.03360  0.47500  0.59880  Biso   1.000  C
  H37      1.0000 0.02610  0.48850  0.64250  Biso   1.000  H
  C116     1.0000 0.00500  0.48860  0.46600  Biso   1.000  C
  C117     1.0000 0.35780  0.33940  0.49710  Biso   1.000  C
  C118     1.0000 0.41060  0.39680  0.48640  Biso   1.000  C
  C119     1.0000 0.45240  0.43670  0.54500  Biso   1.000  C
  H38      1.0000 0.45040  0.42650  0.59150  Biso   1.000  H
  C120     1.0000 0.41500  0.41160  0.41570  Biso   1.000  C
  H39      1.0000 0.38690  0.38480  0.37610  Biso   1.000  H
  C121     1.0000 0.49860  0.49320  0.53570  Biso   1.000  C
  C122     1.0000 0.46010  0.46480  0.40530  Biso   1.000  C
  H40      1.0000 0.46370  0.47350  0.35880  Biso   1.000  H
  Zn5      1.0000 0.21463  0.25341  0.93641  Biso   1.000  Zn
  Zn6      1.0000 0.29755  0.24565  0.09884  Biso   1.000  Zn
  O17      1.0000 0.30480  0.32863  0.95640  Biso   1.000  O
  O18      1.0000 0.38820  0.30488  0.07320  Biso   1.000  O
  O19      1.0000 0.12870  0.31330  0.96470  Biso   1.000  O
  O20      1.0000 0.21390  0.32420  0.08410  Biso   1.000  O
  O21      1.0000 0.15210  0.17880  0.97060  Biso   1.000  O
  O22      1.0000 0.19370  0.18480  0.09390  Biso   1.000  O
  O23      1.0000 0.31590  0.19180  0.93930  Biso   1.000  O
  O24      1.0000 0.35710  0.17177  0.06100  Biso   1.000  O
  N5       1.0000 0.14640  0.25430  0.82630  Biso   1.000  N
  N6       1.0000 0.36550  0.25350  0.71000  Biso   1.000  N
  C123     1.0000 0.16060  0.21050  0.78130  Biso   1.000  C
  H41      1.0000 0.20500  0.17940  0.80120  Biso   1.000  H
  C124     1.0000 0.08340  0.29840  0.79550  Biso   1.000  C
  H42      1.0000 0.07290  0.33000  0.82570  Biso   1.000  H
  C125     1.0000 0.11280  0.20880  0.70650  Biso   1.000  C
  H43      1.0000 0.12680  0.17810  0.67700  Biso   1.000  H
  C126     1.0000 0.03240  0.30020  0.72100  Biso   1.000  C
  H44      1.0000 0.99060  0.33310  0.70190  Biso   1.000  H
  C127     1.0000 0.04410  0.25300  0.67560  Biso   1.000  C
  C128     1.0000 0.99030  0.25100  0.59840  Biso   1.000  C
  C129     1.0000 0.94440  0.24980  0.53520  Biso   1.000  C
  C130     1.0000 0.87940  0.25860  0.46000  Biso   1.000  C
  C131     1.0000 0.92260  0.24570  0.40890  Biso   1.000  C
  C132     1.0000 0.78400  0.26670  0.43720  Biso   1.000  C
  C133     1.0000 0.86830  0.24590  0.33220  Biso   1.000  C
  C134     1.0000 0.73260  0.26420  0.36330  Biso   1.000  C
  C135     1.0000 0.77160  0.25470  0.30960  Biso   1.000  C
  C136     1.0000 0.71900  0.25360  0.22990  Biso   1.000  C
  C137     1.0000 0.75190  0.28060  0.17830  Biso   1.000  C
  C138     1.0000 0.64300  0.23600  0.20410  Biso   1.000  C
  C139     1.0000 0.70020  0.27930  0.10370  Biso   1.000  C
  C140     1.0000 0.59100  0.23930  0.13070  Biso   1.000  C
  C141     1.0000 0.90040  0.23990  0.45530  Biso   1.000  C
  C142     1.0000 0.93300  0.27400  0.40510  Biso   1.000  C
  C143     1.0000 0.82940  0.20160  0.42920  Biso   1.000  C
  C144     1.0000 0.88200  0.27470  0.33130  Biso   1.000  C
  C145     1.0000 0.77620  0.20080  0.35280  Biso   1.000  C
  C146     1.0000 0.79770  0.23940  0.30540  Biso   1.000  C
  C147     1.0000 0.74150  0.23950  0.22450  Biso   1.000  C
  C148     1.0000 0.78140  0.24910  0.17130  Biso   1.000  C
  C149     1.0000 0.63000  0.22130  0.20690  Biso   1.000  C
  C150     1.0000 0.72620  0.25190  0.09540  Biso   1.000  C
  C151     1.0000 0.57770  0.22030  0.13180  Biso   1.000  C
  C152     1.0000 0.62140  0.24800  0.07750  Biso   1.000  C
  C153     1.0000 0.56680  0.24940  0.00070  Biso   1.000  C
  C154     1.0000 0.51950  0.25050  0.93690  Biso   1.000  C
  C155     1.0000 0.46590  0.25160  0.86020  Biso   1.000  C
  C156     1.0000 0.39510  0.29380  0.83110  Biso   1.000  C
  H45      1.0000 0.37930  0.32280  0.86150  Biso   1.000  H
  C157     1.0000 0.48120  0.20740  0.81230  Biso   1.000  C
  H46      1.0000 0.52530  0.17570  0.83010  Biso   1.000  H
  C158     1.0000 0.43160  0.21020  0.73840  Biso   1.000  C
  H47      1.0000 0.44440  0.18080  0.70700  Biso   1.000  H
  C159     1.0000 0.34770  0.29310  0.75670  Biso   1.000  C
  H48      1.0000 0.30000  0.32230  0.73810  Biso   1.000  H
  C160     1.0000 0.37090  0.33750  0.01630  Biso   1.000  C
  C161     1.0000 0.43120  0.39530  0.01940  Biso   1.000  C
  C162     1.0000 0.50950  0.40440  0.08230  Biso   1.000  C
  H49      1.0000 0.52570  0.37390  0.11950  Biso   1.000  H
  C163     1.0000 0.40860  0.43850  0.96300  Biso   1.000  C
  H50      1.0000 0.35820  0.43060  0.92100  Biso   1.000  H
  C164     1.0000 0.56220  0.45890  0.08870  Biso   1.000  C
  H51      1.0000 0.61330  0.46520  0.13060  Biso   1.000  H
  C165     1.0000 0.46090  0.49530  0.96760  Biso   1.000  C
  C166     1.0000 0.15160  0.34140  0.02560  Biso   1.000  C
  C167     1.0000 0.10230  0.40320  0.02910  Biso   1.000  C
  C168     1.0000 0.13280  0.44230  0.09200  Biso   1.000  C
  H52      1.0000 0.18160  0.42920  0.13300  Biso   1.000  H
  C169     1.0000 0.02950  0.42110  0.96910  Biso   1.000  C
  H53      1.0000 0.00940  0.39440  0.92830  Biso   1.000  H
  C170     1.0000 0.09090  0.49920  0.09300  Biso   1.000  C
  H54      1.0000 0.11180  0.52500  0.13450  Biso   1.000  H
  C171     1.0000 0.98430  0.48040  0.96880  Biso   1.000  C
  C172     1.0000 0.15040  0.16010  0.03200  Biso   1.000  C
  C173     1.0000 0.09270  0.10210  0.03190  Biso   1.000  C
  C174     1.0000 0.08190  0.07980  0.09840  Biso   1.000  C
  H55      1.0000 0.10790  0.10250  0.14190  Biso   1.000  H
  C175     1.0000 0.05360  0.06800  0.96750  Biso   1.000  C
  H56      1.0000 0.05970  0.08320  0.92390  Biso   1.000  H
  C176     1.0000 0.03360  0.02500  0.09880  Biso   1.000  C
  H57      1.0000 0.02610  0.01150  0.14250  Biso   1.000  H
  C177     1.0000 0.00500  0.01140  0.96600  Biso   1.000  C
  C178     1.0000 0.35780  0.16060  0.99710  Biso   1.000  C
  C179     1.0000 0.41060  0.10320  0.98640  Biso   1.000  C
  C180     1.0000 0.45240  0.06330  0.04500  Biso   1.000  C
  H58      1.0000 0.45040  0.07350  0.09150  Biso   1.000  H
  C181     1.0000 0.41500  0.08840  0.91570  Biso   1.000  C
  H59      1.0000 0.38690  0.11520  0.87610  Biso   1.000  H
  C182     1.0000 0.49860  0.00680  0.03570  Biso   1.000  C
  C183     1.0000 0.46010  0.03520  0.90530  Biso   1.000  C
  H60      1.0000 0.46370  0.02650  0.85880  Biso   1.000  H
  Zn7      1.0000 0.78537  0.75341  0.56359  Biso   1.000  Zn
  Zn8      1.0000 0.70245  0.74565  0.40116  Biso   1.000  Zn
  O25      1.0000 0.69520  0.82863  0.54360  Biso   1.000  O
  O26      1.0000 0.61180  0.80488  0.42680  Biso   1.000  O
  O27      1.0000 0.87130  0.81330  0.53530  Biso   1.000  O
  O28      1.0000 0.78610  0.82420  0.41590  Biso   1.000  O
  O29      1.0000 0.84790  0.67880  0.52940  Biso   1.000  O
  O30      1.0000 0.80630  0.68480  0.40610  Biso   1.000  O
  O31      1.0000 0.68410  0.69180  0.56070  Biso   1.000  O
  O32      1.0000 0.64290  0.67177  0.43900  Biso   1.000  O
  N7       1.0000 0.85360  0.75430  0.67370  Biso   1.000  N
  N8       1.0000 0.63450  0.75350  0.79000  Biso   1.000  N
  C184     1.0000 0.83940  0.71050  0.71870  Biso   1.000  C
  H61      1.0000 0.79500  0.67940  0.69880  Biso   1.000  H
  C185     1.0000 0.91660  0.79840  0.70450  Biso   1.000  C
  H62      1.0000 0.92710  0.83000  0.67430  Biso   1.000  H
  C186     1.0000 0.88720  0.70880  0.79350  Biso   1.000  C
  H63      1.0000 0.87320  0.67810  0.82300  Biso   1.000  H
  C187     1.0000 0.96760  0.80020  0.77900  Biso   1.000  C
  H64      1.0000 0.00940  0.83310  0.79810  Biso   1.000  H
  C188     1.0000 0.95590  0.75300  0.82440  Biso   1.000  C
  C189     1.0000 0.00970  0.75100  0.90160  Biso   1.000  C
  C190     1.0000 0.05560  0.74980  0.96480  Biso   1.000  C
  C191     1.0000 0.12060  0.75860  0.04000  Biso   1.000  C
  C192     1.0000 0.07740  0.74570  0.09110  Biso   1.000  C
  C193     1.0000 0.21600  0.76670  0.06280  Biso   1.000  C
  C194     1.0000 0.13170  0.74590  0.16780  Biso   1.000  C
  C195     1.0000 0.26740  0.76420  0.13670  Biso   1.000  C
  C196     1.0000 0.22840  0.75470  0.19040  Biso   1.000  C
  C197     1.0000 0.28100  0.75360  0.27010  Biso   1.000  C
  C198     1.0000 0.24810  0.78060  0.32170  Biso   1.000  C
  C199     1.0000 0.35700  0.73600  0.29590  Biso   1.000  C
  C200     1.0000 0.29980  0.77930  0.39630  Biso   1.000  C
  C201     1.0000 0.40900  0.73930  0.36930  Biso   1.000  C
  C202     1.0000 0.09960  0.73990  0.04470  Biso   1.000  C
  C203     1.0000 0.06700  0.77400  0.09490  Biso   1.000  C
  C204     1.0000 0.17060  0.70160  0.07080  Biso   1.000  C
  C205     1.0000 0.11800  0.77470  0.16870  Biso   1.000  C
  C206     1.0000 0.22380  0.70080  0.14720  Biso   1.000  C
  C207     1.0000 0.20230  0.73940  0.19460  Biso   1.000  C
  C208     1.0000 0.25850  0.73950  0.27550  Biso   1.000  C
  C209     1.0000 0.21860  0.74910  0.32870  Biso   1.000  C
  C210     1.0000 0.37000  0.72130  0.29310  Biso   1.000  C
  C211     1.0000 0.27380  0.75190  0.40460  Biso   1.000  C
  C212     1.0000 0.42230  0.72030  0.36820  Biso   1.000  C
  C213     1.0000 0.37860  0.74800  0.42250  Biso   1.000  C
  C214     1.0000 0.43320  0.74940  0.49930  Biso   1.000  C
  C215     1.0000 0.48050  0.75050  0.56310  Biso   1.000  C
  C216     1.0000 0.53410  0.75160  0.63980  Biso   1.000  C
  C217     1.0000 0.60490  0.79380  0.66890  Biso   1.000  C
  H65      1.0000 0.62070  0.82280  0.63850  Biso   1.000  H
  C218     1.0000 0.51880  0.70740  0.68770  Biso   1.000  C
  H66      1.0000 0.47470  0.67570  0.66990  Biso   1.000  H
  C219     1.0000 0.56840  0.71020  0.76160  Biso   1.000  C
  H67      1.0000 0.55560  0.68080  0.79300  Biso   1.000  H
  C220     1.0000 0.65230  0.79310  0.74330  Biso   1.000  C
  H68      1.0000 0.70000  0.82230  0.76190  Biso   1.000  H
  C221     1.0000 0.62910  0.83750  0.48370  Biso   1.000  C
  C222     1.0000 0.56880  0.89530  0.48060  Biso   1.000  C
  C223     1.0000 0.49050  0.90440  0.41770  Biso   1.000  C
  H69      1.0000 0.47430  0.87390  0.38050  Biso   1.000  H
  C224     1.0000 0.59140  0.93850  0.53700  Biso   1.000  C
  H70      1.0000 0.64180  0.93060  0.57900  Biso   1.000  H
  C225     1.0000 0.43780  0.95890  0.41130  Biso   1.000  C
  H71      1.0000 0.38670  0.96520  0.36940  Biso   1.000  H
  C226     1.0000 0.53910  0.99530  0.53240  Biso   1.000  C
  C227     1.0000 0.84840  0.84140  0.47440  Biso   1.000  C
  C228     1.0000 0.89770  0.90320  0.47090  Biso   1.000  C
  C229     1.0000 0.86720  0.94230  0.40800  Biso   1.000  C
  H72      1.0000 0.81840  0.92920  0.36700  Biso   1.000  H
  C230     1.0000 0.97050  0.92110  0.53090  Biso   1.000  C
  H73      1.0000 0.99060  0.89440  0.57170  Biso   1.000  H
  C231     1.0000 0.90910  0.99920  0.40700  Biso   1.000  C
  H74      1.0000 0.88820  0.02500  0.36550  Biso   1.000  H
  C232     1.0000 0.01570  0.98040  0.53120  Biso   1.000  C
  C233     1.0000 0.84960  0.66010  0.46800  Biso   1.000  C
  C234     1.0000 0.90730  0.60210  0.46810  Biso   1.000  C
  C235     1.0000 0.91810  0.57980  0.40160  Biso   1.000  C
  H75      1.0000 0.89210  0.60250  0.35810  Biso   1.000  H
  C236     1.0000 0.94640  0.56800  0.53250  Biso   1.000  C
  H76      1.0000 0.94030  0.58320  0.57610  Biso   1.000  H
  C237     1.0000 0.96640  0.52500  0.40120  Biso   1.000  C
  H77      1.0000 0.97390  0.51150  0.35750  Biso   1.000  H
  C238     1.0000 0.99500  0.51140  0.53400  Biso   1.000  C
  C239     1.0000 0.64220  0.66060  0.50290  Biso   1.000  C
  C240     1.0000 0.58940  0.60320  0.51360  Biso   1.000  C
  C241     1.0000 0.54760  0.56330  0.45500  Biso   1.000  C
  H78      1.0000 0.54960  0.57350  0.40850  Biso   1.000  H
  C242     1.0000 0.58500  0.58840  0.58430  Biso   1.000  C
  H79      1.0000 0.61310  0.61520  0.62390  Biso   1.000  H
  C243     1.0000 0.50140  0.50680  0.46430  Biso   1.000  C
  C244     1.0000 0.53990  0.53520  0.59470  Biso   1.000  C
  H80      1.0000 0.53630  0.52650  0.64120  Biso   1.000  H
