data_image0
_cell_length_a       9.914
_cell_length_b       16.143
_cell_length_c       18.407
_cell_angle_alpha    92.009
_cell_angle_beta     103.583
_cell_angle_gamma    91.941

_symmetry_space_group_name_H-M    "P 1"
_symmetry_int_tables_number       1

loop_
  _symmetry_equiv_pos_as_xyz
  'x, y, z'

loop_
  _atom_site_label
  _atom_site_occupancy
  _atom_site_fract_x
  _atom_site_fract_y
  _atom_site_fract_z
  _atom_site_thermal_displace_type
  _atom_site_B_iso_or_equiv
  _atom_site_type_symbol
  C1       1.0000 0.15800  0.56120  0.02790  Biso   1.000  C
  C2       1.0000 0.55870  0.80870  0.99590  Biso   1.000  C
  C3       1.0000 0.54250  0.39060  0.20080  Biso   1.000  C
  H1       1.0000 0.62110  0.39640  0.18170  Biso   1.000  H
  C4       1.0000 0.55610  0.40800  0.27690  Biso   1.000  C
  H2       1.0000 0.64150  0.42520  0.30790  Biso   1.000  H
  C5       1.0000 0.43800  0.39890  0.30560  Biso   1.000  C
  C6       1.0000 0.31580  0.36860  0.25690  Biso   1.000  C
  H3       1.0000 0.23650  0.35870  0.27450  Biso   1.000  H
  C7       1.0000 0.31230  0.35320  0.18270  Biso   1.000  C
  H4       1.0000 0.22960  0.33270  0.15100  Biso   1.000  H
  C8       1.0000 0.43930  0.42590  0.38500  Biso   1.000  C
  C9       1.0000 0.06160  0.52230  0.19380  Biso   1.000  C
  H5       1.0000 0.14210  0.51230  0.17780  Biso   1.000  H
  C10      1.0000 0.06560  0.51880  0.26910  Biso   1.000  C
  H6       1.0000 0.14760  0.50720  0.30300  Biso   1.000  H
  C11      1.0000 0.94660  0.53270  0.29370  Biso   1.000  C
  C12      1.0000 0.82800  0.54910  0.24040  Biso   1.000  C
  H7       1.0000 0.74580  0.55880  0.25470  Biso   1.000  H
  C13      1.0000 0.83150  0.55110  0.16650  Biso   1.000  C
  H8       1.0000 0.75010  0.56090  0.13150  Biso   1.000  H
  C14      1.0000 0.94440  0.52850  0.37450  Biso   1.000  C
  C15      1.0000 0.60380  0.72510  0.19420  Biso   1.000  C
  H9       1.0000 0.64550  0.75800  0.16440  Biso   1.000  H
  C16      1.0000 0.64800  0.73550  0.27020  Biso   1.000  C
  H10      1.0000 0.71420  0.77710  0.29140  Biso   1.000  H
  C17      1.0000 0.59340  0.68390  0.31540  Biso   1.000  C
  C18      1.0000 0.49050  0.62580  0.28120  Biso   1.000  C
  H11      1.0000 0.44930  0.59090  0.30960  Biso   1.000  H
  C19      1.0000 0.45040  0.62060  0.20500  Biso   1.000  C
  H12      1.0000 0.38220  0.58050  0.18280  Biso   1.000  H
  C20      1.0000 0.64770  0.68970  0.39900  Biso   1.000  C
  C21      1.0000 0.64490  0.96810  0.19910  Biso   1.000  C
  H13      1.0000 0.55260  0.98270  0.18620  Biso   1.000  H
  C22      1.0000 0.71390  0.97580  0.27340  Biso   1.000  C
  H14      1.0000 0.66890  0.99420  0.30960  Biso   1.000  H
  C23      1.0000 0.85230  0.95560  0.29300  Biso   1.000  C
  C24      1.0000 0.91190  0.92850  0.23690  Biso   1.000  C
  H15      1.0000 0.00480  0.91510  0.24780  Biso   1.000  H
  C25      1.0000 0.83310  0.92120  0.16420  Biso   1.000  C
  H16      1.0000 0.87480  0.90140  0.12710  Biso   1.000  H
  C26      1.0000 0.93440  0.96440  0.37350  Biso   1.000  C
  C27      1.0000 0.54160  0.83480  0.79410  Biso   1.000  C
  H17      1.0000 0.48010  0.80460  0.81520  Biso   1.000  H
  C28      1.0000 0.49870  0.85690  0.72210  Biso   1.000  C
  H18      1.0000 0.40880  0.84290  0.69490  Biso   1.000  H
  C29      1.0000 0.59120  0.90090  0.68930  Biso   1.000  C
  C30      1.0000 0.72590  0.91970  0.72950  Biso   1.000  C
  H19      1.0000 0.79000  0.94770  0.70850  Biso   1.000  H
  C31      1.0000 0.76090  0.89470  0.80320  Biso   1.000  C
  H20      1.0000 0.85100  0.90570  0.83160  Biso   1.000  H
  C32      1.0000 0.54170  0.93080  0.61100  Biso   1.000  C
  Cl1      1.0000 0.83910  0.66975  0.00648  Biso   1.000  Cl
  Cl2      1.0000 0.64190  0.02906  0.95626  Biso   1.000  Cl
  Cl3      1.0000 0.93900  0.88080  0.99590  Biso   1.000  Cl
  Cu1      1.0000 0.61110  0.62070  0.96030  Biso   1.000  Cu
  Cu2      1.0000 0.94270  0.54754  0.03187  Biso   1.000  Cu
  Cu3      1.0000 0.41554  0.66211  0.04563  Biso   1.000  Cu
  Cu4      1.0000 0.58875  0.92486  0.03676  Biso   1.000  Cu
  Cu5      1.0000 0.70240  0.84875  0.94798  Biso   1.000  Cu
  Dy1      1.0000 0.24302  0.97304  0.49045  Biso   1.000  Dy
  Dy2      1.0000 0.74869  0.52038  0.49714  Biso   1.000  Dy
  N1       1.0000 0.24140  0.60020  0.03700  Biso   1.000  N
  N2       1.0000 0.50260  0.74880  0.00180  Biso   1.000  N
  N3       1.0000 0.42210  0.36620  0.15410  Biso   1.000  N
  N4       1.0000 0.94700  0.53940  0.14290  Biso   1.000  N
  N5       1.0000 0.50260  0.66920  0.16060  Biso   1.000  N
  N6       1.0000 0.70190  0.94090  0.14460  Biso   1.000  N
  N7       1.0000 0.66730  0.85450  0.83510  Biso   1.000  N
  O1       1.0000 0.54700  0.46020  0.42410  Biso   1.000  O
  O2       1.0000 0.32780  0.41450  0.40580  Biso   1.000  O
  O3       1.0000 0.05170  0.51020  0.42000  Biso   1.000  O
  O4       1.0000 0.83090  0.54310  0.39120  Biso   1.000  O
  O5       1.0000 0.72480  0.75100  0.42710  Biso   1.000  O
  O6       1.0000 0.61330  0.63190  0.43620  Biso   1.000  O
  O7       1.0000 0.87420  0.99360  0.42040  Biso   1.000  O
  O8       1.0000 0.05770  0.94360  0.38650  Biso   1.000  O
  O9       1.0000 0.41680  0.91490  0.57860  Biso   1.000  O
  O10      1.0000 0.62610  0.97130  0.58380  Biso   1.000  O
  O11      1.0000 0.14400  0.10420  0.45420  Biso   1.000  O
  H21      1.0000 0.09890  0.06510  0.42910  Biso   1.000  H
  H22      1.0000 0.09280  0.13720  0.46740  Biso   1.000  H
  C33      1.0000 0.51940  0.53230  0.99320  Biso   1.000  C
  Cl4      1.0000 0.86940  0.86570  0.95990  Biso   1.000  Cl
  Cu6      1.0000 0.56520  0.63830  0.95400  Biso   1.000  Cu
  Cu7      1.0000 0.85750  0.02150  0.97730  Biso   1.000  Cu
  C34      1.0000 0.84200  0.43880  0.97210  Biso   1.000  C
  C35      1.0000 0.44130  0.19130  0.00410  Biso   1.000  C
  C36      1.0000 0.45750  0.60940  0.79920  Biso   1.000  C
  H23      1.0000 0.37890  0.60360  0.81830  Biso   1.000  H
  C37      1.0000 0.44390  0.59200  0.72310  Biso   1.000  C
  H24      1.0000 0.35850  0.57480  0.69210  Biso   1.000  H
  C38      1.0000 0.56200  0.60110  0.69440  Biso   1.000  C
  C39      1.0000 0.68420  0.63140  0.74310  Biso   1.000  C
  H25      1.0000 0.76350  0.64130  0.72550  Biso   1.000  H
  C40      1.0000 0.68770  0.64680  0.81730  Biso   1.000  C
  H26      1.0000 0.77040  0.66730  0.84900  Biso   1.000  H
  C41      1.0000 0.56070  0.57410  0.61500  Biso   1.000  C
  C42      1.0000 0.93840  0.47770  0.80620  Biso   1.000  C
  H27      1.0000 0.85790  0.48770  0.82220  Biso   1.000  H
  C43      1.0000 0.93440  0.48120  0.73090  Biso   1.000  C
  H28      1.0000 0.85240  0.49280  0.69700  Biso   1.000  H
  C44      1.0000 0.05340  0.46730  0.70630  Biso   1.000  C
  C45      1.0000 0.17200  0.45090  0.75960  Biso   1.000  C
  H29      1.0000 0.25420  0.44120  0.74530  Biso   1.000  H
  C46      1.0000 0.16850  0.44890  0.83350  Biso   1.000  C
  H30      1.0000 0.24990  0.43910  0.86850  Biso   1.000  H
  C47      1.0000 0.05560  0.47150  0.62550  Biso   1.000  C
  C48      1.0000 0.39620  0.27490  0.80580  Biso   1.000  C
  H31      1.0000 0.35450  0.24200  0.83560  Biso   1.000  H
  C49      1.0000 0.35200  0.26450  0.72980  Biso   1.000  C
  H32      1.0000 0.28580  0.22290  0.70860  Biso   1.000  H
  C50      1.0000 0.40660  0.31610  0.68460  Biso   1.000  C
  C51      1.0000 0.50950  0.37420  0.71880  Biso   1.000  C
  H33      1.0000 0.55070  0.40910  0.69040  Biso   1.000  H
  C52      1.0000 0.54960  0.37940  0.79500  Biso   1.000  C
  H34      1.0000 0.61780  0.41950  0.81720  Biso   1.000  H
  C53      1.0000 0.35230  0.31030  0.60100  Biso   1.000  C
  C54      1.0000 0.35510  0.03190  0.80090  Biso   1.000  C
  H35      1.0000 0.44740  0.01730  0.81380  Biso   1.000  H
  C55      1.0000 0.28610  0.02420  0.72660  Biso   1.000  C
  H36      1.0000 0.33110  0.00580  0.69040  Biso   1.000  H
  C56      1.0000 0.14770  0.04440  0.70700  Biso   1.000  C
  C57      1.0000 0.08810  0.07150  0.76310  Biso   1.000  C
  H37      1.0000 0.99520  0.08490  0.75220  Biso   1.000  H
  C58      1.0000 0.16690  0.07880  0.83580  Biso   1.000  C
  H38      1.0000 0.12520  0.09860  0.87290  Biso   1.000  H
  C59      1.0000 0.06560  0.03560  0.62650  Biso   1.000  C
  C60      1.0000 0.45840  0.16520  0.20590  Biso   1.000  C
  H39      1.0000 0.51990  0.19540  0.18480  Biso   1.000  H
  C61      1.0000 0.50130  0.14310  0.27790  Biso   1.000  C
  H40      1.0000 0.59120  0.15710  0.30510  Biso   1.000  H
  C62      1.0000 0.40880  0.09910  0.31070  Biso   1.000  C
  C63      1.0000 0.27410  0.08030  0.27050  Biso   1.000  C
  H41      1.0000 0.21000  0.05230  0.29150  Biso   1.000  H
  C64      1.0000 0.23910  0.10530  0.19680  Biso   1.000  C
  H42      1.0000 0.14900  0.09430  0.16840  Biso   1.000  H
  C65      1.0000 0.45830  0.06920  0.38900  Biso   1.000  C
  Cl5      1.0000 0.16090  0.33025  0.99352  Biso   1.000  Cl
  Cl6      1.0000 0.35810  0.97094  0.04374  Biso   1.000  Cl
  Cl7      1.0000 0.06100  0.11920  0.00410  Biso   1.000  Cl
  Cu8      1.0000 0.38890  0.37930  0.03970  Biso   1.000  Cu
  Cu9      1.0000 0.05730  0.45246  0.96813  Biso   1.000  Cu
  Cu10     1.0000 0.58446  0.33789  0.95437  Biso   1.000  Cu
  Cu11     1.0000 0.41125  0.07514  0.96324  Biso   1.000  Cu
  Cu12     1.0000 0.29760  0.15125  0.05202  Biso   1.000  Cu
  Dy3      1.0000 0.75698  0.02696  0.50955  Biso   1.000  Dy
  Dy4      1.0000 0.25131  0.47962  0.50286  Biso   1.000  Dy
  N8       1.0000 0.75860  0.39980  0.96300  Biso   1.000  N
  N9       1.0000 0.49740  0.25120  0.99820  Biso   1.000  N
  N10      1.0000 0.57790  0.63380  0.84590  Biso   1.000  N
  N11      1.0000 0.05300  0.46060  0.85710  Biso   1.000  N
  N12      1.0000 0.49740  0.33080  0.83940  Biso   1.000  N
  N13      1.0000 0.29810  0.05910  0.85540  Biso   1.000  N
  N14      1.0000 0.33270  0.14550  0.16490  Biso   1.000  N
  O12      1.0000 0.45300  0.53980  0.57590  Biso   1.000  O
  O13      1.0000 0.67220  0.58550  0.59420  Biso   1.000  O
  O14      1.0000 0.94830  0.48980  0.58000  Biso   1.000  O
  O15      1.0000 0.16910  0.45690  0.60880  Biso   1.000  O
  O16      1.0000 0.27520  0.24900  0.57290  Biso   1.000  O
  O17      1.0000 0.38670  0.36810  0.56380  Biso   1.000  O
  O18      1.0000 0.12580  0.00640  0.57960  Biso   1.000  O
  O19      1.0000 0.94230  0.05640  0.61350  Biso   1.000  O
  O20      1.0000 0.58320  0.08510  0.42140  Biso   1.000  O
  O21      1.0000 0.37390  0.02870  0.41620  Biso   1.000  O
  O22      1.0000 0.85600  0.89580  0.54580  Biso   1.000  O
  H43      1.0000 0.90110  0.93490  0.57090  Biso   1.000  H
  H44      1.0000 0.90720  0.86280  0.53260  Biso   1.000  H
  C66      1.0000 0.48060  0.46770  0.00680  Biso   1.000  C
  Cl8      1.0000 0.13060  0.13430  0.04010  Biso   1.000  Cl
  Cu13     1.0000 0.43480  0.36170  0.04600  Biso   1.000  Cu
  Cu14     1.0000 0.14250  0.97850  0.02270  Biso   1.000  Cu
  Cu15     1.0000 0.00000  0.00000  0.00000  Biso   1.000  Cu
