data_image0
_cell_length_a       8.735
_cell_length_b       15.1704
_cell_length_c       13.0851
_cell_angle_alpha    90
_cell_angle_beta     101.223
_cell_angle_gamma    90

_symmetry_space_group_name_H-M    "P 1"
_symmetry_int_tables_number       1

loop_
  _symmetry_equiv_pos_as_xyz
  'x, y, z'

loop_
  _atom_site_label
  _atom_site_occupancy
  _atom_site_fract_x
  _atom_site_fract_y
  _atom_site_fract_z
  _atom_site_thermal_displace_type
  _atom_site_B_iso_or_equiv
  _atom_site_type_symbol
  P1       1.0000 0.05972  0.09744  0.11929  Biso   1.000  P
  H1       1.0000 0.20290  0.07870  0.20300  Biso   1.000  H
  O1       1.0000 0.12230  0.10665  0.01898  Biso   1.000  O
  O2       1.0000 0.94520  0.02280  0.11880  Biso   1.000  O
  O3       1.0000 0.98750  0.18452  0.14460  Biso   1.000  O
  Be1      1.0000 0.05620  0.08240  0.89680  Biso   1.000  Be
  O4       1.0000 0.31930  0.37120  0.16310  Biso   1.000  O
  O5       1.0000 0.38450  0.37390  0.36100  Biso   1.000  O
  O6       1.0000 0.11630  0.32330  0.26590  Biso   1.000  O
  P2       1.0000 0.27300  0.35670  0.26239  Biso   1.000  P
  H2       1.0000 0.16450  0.44200  0.26090  Biso   1.000  H
  O7       1.0000 0.18320  0.27740  0.27510  Biso   1.000  O
  P3       1.0000 0.55972  0.59744  0.11929  Biso   1.000  P
  H3       1.0000 0.70290  0.57870  0.20300  Biso   1.000  H
  O8       1.0000 0.62230  0.60665  0.01898  Biso   1.000  O
  O9       1.0000 0.44520  0.52280  0.11880  Biso   1.000  O
  O10      1.0000 0.48750  0.68452  0.14460  Biso   1.000  O
  Be2      1.0000 0.55620  0.58240  0.89680  Biso   1.000  Be
  O11      1.0000 0.81930  0.87120  0.16310  Biso   1.000  O
  O12      1.0000 0.88450  0.87390  0.36100  Biso   1.000  O
  O13      1.0000 0.61630  0.82330  0.26590  Biso   1.000  O
  P4       1.0000 0.77300  0.85670  0.26239  Biso   1.000  P
  H4       1.0000 0.66450  0.94200  0.26090  Biso   1.000  H
  O14      1.0000 0.68320  0.77740  0.27510  Biso   1.000  O
  P5       1.0000 0.94028  0.09744  0.38071  Biso   1.000  P
  H5       1.0000 0.79710  0.07870  0.29700  Biso   1.000  H
  O15      1.0000 0.87770  0.10665  0.48102  Biso   1.000  O
  O16      1.0000 0.05480  0.02280  0.38120  Biso   1.000  O
  O17      1.0000 0.01250  0.18452  0.35540  Biso   1.000  O
  Be3      1.0000 0.94380  0.08240  0.60320  Biso   1.000  Be
  O18      1.0000 0.68070  0.37120  0.33690  Biso   1.000  O
  O19      1.0000 0.61550  0.37390  0.13900  Biso   1.000  O
  O20      1.0000 0.88370  0.32330  0.23410  Biso   1.000  O
  P6       1.0000 0.72700  0.35670  0.23761  Biso   1.000  P
  H6       1.0000 0.83550  0.44200  0.23910  Biso   1.000  H
  O21      1.0000 0.81680  0.27740  0.22490  Biso   1.000  O
  P7       1.0000 0.44028  0.59744  0.38071  Biso   1.000  P
  H7       1.0000 0.29710  0.57870  0.29700  Biso   1.000  H
  O22      1.0000 0.37770  0.60665  0.48102  Biso   1.000  O
  O23      1.0000 0.55480  0.52280  0.38120  Biso   1.000  O
  O24      1.0000 0.51250  0.68452  0.35540  Biso   1.000  O
  Be4      1.0000 0.44380  0.58240  0.60320  Biso   1.000  Be
  O25      1.0000 0.18070  0.87120  0.33690  Biso   1.000  O
  O26      1.0000 0.11550  0.87390  0.13900  Biso   1.000  O
  O27      1.0000 0.38370  0.82330  0.23410  Biso   1.000  O
  P8       1.0000 0.22700  0.85670  0.23761  Biso   1.000  P
  H8       1.0000 0.33550  0.94200  0.23910  Biso   1.000  H
  O28      1.0000 0.31680  0.77740  0.22490  Biso   1.000  O
  P9       1.0000 0.94028  0.90256  0.88071  Biso   1.000  P
  H9       1.0000 0.79710  0.92130  0.79700  Biso   1.000  H
  O29      1.0000 0.87770  0.89335  0.98102  Biso   1.000  O
  O30      1.0000 0.05480  0.97720  0.88120  Biso   1.000  O
  O31      1.0000 0.01250  0.81548  0.85540  Biso   1.000  O
  Be5      1.0000 0.94380  0.91760  0.10320  Biso   1.000  Be
  O32      1.0000 0.68070  0.62880  0.83690  Biso   1.000  O
  O33      1.0000 0.61550  0.62610  0.63900  Biso   1.000  O
  O34      1.0000 0.88370  0.67670  0.73410  Biso   1.000  O
  P10      1.0000 0.72700  0.64330  0.73761  Biso   1.000  P
  H10      1.0000 0.83550  0.55800  0.73910  Biso   1.000  H
  O35      1.0000 0.81680  0.72260  0.72490  Biso   1.000  O
  P11      1.0000 0.44028  0.40256  0.88071  Biso   1.000  P
  H11      1.0000 0.29710  0.42130  0.79700  Biso   1.000  H
  O36      1.0000 0.37770  0.39335  0.98102  Biso   1.000  O
  O37      1.0000 0.55480  0.47720  0.88120  Biso   1.000  O
  O38      1.0000 0.51250  0.31548  0.85540  Biso   1.000  O
  Be6      1.0000 0.44380  0.41760  0.10320  Biso   1.000  Be
  O39      1.0000 0.18070  0.12880  0.83690  Biso   1.000  O
  O40      1.0000 0.11550  0.12610  0.63900  Biso   1.000  O
  O41      1.0000 0.38370  0.17670  0.73410  Biso   1.000  O
  P12      1.0000 0.22700  0.14330  0.73761  Biso   1.000  P
  H12      1.0000 0.33550  0.05800  0.73910  Biso   1.000  H
  O42      1.0000 0.31680  0.22260  0.72490  Biso   1.000  O
  P13      1.0000 0.05972  0.90256  0.61929  Biso   1.000  P
  H13      1.0000 0.20290  0.92130  0.70300  Biso   1.000  H
  O43      1.0000 0.12230  0.89335  0.51898  Biso   1.000  O
  O44      1.0000 0.94520  0.97720  0.61880  Biso   1.000  O
  O45      1.0000 0.98750  0.81548  0.64460  Biso   1.000  O
  Be7      1.0000 0.05620  0.91760  0.39680  Biso   1.000  Be
  O46      1.0000 0.31930  0.62880  0.66310  Biso   1.000  O
  O47      1.0000 0.38450  0.62610  0.86100  Biso   1.000  O
  O48      1.0000 0.11630  0.67670  0.76590  Biso   1.000  O
  P14      1.0000 0.27300  0.64330  0.76239  Biso   1.000  P
  H14      1.0000 0.16450  0.55800  0.76090  Biso   1.000  H
  O49      1.0000 0.18320  0.72260  0.77510  Biso   1.000  O
  P15      1.0000 0.55972  0.40256  0.61929  Biso   1.000  P
  H15      1.0000 0.70290  0.42130  0.70300  Biso   1.000  H
  O50      1.0000 0.62230  0.39335  0.51898  Biso   1.000  O
  O51      1.0000 0.44520  0.47720  0.61880  Biso   1.000  O
  O52      1.0000 0.48750  0.31548  0.64460  Biso   1.000  O
  Be8      1.0000 0.55620  0.41760  0.39680  Biso   1.000  Be
  O53      1.0000 0.81930  0.12880  0.66310  Biso   1.000  O
  O54      1.0000 0.88450  0.12610  0.86100  Biso   1.000  O
  O55      1.0000 0.61630  0.17670  0.76590  Biso   1.000  O
  P16      1.0000 0.77300  0.14330  0.76239  Biso   1.000  P
  H16      1.0000 0.66450  0.05800  0.76090  Biso   1.000  H
  O56      1.0000 0.68320  0.22260  0.77510  Biso   1.000  O
  Be9      1.0000 0.00000  0.24270  0.25000  Biso   1.000  Be
  Be10     1.0000 0.50000  0.74270  0.25000  Biso   1.000  Be
  Be11     1.0000 0.00000  0.75730  0.75000  Biso   1.000  Be
  Be12     1.0000 0.50000  0.25730  0.75000  Biso   1.000  Be
