data_image0
_cell_length_a       11.129
_cell_length_b       13.988
_cell_length_c       16.141
_cell_angle_alpha    82.895
_cell_angle_beta     88.392
_cell_angle_gamma    66.718

_symmetry_space_group_name_H-M    "P 1"
_symmetry_int_tables_number       1

loop_
  _symmetry_equiv_pos_as_xyz
  'x, y, z'

loop_
  _atom_site_label
  _atom_site_occupancy
  _atom_site_fract_x
  _atom_site_fract_y
  _atom_site_fract_z
  _atom_site_thermal_displace_type
  _atom_site_B_iso_or_equiv
  _atom_site_type_symbol
  Zn1      1.0000 0.98742  0.48622  0.76027  Biso   1.000  Zn
  Zn2      1.0000 0.22621  0.86977  0.08299  Biso   1.000  Zn
  C1       1.0000 0.22570  0.31200  0.68520  Biso   1.000  C
  H1       1.0000 0.24150  0.25890  0.72940  Biso   1.000  H
  C2       1.0000 0.29580  0.30430  0.61310  Biso   1.000  C
  H2       1.0000 0.36660  0.24590  0.59930  Biso   1.000  H
  C3       1.0000 0.13810  0.46370  0.60870  Biso   1.000  C
  C4       1.0000 0.04450  0.57060  0.58640  Biso   1.000  C
  C5       1.0000 0.03460  0.63440  0.51150  Biso   1.000  C
  H3       1.0000 0.09410  0.61050  0.46950  Biso   1.000  H
  C6       1.0000 0.93740  0.73200  0.50010  Biso   1.000  C
  H4       1.0000 0.93010  0.77490  0.45000  Biso   1.000  H
  C7       1.0000 0.84900  0.76790  0.56290  Biso   1.000  C
  H5       1.0000 0.78220  0.83450  0.55620  Biso   1.000  H
  C8       1.0000 0.86400  0.70100  0.63530  Biso   1.000  C
  H6       1.0000 0.80560  0.72400  0.67800  Biso   1.000  H
  C9       1.0000 0.29670  0.42100  0.48480  Biso   1.000  C
  H7       1.0000 0.22700  0.47150  0.44810  Biso   1.000  H
  H8       1.0000 0.33430  0.35690  0.45900  Biso   1.000  H
  C10      1.0000 0.40130  0.46350  0.49370  Biso   1.000  C
  C11      1.0000 0.38310  0.56190  0.46010  Biso   1.000  C
  H9       1.0000 0.30420  0.60490  0.43280  Biso   1.000  H
  C12      1.0000 0.51920  0.40060  0.53420  Biso   1.000  C
  H10      1.0000 0.53320  0.33280  0.55770  Biso   1.000  H
  C13      1.0000 0.40400  0.58430  0.95730  Biso   1.000  C
  H11      1.0000 0.33920  0.64190  0.92740  Biso   1.000  H
  C14      1.0000 0.53410  0.56780  0.94440  Biso   1.000  C
  H12      1.0000 0.55550  0.61450  0.90700  Biso   1.000  H
  C15      1.0000 0.36790  0.51830  0.01260  Biso   1.000  C
  C16      1.0000 0.22470  0.54190  0.02990  Biso   1.000  C
  H13      1.0000 0.21790  0.48090  0.06200  Biso   1.000  H
  H14      1.0000 0.19110  0.59940  0.06350  Biso   1.000  H
  C17      1.0000 0.08090  0.67150  0.91650  Biso   1.000  C
  H15      1.0000 0.08070  0.73140  0.93590  Biso   1.000  H
  C18      1.0000 0.02020  0.66760  0.84720  Biso   1.000  C
  H16      1.0000 0.97180  0.72520  0.80950  Biso   1.000  H
  C19      1.0000 0.11630  0.50700  0.90650  Biso   1.000  C
  C20      1.0000 0.14470  0.39460  0.92010  Biso   1.000  C
  C21      1.0000 0.23110  0.32030  0.97960  Biso   1.000  C
  H17      1.0000 0.28190  0.33930  0.01370  Biso   1.000  H
  C22      1.0000 0.24030  0.21950  0.98730  Biso   1.000  C
  H18      1.0000 0.29970  0.16910  0.02570  Biso   1.000  H
  C23      1.0000 0.16350  0.19160  0.93920  Biso   1.000  C
  H19      1.0000 0.16520  0.12410  0.94650  Biso   1.000  H
  C24      1.0000 0.08230  0.26830  0.87890  Biso   1.000  C
  H20      1.0000 0.03180  0.24990  0.84410  Biso   1.000  H
  C25      1.0000 0.23130  0.87990  0.90340  Biso   1.000  C
  C26      1.0000 0.96310  0.99830  0.83990  Biso   1.000  C
  C27      1.0000 0.26990  0.79170  0.77770  Biso   1.000  C
  H21      1.0000 0.35560  0.75710  0.79790  Biso   1.000  H
  C28      1.0000 0.18090  0.86300  0.82130  Biso   1.000  C
  C29      1.0000 0.05680  0.91510  0.79260  Biso   1.000  C
  C30      1.0000 0.02130  0.89570  0.71740  Biso   1.000  C
  H22      1.0000 0.93580  0.93260  0.69730  Biso   1.000  H
  C31      1.0000 0.10960  0.82240  0.67050  Biso   1.000  C
  H23      1.0000 0.08490  0.80990  0.61970  Biso   1.000  H
  C32      1.0000 0.23410  0.76960  0.70260  Biso   1.000  C
  C33      1.0000 0.40530  0.60250  0.70040  Biso   1.000  C
  C34      1.0000 0.53640  0.57910  0.70620  Biso   1.000  C
  H24      1.0000 0.56830  0.62940  0.68540  Biso   1.000  H
  C35      1.0000 0.62290  0.48120  0.74270  Biso   1.000  C
  C36      1.0000 0.76520  0.46050  0.74130  Biso   1.000  C
  C37      1.0000 0.57320  0.40700  0.77500  Biso   1.000  C
  C38      1.0000 0.65940  0.30190  0.82040  Biso   1.000  C
  C39      1.0000 0.43670  0.43580  0.76990  Biso   1.000  C
  H25      1.0000 0.40220  0.38800  0.79260  Biso   1.000  H
  C40      1.0000 0.35430  0.53100  0.73300  Biso   1.000  C
  H26      1.0000 0.26480  0.54780  0.72970  Biso   1.000  H
  N1       1.0000 0.24060  0.39920  0.56590  Biso   1.000  N
  N2       1.0000 0.13010  0.40940  0.68150  Biso   1.000  N
  N3       1.0000 0.95910  0.60390  0.64780  Biso   1.000  N
  N4       1.0000 0.04030  0.56610  0.84040  Biso   1.000  N
  N5       1.0000 0.14360  0.56950  0.95360  Biso   1.000  N
  N6       1.0000 0.07400  0.36610  0.86880  Biso   1.000  N
  O1       1.0000 0.18160  0.85810  0.96820  Biso   1.000  O
  O2       1.0000 0.35970  0.88000  0.90590  Biso   1.000  O
  O3       1.0000 0.25920  0.95040  0.89200  Biso   1.000  O
  O4       1.0000 0.99220  0.06250  0.86980  Biso   1.000  O
  O5       1.0000 0.87380  0.99960  0.86490  Biso   1.000  O
  O6       1.0000 0.75500  0.28650  0.85650  Biso   1.000  O
  O7       1.0000 0.61550  0.24240  0.85540  Biso   1.000  O
  O8       1.0000 0.64270  0.21680  0.77440  Biso   1.000  O
  O9       1.0000 0.84350  0.39030  0.70420  Biso   1.000  O
  O10      1.0000 0.79700  0.52510  0.77460  Biso   1.000  O
  O11      1.0000 0.32430  0.69900  0.65590  Biso   1.000  O
  Zn3      1.0000 0.01258  0.51378  0.23973  Biso   1.000  Zn
  Zn4      1.0000 0.77379  0.13023  0.91701  Biso   1.000  Zn
  C41      1.0000 0.77430  0.68800  0.31480  Biso   1.000  C
  H27      1.0000 0.75850  0.74110  0.27060  Biso   1.000  H
  C42      1.0000 0.70420  0.69570  0.38690  Biso   1.000  C
  H28      1.0000 0.63340  0.75410  0.40070  Biso   1.000  H
  C43      1.0000 0.86190  0.53630  0.39130  Biso   1.000  C
  C44      1.0000 0.95550  0.42940  0.41360  Biso   1.000  C
  C45      1.0000 0.96540  0.36560  0.48850  Biso   1.000  C
  H29      1.0000 0.90590  0.38950  0.53050  Biso   1.000  H
  C46      1.0000 0.06260  0.26800  0.49990  Biso   1.000  C
  H30      1.0000 0.06990  0.22510  0.55000  Biso   1.000  H
  C47      1.0000 0.15100  0.23210  0.43710  Biso   1.000  C
  H31      1.0000 0.21780  0.16550  0.44380  Biso   1.000  H
  C48      1.0000 0.13600  0.29900  0.36470  Biso   1.000  C
  H32      1.0000 0.19440  0.27600  0.32200  Biso   1.000  H
  C49      1.0000 0.70330  0.57900  0.51520  Biso   1.000  C
  H33      1.0000 0.77300  0.52850  0.55190  Biso   1.000  H
  H34      1.0000 0.66570  0.64310  0.54100  Biso   1.000  H
  C50      1.0000 0.59870  0.53650  0.50630  Biso   1.000  C
  C51      1.0000 0.61690  0.43810  0.53990  Biso   1.000  C
  H35      1.0000 0.69580  0.39510  0.56720  Biso   1.000  H
  C52      1.0000 0.48080  0.59940  0.46580  Biso   1.000  C
  H36      1.0000 0.46680  0.66720  0.44230  Biso   1.000  H
  C53      1.0000 0.59600  0.41570  0.04270  Biso   1.000  C
  H37      1.0000 0.66080  0.35810  0.07260  Biso   1.000  H
  C54      1.0000 0.46590  0.43220  0.05560  Biso   1.000  C
  H38      1.0000 0.44450  0.38550  0.09300  Biso   1.000  H
  C55      1.0000 0.63210  0.48170  0.98740  Biso   1.000  C
  C56      1.0000 0.77530  0.45810  0.97010  Biso   1.000  C
  H39      1.0000 0.78210  0.51910  0.93800  Biso   1.000  H
  H40      1.0000 0.80890  0.40060  0.93650  Biso   1.000  H
  C57      1.0000 0.91910  0.32850  0.08350  Biso   1.000  C
  H41      1.0000 0.91930  0.26860  0.06410  Biso   1.000  H
  C58      1.0000 0.97980  0.33240  0.15280  Biso   1.000  C
  H42      1.0000 0.02820  0.27480  0.19050  Biso   1.000  H
  C59      1.0000 0.88370  0.49300  0.09350  Biso   1.000  C
  C60      1.0000 0.85530  0.60540  0.07990  Biso   1.000  C
  C61      1.0000 0.76890  0.67970  0.02040  Biso   1.000  C
  H43      1.0000 0.71810  0.66070  0.98630  Biso   1.000  H
  C62      1.0000 0.75970  0.78050  0.01270  Biso   1.000  C
  H44      1.0000 0.70030  0.83090  0.97430  Biso   1.000  H
  C63      1.0000 0.83650  0.80840  0.06080  Biso   1.000  C
  H45      1.0000 0.83480  0.87590  0.05350  Biso   1.000  H
  C64      1.0000 0.91770  0.73170  0.12110  Biso   1.000  C
  H46      1.0000 0.96820  0.75010  0.15590  Biso   1.000  H
  C65      1.0000 0.76870  0.12010  0.09660  Biso   1.000  C
  C66      1.0000 0.03690  0.00170  0.16010  Biso   1.000  C
  C67      1.0000 0.73010  0.20830  0.22230  Biso   1.000  C
  H47      1.0000 0.64440  0.24290  0.20210  Biso   1.000  H
  C68      1.0000 0.81910  0.13700  0.17870  Biso   1.000  C
  C69      1.0000 0.94320  0.08490  0.20740  Biso   1.000  C
  C70      1.0000 0.97870  0.10430  0.28260  Biso   1.000  C
  H48      1.0000 0.06420  0.06740  0.30270  Biso   1.000  H
  C71      1.0000 0.89040  0.17760  0.32950  Biso   1.000  C
  H49      1.0000 0.91510  0.19010  0.38030  Biso   1.000  H
  C72      1.0000 0.76590  0.23040  0.29740  Biso   1.000  C
  C73      1.0000 0.59470  0.39750  0.29960  Biso   1.000  C
  C74      1.0000 0.46360  0.42090  0.29380  Biso   1.000  C
  H50      1.0000 0.43170  0.37060  0.31460  Biso   1.000  H
  C75      1.0000 0.37710  0.51880  0.25730  Biso   1.000  C
  C76      1.0000 0.23480  0.53950  0.25870  Biso   1.000  C
  C77      1.0000 0.42680  0.59300  0.22500  Biso   1.000  C
  C78      1.0000 0.34060  0.69810  0.17960  Biso   1.000  C
  C79      1.0000 0.56330  0.56420  0.23010  Biso   1.000  C
  H51      1.0000 0.59780  0.61200  0.20740  Biso   1.000  H
  C80      1.0000 0.64570  0.46900  0.26700  Biso   1.000  C
  H52      1.0000 0.73520  0.45220  0.27030  Biso   1.000  H
  N7       1.0000 0.75940  0.60080  0.43410  Biso   1.000  N
  N8       1.0000 0.86990  0.59060  0.31850  Biso   1.000  N
  N9       1.0000 0.04090  0.39610  0.35220  Biso   1.000  N
  N10      1.0000 0.95970  0.43390  0.15960  Biso   1.000  N
  N11      1.0000 0.85640  0.43050  0.04640  Biso   1.000  N
  N12      1.0000 0.92600  0.63390  0.13120  Biso   1.000  N
  O12      1.0000 0.81840  0.14190  0.03180  Biso   1.000  O
  O13      1.0000 0.64030  0.12000  0.09410  Biso   1.000  O
  O14      1.0000 0.74080  0.04960  0.10800  Biso   1.000  O
  O15      1.0000 0.00780  0.93750  0.13020  Biso   1.000  O
  O16      1.0000 0.12620  0.00040  0.13510  Biso   1.000  O
  O17      1.0000 0.24500  0.71350  0.14350  Biso   1.000  O
  O18      1.0000 0.38450  0.75760  0.14460  Biso   1.000  O
  O19      1.0000 0.35730  0.78320  0.22560  Biso   1.000  O
  O20      1.0000 0.15650  0.60970  0.29580  Biso   1.000  O
  O21      1.0000 0.20300  0.47490  0.22540  Biso   1.000  O
  O22      1.0000 0.67570  0.30100  0.34410  Biso   1.000  O
