data_image0
_cell_length_a       18.5944
_cell_length_b       18.5944
_cell_length_c       38.671
_cell_angle_alpha    90
_cell_angle_beta     90
_cell_angle_gamma    120

_symmetry_space_group_name_H-M    "P 1"
_symmetry_int_tables_number       1

loop_
  _symmetry_equiv_pos_as_xyz
  'x, y, z'

loop_
  _atom_site_label
  _atom_site_occupancy
  _atom_site_fract_x
  _atom_site_fract_y
  _atom_site_fract_z
  _atom_site_thermal_displace_type
  _atom_site_B_iso_or_equiv
  _atom_site_type_symbol
  F1       1.0000 0.29470  0.41160  0.78840  Biso   1.000  F
  C1       1.0000 0.18050  0.27170  0.82161  Biso   1.000  C
  H1       1.0000 0.19090  0.22890  0.81440  Biso   1.000  H
  C2       1.0000 0.22890  0.37010  0.81067  Biso   1.000  C
  C3       1.0000 0.06851  0.26567  0.74453  Biso   1.000  C
  H2       1.0000 0.02960  0.27670  0.75590  Biso   1.000  H
  C4       1.0000 0.05330  0.23537  0.71084  Biso   1.000  C
  C5       1.0000 0.97372  0.21449  0.69366  Biso   1.000  C
  O1       1.0000 0.96203  0.18460  0.66345  Biso   1.000  O
  O2       1.0000 0.92191  0.22528  0.71068  Biso   1.000  O
  F2       1.0000 0.96137  0.74493  0.12173  Biso   1.000  F
  C6       1.0000 0.84717  0.60503  0.15494  Biso   1.000  C
  H3       1.0000 0.85757  0.56223  0.14773  Biso   1.000  H
  C7       1.0000 0.89557  0.70343  0.14400  Biso   1.000  C
  C8       1.0000 0.73518  0.59900  0.07786  Biso   1.000  C
  H4       1.0000 0.69627  0.61003  0.08923  Biso   1.000  H
  C9       1.0000 0.71997  0.56870  0.04417  Biso   1.000  C
  C10      1.0000 0.64039  0.54782  0.02699  Biso   1.000  C
  O3       1.0000 0.62870  0.51793  0.99678  Biso   1.000  O
  O4       1.0000 0.58858  0.55861  0.04401  Biso   1.000  O
  F3       1.0000 0.62803  0.07827  0.45507  Biso   1.000  F
  C11      1.0000 0.51383  0.93837  0.48828  Biso   1.000  C
  H5       1.0000 0.52423  0.89557  0.48107  Biso   1.000  H
  C12      1.0000 0.56223  0.03677  0.47734  Biso   1.000  C
  C13      1.0000 0.40184  0.93234  0.41120  Biso   1.000  C
  H6       1.0000 0.36293  0.94337  0.42257  Biso   1.000  H
  C14      1.0000 0.38663  0.90204  0.37751  Biso   1.000  C
  C15      1.0000 0.30705  0.88116  0.36033  Biso   1.000  C
  O5       1.0000 0.29536  0.85127  0.33012  Biso   1.000  O
  O6       1.0000 0.25524  0.89195  0.37735  Biso   1.000  O
  F4       1.0000 0.58840  0.88310  0.78840  Biso   1.000  F
  C16      1.0000 0.72830  0.90880  0.82161  Biso   1.000  C
  H7       1.0000 0.77110  0.96200  0.81440  Biso   1.000  H
  C17      1.0000 0.62990  0.85880  0.81067  Biso   1.000  C
  C18      1.0000 0.73433  0.80284  0.74453  Biso   1.000  C
  H8       1.0000 0.72330  0.75290  0.75590  Biso   1.000  H
  C19      1.0000 0.76463  0.81793  0.71084  Biso   1.000  C
  C20      1.0000 0.78551  0.75923  0.69366  Biso   1.000  C
  O7       1.0000 0.81540  0.77743  0.66345  Biso   1.000  O
  O8       1.0000 0.77472  0.69663  0.71068  Biso   1.000  O
  F5       1.0000 0.25507  0.21643  0.12173  Biso   1.000  F
  C21      1.0000 0.39497  0.24213  0.15494  Biso   1.000  C
  H9       1.0000 0.43777  0.29533  0.14773  Biso   1.000  H
  C22      1.0000 0.29657  0.19213  0.14400  Biso   1.000  C
  C23      1.0000 0.40100  0.13617  0.07786  Biso   1.000  C
  H10      1.0000 0.38997  0.08623  0.08923  Biso   1.000  H
  C24      1.0000 0.43130  0.15126  0.04417  Biso   1.000  C
  C25      1.0000 0.45218  0.09256  0.02699  Biso   1.000  C
  O9       1.0000 0.48207  0.11076  0.99678  Biso   1.000  O
  O10      1.0000 0.44139  0.02996  0.04401  Biso   1.000  O
  F6       1.0000 0.92173  0.54977  0.45507  Biso   1.000  F
  C26      1.0000 0.06163  0.57547  0.48828  Biso   1.000  C
  H11      1.0000 0.10443  0.62867  0.48107  Biso   1.000  H
  C27      1.0000 0.96323  0.52547  0.47734  Biso   1.000  C
  C28      1.0000 0.06766  0.46951  0.41120  Biso   1.000  C
  H12      1.0000 0.05663  0.41957  0.42257  Biso   1.000  H
  C29      1.0000 0.09796  0.48460  0.37751  Biso   1.000  C
  C30      1.0000 0.11884  0.42590  0.36033  Biso   1.000  C
  O11      1.0000 0.14873  0.44410  0.33012  Biso   1.000  O
  O12      1.0000 0.10805  0.36330  0.37735  Biso   1.000  O
  F7       1.0000 0.11690  0.70530  0.78840  Biso   1.000  F
  C31      1.0000 0.09120  0.81950  0.82161  Biso   1.000  C
  H13      1.0000 0.03800  0.80910  0.81440  Biso   1.000  H
  C32      1.0000 0.14120  0.77110  0.81067  Biso   1.000  C
  C33      1.0000 0.19716  0.93149  0.74453  Biso   1.000  C
  H14      1.0000 0.24710  0.97040  0.75590  Biso   1.000  H
  C34      1.0000 0.18207  0.94670  0.71084  Biso   1.000  C
  C35      1.0000 0.24077  0.02628  0.69366  Biso   1.000  C
  O13      1.0000 0.22257  0.03797  0.66345  Biso   1.000  O
  O14      1.0000 0.30337  0.07809  0.71068  Biso   1.000  O
  F8       1.0000 0.78357  0.03863  0.12173  Biso   1.000  F
  C36      1.0000 0.75787  0.15283  0.15494  Biso   1.000  C
  H15      1.0000 0.70467  0.14243  0.14773  Biso   1.000  H
  C37      1.0000 0.80787  0.10443  0.14400  Biso   1.000  C
  C38      1.0000 0.86383  0.26482  0.07786  Biso   1.000  C
  H16      1.0000 0.91377  0.30373  0.08923  Biso   1.000  H
  C39      1.0000 0.84874  0.28003  0.04417  Biso   1.000  C
  C40      1.0000 0.90744  0.35961  0.02699  Biso   1.000  C
  O15      1.0000 0.88924  0.37130  0.99678  Biso   1.000  O
  O16      1.0000 0.97004  0.41142  0.04401  Biso   1.000  O
  F9       1.0000 0.45023  0.37197  0.45507  Biso   1.000  F
  C41      1.0000 0.42453  0.48617  0.48828  Biso   1.000  C
  H17      1.0000 0.37133  0.47577  0.48107  Biso   1.000  H
  C42      1.0000 0.47453  0.43777  0.47734  Biso   1.000  C
  C43      1.0000 0.53049  0.59816  0.41120  Biso   1.000  C
  H18      1.0000 0.58043  0.63707  0.42257  Biso   1.000  H
  C44      1.0000 0.51540  0.61337  0.37751  Biso   1.000  C
  C45      1.0000 0.57410  0.69295  0.36033  Biso   1.000  C
  O17      1.0000 0.55590  0.70464  0.33012  Biso   1.000  O
  O18      1.0000 0.63670  0.74476  0.37735  Biso   1.000  O
  F10      1.0000 0.41160  0.29470  0.21160  Biso   1.000  F
  C46      1.0000 0.27170  0.18050  0.17839  Biso   1.000  C
  H19      1.0000 0.22890  0.19090  0.18560  Biso   1.000  H
  C47      1.0000 0.37010  0.22890  0.18933  Biso   1.000  C
  C48      1.0000 0.26567  0.06851  0.25547  Biso   1.000  C
  H20      1.0000 0.27670  0.02960  0.24410  Biso   1.000  H
  C49      1.0000 0.23537  0.05330  0.28916  Biso   1.000  C
  C50      1.0000 0.21449  0.97372  0.30634  Biso   1.000  C
  O19      1.0000 0.18460  0.96203  0.33655  Biso   1.000  O
  O20      1.0000 0.22528  0.92191  0.28932  Biso   1.000  O
  F11      1.0000 0.07827  0.62803  0.54493  Biso   1.000  F
  C51      1.0000 0.93837  0.51383  0.51172  Biso   1.000  C
  H21      1.0000 0.89557  0.52423  0.51893  Biso   1.000  H
  C52      1.0000 0.03677  0.56223  0.52266  Biso   1.000  C
  C53      1.0000 0.93234  0.40184  0.58880  Biso   1.000  C
  H22      1.0000 0.94337  0.36293  0.57743  Biso   1.000  H
  C54      1.0000 0.90204  0.38663  0.62249  Biso   1.000  C
  C55      1.0000 0.88116  0.30705  0.63967  Biso   1.000  C
  O21      1.0000 0.85127  0.29536  0.66988  Biso   1.000  O
  O22      1.0000 0.89195  0.25524  0.62265  Biso   1.000  O
  F12      1.0000 0.74493  0.96137  0.87827  Biso   1.000  F
  C56      1.0000 0.60503  0.84717  0.84506  Biso   1.000  C
  H23      1.0000 0.56223  0.85757  0.85227  Biso   1.000  H
  C57      1.0000 0.70343  0.89557  0.85600  Biso   1.000  C
  C58      1.0000 0.59900  0.73518  0.92214  Biso   1.000  C
  H24      1.0000 0.61003  0.69627  0.91077  Biso   1.000  H
  C59      1.0000 0.56870  0.71997  0.95583  Biso   1.000  C
  C60      1.0000 0.54782  0.64039  0.97301  Biso   1.000  C
  O23      1.0000 0.51793  0.62870  0.00322  Biso   1.000  O
  O24      1.0000 0.55861  0.58858  0.95599  Biso   1.000  O
  F13      1.0000 0.88310  0.58840  0.21160  Biso   1.000  F
  C61      1.0000 0.90880  0.72830  0.17839  Biso   1.000  C
  H25      1.0000 0.96200  0.77110  0.18560  Biso   1.000  H
  C62      1.0000 0.85880  0.62990  0.18933  Biso   1.000  C
  C63      1.0000 0.80284  0.73433  0.25547  Biso   1.000  C
  H26      1.0000 0.75290  0.72330  0.24410  Biso   1.000  H
  C64      1.0000 0.81793  0.76463  0.28916  Biso   1.000  C
  C65      1.0000 0.75923  0.78551  0.30634  Biso   1.000  C
  O25      1.0000 0.77743  0.81540  0.33655  Biso   1.000  O
  O26      1.0000 0.69663  0.77472  0.28932  Biso   1.000  O
  F14      1.0000 0.54977  0.92173  0.54493  Biso   1.000  F
  C66      1.0000 0.57547  0.06163  0.51172  Biso   1.000  C
  H27      1.0000 0.62867  0.10443  0.51893  Biso   1.000  H
  C67      1.0000 0.52547  0.96323  0.52266  Biso   1.000  C
  C68      1.0000 0.46951  0.06766  0.58880  Biso   1.000  C
  H28      1.0000 0.41957  0.05663  0.57743  Biso   1.000  H
  C69      1.0000 0.48460  0.09796  0.62249  Biso   1.000  C
  C70      1.0000 0.42590  0.11884  0.63967  Biso   1.000  C
  O27      1.0000 0.44410  0.14873  0.66988  Biso   1.000  O
  O28      1.0000 0.36330  0.10805  0.62265  Biso   1.000  O
  F15      1.0000 0.21643  0.25507  0.87827  Biso   1.000  F
  C71      1.0000 0.24213  0.39497  0.84506  Biso   1.000  C
  H29      1.0000 0.29533  0.43777  0.85227  Biso   1.000  H
  C72      1.0000 0.19213  0.29657  0.85600  Biso   1.000  C
  C73      1.0000 0.13617  0.40100  0.92214  Biso   1.000  C
  H30      1.0000 0.08623  0.38997  0.91077  Biso   1.000  H
  C74      1.0000 0.15126  0.43130  0.95583  Biso   1.000  C
  C75      1.0000 0.09256  0.45218  0.97301  Biso   1.000  C
  O29      1.0000 0.11076  0.48207  0.00322  Biso   1.000  O
  O30      1.0000 0.02996  0.44139  0.95599  Biso   1.000  O
  F16      1.0000 0.70530  0.11690  0.21160  Biso   1.000  F
  C76      1.0000 0.81950  0.09120  0.17839  Biso   1.000  C
  H31      1.0000 0.80910  0.03800  0.18560  Biso   1.000  H
  C77      1.0000 0.77110  0.14120  0.18933  Biso   1.000  C
  C78      1.0000 0.93149  0.19716  0.25547  Biso   1.000  C
  H32      1.0000 0.97040  0.24710  0.24410  Biso   1.000  H
  C79      1.0000 0.94670  0.18207  0.28916  Biso   1.000  C
  C80      1.0000 0.02628  0.24077  0.30634  Biso   1.000  C
  O31      1.0000 0.03797  0.22257  0.33655  Biso   1.000  O
  O32      1.0000 0.07809  0.30337  0.28932  Biso   1.000  O
  F17      1.0000 0.37197  0.45023  0.54493  Biso   1.000  F
  C81      1.0000 0.48617  0.42453  0.51172  Biso   1.000  C
  H33      1.0000 0.47577  0.37133  0.51893  Biso   1.000  H
  C82      1.0000 0.43777  0.47453  0.52266  Biso   1.000  C
  C83      1.0000 0.59816  0.53049  0.58880  Biso   1.000  C
  H34      1.0000 0.63707  0.58043  0.57743  Biso   1.000  H
  C84      1.0000 0.61337  0.51540  0.62249  Biso   1.000  C
  C85      1.0000 0.69295  0.57410  0.63967  Biso   1.000  C
  O33      1.0000 0.70464  0.55590  0.66988  Biso   1.000  O
  O34      1.0000 0.74476  0.63670  0.62265  Biso   1.000  O
  F18      1.0000 0.03863  0.78357  0.87827  Biso   1.000  F
  C86      1.0000 0.15283  0.75787  0.84506  Biso   1.000  C
  H35      1.0000 0.14243  0.70467  0.85227  Biso   1.000  H
  C87      1.0000 0.10443  0.80787  0.85600  Biso   1.000  C
  C88      1.0000 0.26482  0.86383  0.92214  Biso   1.000  C
  H36      1.0000 0.30373  0.91377  0.91077  Biso   1.000  H
  C89      1.0000 0.28003  0.84874  0.95583  Biso   1.000  C
  C90      1.0000 0.35961  0.90744  0.97301  Biso   1.000  C
  O35      1.0000 0.37130  0.88924  0.00322  Biso   1.000  O
  O36      1.0000 0.41142  0.97004  0.95599  Biso   1.000  O
  F19      1.0000 0.70530  0.58840  0.21160  Biso   1.000  F
  C91      1.0000 0.81950  0.72830  0.17839  Biso   1.000  C
  H37      1.0000 0.80910  0.77110  0.18560  Biso   1.000  H
  C92      1.0000 0.77110  0.62990  0.18933  Biso   1.000  C
  C93      1.0000 0.93149  0.73433  0.25547  Biso   1.000  C
  H38      1.0000 0.97040  0.72330  0.24410  Biso   1.000  H
  C94      1.0000 0.94670  0.76463  0.28916  Biso   1.000  C
  C95      1.0000 0.02628  0.78551  0.30634  Biso   1.000  C
  O37      1.0000 0.03797  0.81540  0.33655  Biso   1.000  O
  O38      1.0000 0.07809  0.77472  0.28932  Biso   1.000  O
  F20      1.0000 0.37197  0.92173  0.54493  Biso   1.000  F
  C96      1.0000 0.48617  0.06163  0.51172  Biso   1.000  C
  H39      1.0000 0.47577  0.10443  0.51893  Biso   1.000  H
  C97      1.0000 0.43777  0.96323  0.52266  Biso   1.000  C
  C98      1.0000 0.59816  0.06766  0.58880  Biso   1.000  C
  H40      1.0000 0.63707  0.05663  0.57743  Biso   1.000  H
  C99      1.0000 0.61337  0.09796  0.62249  Biso   1.000  C
  C100     1.0000 0.69295  0.11884  0.63967  Biso   1.000  C
  O39      1.0000 0.70464  0.14873  0.66988  Biso   1.000  O
  O40      1.0000 0.74476  0.10805  0.62265  Biso   1.000  O
  F21      1.0000 0.03863  0.25507  0.87827  Biso   1.000  F
  C101     1.0000 0.15283  0.39497  0.84506  Biso   1.000  C
  H41      1.0000 0.14243  0.43777  0.85227  Biso   1.000  H
  C102     1.0000 0.10443  0.29657  0.85600  Biso   1.000  C
  C103     1.0000 0.26482  0.40100  0.92214  Biso   1.000  C
  H42      1.0000 0.30373  0.38997  0.91077  Biso   1.000  H
  C104     1.0000 0.28003  0.43130  0.95583  Biso   1.000  C
  C105     1.0000 0.35961  0.45218  0.97301  Biso   1.000  C
  O41      1.0000 0.37130  0.48207  0.00322  Biso   1.000  O
  O42      1.0000 0.41142  0.44139  0.95599  Biso   1.000  O
  F22      1.0000 0.41160  0.11690  0.21160  Biso   1.000  F
  C106     1.0000 0.27170  0.09120  0.17839  Biso   1.000  C
  H43      1.0000 0.22890  0.03800  0.18560  Biso   1.000  H
  C107     1.0000 0.37010  0.14120  0.18933  Biso   1.000  C
  C108     1.0000 0.26567  0.19716  0.25547  Biso   1.000  C
  H44      1.0000 0.27670  0.24710  0.24410  Biso   1.000  H
  C109     1.0000 0.23537  0.18207  0.28916  Biso   1.000  C
  C110     1.0000 0.21449  0.24077  0.30634  Biso   1.000  C
  O43      1.0000 0.18460  0.22257  0.33655  Biso   1.000  O
  O44      1.0000 0.22528  0.30337  0.28932  Biso   1.000  O
  F23      1.0000 0.07827  0.45023  0.54493  Biso   1.000  F
  C111     1.0000 0.93837  0.42453  0.51172  Biso   1.000  C
  H45      1.0000 0.89557  0.37133  0.51893  Biso   1.000  H
  C112     1.0000 0.03677  0.47453  0.52266  Biso   1.000  C
  C113     1.0000 0.93234  0.53049  0.58880  Biso   1.000  C
  H46      1.0000 0.94337  0.58043  0.57743  Biso   1.000  H
  C114     1.0000 0.90204  0.51540  0.62249  Biso   1.000  C
  C115     1.0000 0.88116  0.57410  0.63967  Biso   1.000  C
  O45      1.0000 0.85127  0.55590  0.66988  Biso   1.000  O
  O46      1.0000 0.89195  0.63670  0.62265  Biso   1.000  O
  F24      1.0000 0.74493  0.78357  0.87827  Biso   1.000  F
  C116     1.0000 0.60503  0.75787  0.84506  Biso   1.000  C
  H47      1.0000 0.56223  0.70467  0.85227  Biso   1.000  H
  C117     1.0000 0.70343  0.80787  0.85600  Biso   1.000  C
  C118     1.0000 0.59900  0.86383  0.92214  Biso   1.000  C
  H48      1.0000 0.61003  0.91377  0.91077  Biso   1.000  H
  C119     1.0000 0.56870  0.84874  0.95583  Biso   1.000  C
  C120     1.0000 0.54782  0.90744  0.97301  Biso   1.000  C
  O47      1.0000 0.51793  0.88924  0.00322  Biso   1.000  O
  O48      1.0000 0.55861  0.97004  0.95599  Biso   1.000  O
  F25      1.0000 0.88310  0.29470  0.21160  Biso   1.000  F
  C121     1.0000 0.90880  0.18050  0.17839  Biso   1.000  C
  H49      1.0000 0.96200  0.19090  0.18560  Biso   1.000  H
  C122     1.0000 0.85880  0.22890  0.18933  Biso   1.000  C
  C123     1.0000 0.80284  0.06851  0.25547  Biso   1.000  C
  H50      1.0000 0.75290  0.02960  0.24410  Biso   1.000  H
  C124     1.0000 0.81793  0.05330  0.28916  Biso   1.000  C
  C125     1.0000 0.75923  0.97372  0.30634  Biso   1.000  C
  O49      1.0000 0.77743  0.96203  0.33655  Biso   1.000  O
  O50      1.0000 0.69663  0.92191  0.28932  Biso   1.000  O
  F26      1.0000 0.54977  0.62803  0.54493  Biso   1.000  F
  C126     1.0000 0.57547  0.51383  0.51172  Biso   1.000  C
  H51      1.0000 0.62867  0.52423  0.51893  Biso   1.000  H
  C127     1.0000 0.52547  0.56223  0.52266  Biso   1.000  C
  C128     1.0000 0.46951  0.40184  0.58880  Biso   1.000  C
  H52      1.0000 0.41957  0.36293  0.57743  Biso   1.000  H
  C129     1.0000 0.48460  0.38663  0.62249  Biso   1.000  C
  C130     1.0000 0.42590  0.30705  0.63967  Biso   1.000  C
  O51      1.0000 0.44410  0.29536  0.66988  Biso   1.000  O
  O52      1.0000 0.36330  0.25524  0.62265  Biso   1.000  O
  F27      1.0000 0.21643  0.96137  0.87827  Biso   1.000  F
  C131     1.0000 0.24213  0.84717  0.84506  Biso   1.000  C
  H53      1.0000 0.29533  0.85757  0.85227  Biso   1.000  H
  C132     1.0000 0.19213  0.89557  0.85600  Biso   1.000  C
  C133     1.0000 0.13617  0.73518  0.92214  Biso   1.000  C
  H54      1.0000 0.08623  0.69627  0.91077  Biso   1.000  H
  C134     1.0000 0.15126  0.71997  0.95583  Biso   1.000  C
  C135     1.0000 0.09256  0.64039  0.97301  Biso   1.000  C
  O53      1.0000 0.11076  0.62870  0.00322  Biso   1.000  O
  O54      1.0000 0.02996  0.58858  0.95599  Biso   1.000  O
  F28      1.0000 0.58840  0.70530  0.78840  Biso   1.000  F
  C136     1.0000 0.72830  0.81950  0.82161  Biso   1.000  C
  H55      1.0000 0.77110  0.80910  0.81440  Biso   1.000  H
  C137     1.0000 0.62990  0.77110  0.81067  Biso   1.000  C
  C138     1.0000 0.73433  0.93149  0.74453  Biso   1.000  C
  H56      1.0000 0.72330  0.97040  0.75590  Biso   1.000  H
  C139     1.0000 0.76463  0.94670  0.71084  Biso   1.000  C
  C140     1.0000 0.78551  0.02628  0.69366  Biso   1.000  C
  O55      1.0000 0.81540  0.03797  0.66345  Biso   1.000  O
  O56      1.0000 0.77472  0.07809  0.71068  Biso   1.000  O
  F29      1.0000 0.25507  0.03863  0.12173  Biso   1.000  F
  C141     1.0000 0.39497  0.15283  0.15494  Biso   1.000  C
  H57      1.0000 0.43777  0.14243  0.14773  Biso   1.000  H
  C142     1.0000 0.29657  0.10443  0.14400  Biso   1.000  C
  C143     1.0000 0.40100  0.26482  0.07786  Biso   1.000  C
  H58      1.0000 0.38997  0.30373  0.08923  Biso   1.000  H
  C144     1.0000 0.43130  0.28003  0.04417  Biso   1.000  C
  C145     1.0000 0.45218  0.35961  0.02699  Biso   1.000  C
  O57      1.0000 0.48207  0.37130  0.99678  Biso   1.000  O
  O58      1.0000 0.44139  0.41142  0.04401  Biso   1.000  O
  F30      1.0000 0.92173  0.37197  0.45507  Biso   1.000  F
  C146     1.0000 0.06163  0.48617  0.48828  Biso   1.000  C
  H59      1.0000 0.10443  0.47577  0.48107  Biso   1.000  H
  C147     1.0000 0.96323  0.43777  0.47734  Biso   1.000  C
  C148     1.0000 0.06766  0.59816  0.41120  Biso   1.000  C
  H60      1.0000 0.05663  0.63707  0.42257  Biso   1.000  H
  C149     1.0000 0.09796  0.61337  0.37751  Biso   1.000  C
  C150     1.0000 0.11884  0.69295  0.36033  Biso   1.000  C
  O59      1.0000 0.14873  0.70464  0.33012  Biso   1.000  O
  O60      1.0000 0.10805  0.74476  0.37735  Biso   1.000  O
  F31      1.0000 0.11690  0.41160  0.78840  Biso   1.000  F
  C151     1.0000 0.09120  0.27170  0.82161  Biso   1.000  C
  H61      1.0000 0.03800  0.22890  0.81440  Biso   1.000  H
  C152     1.0000 0.14120  0.37010  0.81067  Biso   1.000  C
  C153     1.0000 0.19716  0.26567  0.74453  Biso   1.000  C
  H62      1.0000 0.24710  0.27670  0.75590  Biso   1.000  H
  C154     1.0000 0.18207  0.23537  0.71084  Biso   1.000  C
  C155     1.0000 0.24077  0.21449  0.69366  Biso   1.000  C
  O61      1.0000 0.22257  0.18460  0.66345  Biso   1.000  O
  O62      1.0000 0.30337  0.22528  0.71068  Biso   1.000  O
  F32      1.0000 0.78357  0.74493  0.12173  Biso   1.000  F
  C156     1.0000 0.75787  0.60503  0.15494  Biso   1.000  C
  H63      1.0000 0.70467  0.56223  0.14773  Biso   1.000  H
  C157     1.0000 0.80787  0.70343  0.14400  Biso   1.000  C
  C158     1.0000 0.86383  0.59900  0.07786  Biso   1.000  C
  H64      1.0000 0.91377  0.61003  0.08923  Biso   1.000  H
  C159     1.0000 0.84874  0.56870  0.04417  Biso   1.000  C
  C160     1.0000 0.90744  0.54782  0.02699  Biso   1.000  C
  O63      1.0000 0.88924  0.51793  0.99678  Biso   1.000  O
  O64      1.0000 0.97004  0.55861  0.04401  Biso   1.000  O
  F33      1.0000 0.45023  0.07827  0.45507  Biso   1.000  F
  C161     1.0000 0.42453  0.93837  0.48828  Biso   1.000  C
  H65      1.0000 0.37133  0.89557  0.48107  Biso   1.000  H
  C162     1.0000 0.47453  0.03677  0.47734  Biso   1.000  C
  C163     1.0000 0.53049  0.93234  0.41120  Biso   1.000  C
  H66      1.0000 0.58043  0.94337  0.42257  Biso   1.000  H
  C164     1.0000 0.51540  0.90204  0.37751  Biso   1.000  C
  C165     1.0000 0.57410  0.88116  0.36033  Biso   1.000  C
  O65      1.0000 0.55590  0.85127  0.33012  Biso   1.000  O
  O66      1.0000 0.63670  0.89195  0.37735  Biso   1.000  O
  F34      1.0000 0.29470  0.88310  0.78840  Biso   1.000  F
  C166     1.0000 0.18050  0.90880  0.82161  Biso   1.000  C
  H67      1.0000 0.19090  0.96200  0.81440  Biso   1.000  H
  C167     1.0000 0.22890  0.85880  0.81067  Biso   1.000  C
  C168     1.0000 0.06851  0.80284  0.74453  Biso   1.000  C
  H68      1.0000 0.02960  0.75290  0.75590  Biso   1.000  H
  C169     1.0000 0.05330  0.81793  0.71084  Biso   1.000  C
  C170     1.0000 0.97372  0.75923  0.69366  Biso   1.000  C
  O67      1.0000 0.96203  0.77743  0.66345  Biso   1.000  O
  O68      1.0000 0.92191  0.69663  0.71068  Biso   1.000  O
  F35      1.0000 0.96137  0.21643  0.12173  Biso   1.000  F
  C171     1.0000 0.84717  0.24213  0.15494  Biso   1.000  C
  H69      1.0000 0.85757  0.29533  0.14773  Biso   1.000  H
  C172     1.0000 0.89557  0.19213  0.14400  Biso   1.000  C
  C173     1.0000 0.73518  0.13617  0.07786  Biso   1.000  C
  H70      1.0000 0.69627  0.08623  0.08923  Biso   1.000  H
  C174     1.0000 0.71997  0.15126  0.04417  Biso   1.000  C
  C175     1.0000 0.64039  0.09256  0.02699  Biso   1.000  C
  O69      1.0000 0.62870  0.11076  0.99678  Biso   1.000  O
  O70      1.0000 0.58858  0.02996  0.04401  Biso   1.000  O
  F36      1.0000 0.62803  0.54977  0.45507  Biso   1.000  F
  C176     1.0000 0.51383  0.57547  0.48828  Biso   1.000  C
  H71      1.0000 0.52423  0.62867  0.48107  Biso   1.000  H
  C177     1.0000 0.56223  0.52547  0.47734  Biso   1.000  C
  C178     1.0000 0.40184  0.46951  0.41120  Biso   1.000  C
  H72      1.0000 0.36293  0.41957  0.42257  Biso   1.000  H
  C179     1.0000 0.38663  0.48460  0.37751  Biso   1.000  C
  C180     1.0000 0.30705  0.42590  0.36033  Biso   1.000  C
  O71      1.0000 0.29536  0.44410  0.33012  Biso   1.000  O
  O72      1.0000 0.25524  0.36330  0.37735  Biso   1.000  O
  Cu1      1.0000 0.85715  0.14285  0.63857  Biso   1.000  Cu
  Cu2      1.0000 0.52382  0.47618  0.97191  Biso   1.000  Cu
  Cu3      1.0000 0.19048  0.80952  0.30524  Biso   1.000  Cu
  Cu4      1.0000 0.85715  0.71430  0.63857  Biso   1.000  Cu
  Cu5      1.0000 0.52382  0.04763  0.97191  Biso   1.000  Cu
  Cu6      1.0000 0.19048  0.38097  0.30524  Biso   1.000  Cu
  Cu7      1.0000 0.28570  0.14285  0.63857  Biso   1.000  Cu
  Cu8      1.0000 0.95237  0.47618  0.97191  Biso   1.000  Cu
  Cu9      1.0000 0.61903  0.80952  0.30524  Biso   1.000  Cu
  Cu10     1.0000 0.14285  0.85715  0.36143  Biso   1.000  Cu
  Cu11     1.0000 0.80952  0.19048  0.69476  Biso   1.000  Cu
  Cu12     1.0000 0.47618  0.52382  0.02809  Biso   1.000  Cu
  Cu13     1.0000 0.71430  0.85715  0.36143  Biso   1.000  Cu
  Cu14     1.0000 0.38097  0.19048  0.69476  Biso   1.000  Cu
  Cu15     1.0000 0.04763  0.52382  0.02809  Biso   1.000  Cu
  Cu16     1.0000 0.14285  0.28570  0.36143  Biso   1.000  Cu
  Cu17     1.0000 0.80952  0.61903  0.69476  Biso   1.000  Cu
  Cu18     1.0000 0.47618  0.95237  0.02809  Biso   1.000  Cu
  C181     1.0000 0.15425  0.30850  0.79829  Biso   1.000  C
  C182     1.0000 0.13995  0.27990  0.76170  Biso   1.000  C
  C183     1.0000 0.11045  0.22090  0.69388  Biso   1.000  C
  H73      1.0000 0.10060  0.20120  0.67080  Biso   1.000  H
  C184     1.0000 0.82092  0.64183  0.13162  Biso   1.000  C
  C185     1.0000 0.80662  0.61323  0.09503  Biso   1.000  C
  C186     1.0000 0.77712  0.55423  0.02721  Biso   1.000  C
  H74      1.0000 0.76727  0.53453  0.00413  Biso   1.000  H
  C187     1.0000 0.48758  0.97517  0.46496  Biso   1.000  C
  C188     1.0000 0.47328  0.94657  0.42837  Biso   1.000  C
  C189     1.0000 0.44378  0.88757  0.36055  Biso   1.000  C
  H75      1.0000 0.43393  0.86787  0.33747  Biso   1.000  H
  C190     1.0000 0.69150  0.84575  0.79829  Biso   1.000  C
  C191     1.0000 0.72010  0.86005  0.76170  Biso   1.000  C
  C192     1.0000 0.77910  0.88955  0.69388  Biso   1.000  C
  H76      1.0000 0.79880  0.89940  0.67080  Biso   1.000  H
  C193     1.0000 0.35817  0.17908  0.13162  Biso   1.000  C
  C194     1.0000 0.38677  0.19338  0.09503  Biso   1.000  C
  C195     1.0000 0.44577  0.22288  0.02721  Biso   1.000  C
  H77      1.0000 0.46547  0.23273  0.00413  Biso   1.000  H
  C196     1.0000 0.02483  0.51242  0.46496  Biso   1.000  C
  C197     1.0000 0.05343  0.52672  0.42837  Biso   1.000  C
  C198     1.0000 0.11243  0.55622  0.36055  Biso   1.000  C
  H78      1.0000 0.13213  0.56607  0.33747  Biso   1.000  H
  C199     1.0000 0.15425  0.84575  0.79829  Biso   1.000  C
  C200     1.0000 0.13995  0.86005  0.76170  Biso   1.000  C
  C201     1.0000 0.11045  0.88955  0.69388  Biso   1.000  C
  H79      1.0000 0.10060  0.89940  0.67080  Biso   1.000  H
  C202     1.0000 0.82092  0.17908  0.13162  Biso   1.000  C
  C203     1.0000 0.80662  0.19338  0.09503  Biso   1.000  C
  C204     1.0000 0.77712  0.22288  0.02721  Biso   1.000  C
  H80      1.0000 0.76727  0.23273  0.00413  Biso   1.000  H
  C205     1.0000 0.48758  0.51242  0.46496  Biso   1.000  C
  C206     1.0000 0.47328  0.52672  0.42837  Biso   1.000  C
  C207     1.0000 0.44378  0.55622  0.36055  Biso   1.000  C
  H81      1.0000 0.43393  0.56607  0.33747  Biso   1.000  H
  C208     1.0000 0.30850  0.15425  0.20171  Biso   1.000  C
  C209     1.0000 0.27990  0.13995  0.23830  Biso   1.000  C
  C210     1.0000 0.22090  0.11045  0.30612  Biso   1.000  C
  H82      1.0000 0.20120  0.10060  0.32920  Biso   1.000  H
  C211     1.0000 0.97517  0.48758  0.53504  Biso   1.000  C
  C212     1.0000 0.94657  0.47328  0.57163  Biso   1.000  C
  C213     1.0000 0.88757  0.44378  0.63945  Biso   1.000  C
  H83      1.0000 0.86787  0.43393  0.66253  Biso   1.000  H
  C214     1.0000 0.64183  0.82092  0.86838  Biso   1.000  C
  C215     1.0000 0.61323  0.80662  0.90497  Biso   1.000  C
  C216     1.0000 0.55423  0.77712  0.97279  Biso   1.000  C
  H84      1.0000 0.53453  0.76727  0.99587  Biso   1.000  H
  C217     1.0000 0.84575  0.69150  0.20171  Biso   1.000  C
  C218     1.0000 0.86005  0.72010  0.23830  Biso   1.000  C
  C219     1.0000 0.88955  0.77910  0.30612  Biso   1.000  C
  H85      1.0000 0.89940  0.79880  0.32920  Biso   1.000  H
  C220     1.0000 0.51242  0.02483  0.53504  Biso   1.000  C
  C221     1.0000 0.52672  0.05343  0.57163  Biso   1.000  C
  C222     1.0000 0.55622  0.11243  0.63945  Biso   1.000  C
  H86      1.0000 0.56607  0.13213  0.66253  Biso   1.000  H
  C223     1.0000 0.17908  0.35817  0.86838  Biso   1.000  C
  C224     1.0000 0.19338  0.38677  0.90497  Biso   1.000  C
  C225     1.0000 0.22288  0.44577  0.97279  Biso   1.000  C
  H87      1.0000 0.23273  0.46547  0.99587  Biso   1.000  H
  C226     1.0000 0.84575  0.15425  0.20171  Biso   1.000  C
  C227     1.0000 0.86005  0.13995  0.23830  Biso   1.000  C
  C228     1.0000 0.88955  0.11045  0.30612  Biso   1.000  C
  H88      1.0000 0.89940  0.10060  0.32920  Biso   1.000  H
  C229     1.0000 0.51242  0.48758  0.53504  Biso   1.000  C
  C230     1.0000 0.52672  0.47328  0.57163  Biso   1.000  C
  C231     1.0000 0.55622  0.44378  0.63945  Biso   1.000  C
  H89      1.0000 0.56607  0.43393  0.66253  Biso   1.000  H
  C232     1.0000 0.17908  0.82092  0.86838  Biso   1.000  C
  C233     1.0000 0.19338  0.80662  0.90497  Biso   1.000  C
  C234     1.0000 0.22288  0.77712  0.97279  Biso   1.000  C
  H90      1.0000 0.23273  0.76727  0.99587  Biso   1.000  H
