data_image0
_cell_length_a       8.8383
_cell_length_b       18.4543
_cell_length_c       18.0608
_cell_angle_alpha    90
_cell_angle_beta     92.572
_cell_angle_gamma    90

_symmetry_space_group_name_H-M    "P 1"
_symmetry_int_tables_number       1

loop_
  _symmetry_equiv_pos_as_xyz
  'x, y, z'

loop_
  _atom_site_label
  _atom_site_occupancy
  _atom_site_fract_x
  _atom_site_fract_y
  _atom_site_fract_z
  _atom_site_thermal_displace_type
  _atom_site_B_iso_or_equiv
  _atom_site_type_symbol
  Dy1      1.0000 0.26379  0.31496  0.15925  Biso   1.000  Dy
  Dy2      1.0000 0.29013  0.20404  0.70841  Biso   1.000  Dy
  O1       1.0000 0.14160  0.23620  0.07520  Biso   1.000  O
  O2       1.0000 0.90920  0.23600  0.11960  Biso   1.000  O
  O3       1.0000 0.02260  0.19280  0.94040  Biso   1.000  O
  O4       1.0000 0.90800  0.13920  0.75710  Biso   1.000  O
  O5       1.0000 0.12770  0.18610  0.80190  Biso   1.000  O
  O6       1.0000 0.95610  0.63120  0.78250  Biso   1.000  O
  O7       1.0000 0.17690  0.57780  0.77320  Biso   1.000  O
  O8       1.0000 0.05000  0.45020  0.73140  Biso   1.000  O
  O9       1.0000 0.94090  0.27540  0.66680  Biso   1.000  O
  O10      1.0000 0.16560  0.31650  0.71090  Biso   1.000  O
  O11      1.0000 0.14700  0.15580  0.61550  Biso   1.000  O
  O12      1.0000 0.92110  0.17150  0.55730  Biso   1.000  O
  O13      1.0000 0.05270  0.19620  0.42820  Biso   1.000  O
  O14      1.0000 0.94670  0.23650  0.29180  Biso   1.000  O
  O15      1.0000 0.18080  0.23640  0.24980  Biso   1.000  O
  O16      1.0000 0.28100  0.44390  0.13450  Biso   1.000  O
  O17      1.0000 0.11430  0.38610  0.06810  Biso   1.000  O
  C1       1.0000 0.00330  0.22350  0.07080  Biso   1.000  C
  C2       1.0000 0.93610  0.19170  0.00020  Biso   1.000  C
  C3       1.0000 0.80110  0.15860  0.98370  Biso   1.000  C
  H1       1.0000 0.72390  0.14990  0.01590  Biso   1.000  H
  C4       1.0000 0.80200  0.14040  0.90880  Biso   1.000  C
  H2       1.0000 0.72460  0.11770  0.88100  Biso   1.000  H
  C5       1.0000 0.93640  0.16210  0.88450  Biso   1.000  C
  C6       1.0000 0.99580  0.16320  0.80840  Biso   1.000  C
  C7       1.0000 0.03390  0.57640  0.76680  Biso   1.000  C
  C8       1.0000 0.95700  0.51050  0.74020  Biso   1.000  C
  C9       1.0000 0.81150  0.49230  0.72060  Biso   1.000  C
  H3       1.0000 0.72720  0.52240  0.72210  Biso   1.000  H
  C10      1.0000 0.81290  0.41850  0.69730  Biso   1.000  C
  H4       1.0000 0.73000  0.39140  0.67990  Biso   1.000  H
  C11      1.0000 0.95770  0.39550  0.70550  Biso   1.000  C
  C12      1.0000 0.02600  0.32390  0.69350  Biso   1.000  C
  C13      1.0000 0.06190  0.16560  0.55820  Biso   1.000  C
  C14      1.0000 0.13800  0.16940  0.48710  Biso   1.000  C
  C15      1.0000 0.27940  0.15150  0.46740  Biso   1.000  C
  H5       1.0000 0.35730  0.13230  0.49770  Biso   1.000  H
  C16      1.0000 0.28370  0.16860  0.39010  Biso   1.000  C
  H6       1.0000 0.36530  0.16170  0.36000  Biso   1.000  H
  C17      1.0000 0.14760  0.19640  0.36910  Biso   1.000  C
  C18      1.0000 0.08690  0.22500  0.29820  Biso   1.000  C
  O18      1.0000 0.08200  0.50110  0.07700  Biso   1.000  O
  N1       1.0000 0.14900  0.44580  0.09210  Biso   1.000  N
  O19      1.0000 0.19400  0.49730  0.03330  Biso   1.000  O
  N2       1.0000 0.21300  0.44110  0.07410  Biso   1.000  N
  Dy3      1.0000 0.23621  0.81496  0.34075  Biso   1.000  Dy
  Dy4      1.0000 0.20987  0.70404  0.79159  Biso   1.000  Dy
  O20      1.0000 0.35840  0.73620  0.42480  Biso   1.000  O
  O21      1.0000 0.59080  0.73600  0.38040  Biso   1.000  O
  O22      1.0000 0.47740  0.69280  0.55960  Biso   1.000  O
  O23      1.0000 0.59200  0.63920  0.74290  Biso   1.000  O
  O24      1.0000 0.37230  0.68610  0.69810  Biso   1.000  O
  O25      1.0000 0.54390  0.13120  0.71750  Biso   1.000  O
  O26      1.0000 0.32310  0.07780  0.72680  Biso   1.000  O
  O27      1.0000 0.45000  0.95020  0.76860  Biso   1.000  O
  O28      1.0000 0.55910  0.77540  0.83320  Biso   1.000  O
  O29      1.0000 0.33440  0.81650  0.78910  Biso   1.000  O
  O30      1.0000 0.35300  0.65580  0.88450  Biso   1.000  O
  O31      1.0000 0.57890  0.67150  0.94270  Biso   1.000  O
  O32      1.0000 0.44730  0.69620  0.07180  Biso   1.000  O
  O33      1.0000 0.55330  0.73650  0.20820  Biso   1.000  O
  O34      1.0000 0.31920  0.73640  0.25020  Biso   1.000  O
  O35      1.0000 0.21900  0.94390  0.36550  Biso   1.000  O
  O36      1.0000 0.38570  0.88610  0.43190  Biso   1.000  O
  C19      1.0000 0.49670  0.72350  0.42920  Biso   1.000  C
  C20      1.0000 0.56390  0.69170  0.49980  Biso   1.000  C
  C21      1.0000 0.69890  0.65860  0.51630  Biso   1.000  C
  H7       1.0000 0.77610  0.64990  0.48410  Biso   1.000  H
  C22      1.0000 0.69800  0.64040  0.59120  Biso   1.000  C
  H8       1.0000 0.77540  0.61770  0.61900  Biso   1.000  H
  C23      1.0000 0.56360  0.66210  0.61550  Biso   1.000  C
  C24      1.0000 0.50420  0.66320  0.69160  Biso   1.000  C
  C25      1.0000 0.46610  0.07640  0.73320  Biso   1.000  C
  C26      1.0000 0.54300  0.01050  0.75980  Biso   1.000  C
  C27      1.0000 0.68850  0.99230  0.77940  Biso   1.000  C
  H9       1.0000 0.77280  0.02240  0.77790  Biso   1.000  H
  C28      1.0000 0.68710  0.91850  0.80270  Biso   1.000  C
  H10      1.0000 0.77000  0.89140  0.82010  Biso   1.000  H
  C29      1.0000 0.54230  0.89550  0.79450  Biso   1.000  C
  C30      1.0000 0.47400  0.82390  0.80650  Biso   1.000  C
  C31      1.0000 0.43810  0.66560  0.94180  Biso   1.000  C
  C32      1.0000 0.36200  0.66940  0.01290  Biso   1.000  C
  C33      1.0000 0.22060  0.65150  0.03260  Biso   1.000  C
  H11      1.0000 0.14270  0.63230  0.00230  Biso   1.000  H
  C34      1.0000 0.21630  0.66860  0.10990  Biso   1.000  C
  H12      1.0000 0.13470  0.66170  0.14000  Biso   1.000  H
  C35      1.0000 0.35240  0.69640  0.13090  Biso   1.000  C
  C36      1.0000 0.41310  0.72500  0.20180  Biso   1.000  C
  O37      1.0000 0.41800  0.00110  0.42300  Biso   1.000  O
  N3       1.0000 0.35100  0.94580  0.40790  Biso   1.000  N
  O38      1.0000 0.30600  0.99730  0.46670  Biso   1.000  O
  N4       1.0000 0.28700  0.94110  0.42590  Biso   1.000  N
  Dy5      1.0000 0.73621  0.68504  0.84075  Biso   1.000  Dy
  Dy6      1.0000 0.70987  0.79596  0.29159  Biso   1.000  Dy
  O39      1.0000 0.85840  0.76380  0.92480  Biso   1.000  O
  O40      1.0000 0.09080  0.76400  0.88040  Biso   1.000  O
  O41      1.0000 0.97740  0.80720  0.05960  Biso   1.000  O
  O42      1.0000 0.09200  0.86080  0.24290  Biso   1.000  O
  O43      1.0000 0.87230  0.81390  0.19810  Biso   1.000  O
  O44      1.0000 0.04390  0.36880  0.21750  Biso   1.000  O
  O45      1.0000 0.82310  0.42220  0.22680  Biso   1.000  O
  O46      1.0000 0.95000  0.54980  0.26860  Biso   1.000  O
  O47      1.0000 0.05910  0.72460  0.33320  Biso   1.000  O
  O48      1.0000 0.83440  0.68350  0.28910  Biso   1.000  O
  O49      1.0000 0.85300  0.84420  0.38450  Biso   1.000  O
  O50      1.0000 0.07890  0.82850  0.44270  Biso   1.000  O
  O51      1.0000 0.94730  0.80380  0.57180  Biso   1.000  O
  O52      1.0000 0.05330  0.76350  0.70820  Biso   1.000  O
  O53      1.0000 0.81920  0.76360  0.75020  Biso   1.000  O
  O54      1.0000 0.71900  0.55610  0.86550  Biso   1.000  O
  O55      1.0000 0.88570  0.61390  0.93190  Biso   1.000  O
  C37      1.0000 0.99670  0.77650  0.92920  Biso   1.000  C
  C38      1.0000 0.06390  0.80830  0.99980  Biso   1.000  C
  C39      1.0000 0.19890  0.84140  0.01630  Biso   1.000  C
  H13      1.0000 0.27610  0.85010  0.98410  Biso   1.000  H
  C40      1.0000 0.19800  0.85960  0.09120  Biso   1.000  C
  H14      1.0000 0.27540  0.88230  0.11900  Biso   1.000  H
  C41      1.0000 0.06360  0.83790  0.11550  Biso   1.000  C
  C42      1.0000 0.00420  0.83680  0.19160  Biso   1.000  C
  C43      1.0000 0.96610  0.42360  0.23320  Biso   1.000  C
  C44      1.0000 0.04300  0.48950  0.25980  Biso   1.000  C
  C45      1.0000 0.18850  0.50770  0.27940  Biso   1.000  C
  H15      1.0000 0.27280  0.47760  0.27790  Biso   1.000  H
  C46      1.0000 0.18710  0.58150  0.30270  Biso   1.000  C
  H16      1.0000 0.27000  0.60860  0.32010  Biso   1.000  H
  C47      1.0000 0.04230  0.60450  0.29450  Biso   1.000  C
  C48      1.0000 0.97400  0.67610  0.30650  Biso   1.000  C
  C49      1.0000 0.93810  0.83440  0.44180  Biso   1.000  C
  C50      1.0000 0.86200  0.83060  0.51290  Biso   1.000  C
  C51      1.0000 0.72060  0.84850  0.53260  Biso   1.000  C
  H17      1.0000 0.64270  0.86770  0.50230  Biso   1.000  H
  C52      1.0000 0.71630  0.83140  0.60990  Biso   1.000  C
  H18      1.0000 0.63470  0.83830  0.64000  Biso   1.000  H
  C53      1.0000 0.85240  0.80360  0.63090  Biso   1.000  C
  C54      1.0000 0.91310  0.77500  0.70180  Biso   1.000  C
  O56      1.0000 0.91800  0.49890  0.92300  Biso   1.000  O
  N5       1.0000 0.85100  0.55420  0.90790  Biso   1.000  N
  O57      1.0000 0.80600  0.50270  0.96670  Biso   1.000  O
  N6       1.0000 0.78700  0.55890  0.92590  Biso   1.000  N
  Dy7      1.0000 0.76379  0.18504  0.65925  Biso   1.000  Dy
  Dy8      1.0000 0.79013  0.29596  0.20841  Biso   1.000  Dy
  O58      1.0000 0.64160  0.26380  0.57520  Biso   1.000  O
  O59      1.0000 0.40920  0.26400  0.61960  Biso   1.000  O
  O60      1.0000 0.52260  0.30720  0.44040  Biso   1.000  O
  O61      1.0000 0.40800  0.36080  0.25710  Biso   1.000  O
  O62      1.0000 0.62770  0.31390  0.30190  Biso   1.000  O
  O63      1.0000 0.45610  0.86880  0.28250  Biso   1.000  O
  O64      1.0000 0.67690  0.92220  0.27320  Biso   1.000  O
  O65      1.0000 0.55000  0.04980  0.23140  Biso   1.000  O
  O66      1.0000 0.44090  0.22460  0.16680  Biso   1.000  O
  O67      1.0000 0.66560  0.18350  0.21090  Biso   1.000  O
  O68      1.0000 0.64700  0.34420  0.11550  Biso   1.000  O
  O69      1.0000 0.42110  0.32850  0.05730  Biso   1.000  O
  O70      1.0000 0.55270  0.30380  0.92820  Biso   1.000  O
  O71      1.0000 0.44670  0.26350  0.79180  Biso   1.000  O
  O72      1.0000 0.68080  0.26360  0.74980  Biso   1.000  O
  O73      1.0000 0.78100  0.05610  0.63450  Biso   1.000  O
  O74      1.0000 0.61430  0.11390  0.56810  Biso   1.000  O
  C55      1.0000 0.50330  0.27650  0.57080  Biso   1.000  C
  C56      1.0000 0.43610  0.30830  0.50020  Biso   1.000  C
  C57      1.0000 0.30110  0.34140  0.48370  Biso   1.000  C
  H19      1.0000 0.22390  0.35010  0.51590  Biso   1.000  H
  C58      1.0000 0.30200  0.35960  0.40880  Biso   1.000  C
  H20      1.0000 0.22460  0.38230  0.38100  Biso   1.000  H
  C59      1.0000 0.43640  0.33790  0.38450  Biso   1.000  C
  C60      1.0000 0.49580  0.33680  0.30840  Biso   1.000  C
  C61      1.0000 0.53390  0.92360  0.26680  Biso   1.000  C
  C62      1.0000 0.45700  0.98950  0.24020  Biso   1.000  C
  C63      1.0000 0.31150  0.00770  0.22060  Biso   1.000  C
  H21      1.0000 0.22720  0.97760  0.22210  Biso   1.000  H
  C64      1.0000 0.31290  0.08150  0.19730  Biso   1.000  C
  H22      1.0000 0.23000  0.10860  0.17990  Biso   1.000  H
  C65      1.0000 0.45770  0.10450  0.20550  Biso   1.000  C
  C66      1.0000 0.52600  0.17610  0.19350  Biso   1.000  C
  C67      1.0000 0.56190  0.33440  0.05820  Biso   1.000  C
  C68      1.0000 0.63800  0.33060  0.98710  Biso   1.000  C
  C69      1.0000 0.77940  0.34850  0.96740  Biso   1.000  C
  H23      1.0000 0.85730  0.36770  0.99770  Biso   1.000  H
  C70      1.0000 0.78370  0.33140  0.89010  Biso   1.000  C
  H24      1.0000 0.86530  0.33830  0.86000  Biso   1.000  H
  C71      1.0000 0.64760  0.30360  0.86910  Biso   1.000  C
  C72      1.0000 0.58690  0.27500  0.79820  Biso   1.000  C
  O75      1.0000 0.58200  0.99890  0.57700  Biso   1.000  O
  N7       1.0000 0.64900  0.05420  0.59210  Biso   1.000  N
  O76      1.0000 0.69400  0.00270  0.53330  Biso   1.000  O
  N8       1.0000 0.71300  0.05890  0.57410  Biso   1.000  N
