data_image0
_cell_length_a       10.2268
_cell_length_b       23.7126
_cell_length_c       17.4281
_cell_angle_alpha    90
_cell_angle_beta     105.803
_cell_angle_gamma    90

_symmetry_space_group_name_H-M    "P 1"
_symmetry_int_tables_number       1

loop_
  _symmetry_equiv_pos_as_xyz
  'x, y, z'

loop_
  _atom_site_label
  _atom_site_occupancy
  _atom_site_fract_x
  _atom_site_fract_y
  _atom_site_fract_z
  _atom_site_thermal_displace_type
  _atom_site_B_iso_or_equiv
  _atom_site_type_symbol
  Cd1      1.0000 0.11373  0.87778  0.17278  Biso   1.000  Cd
  C1       1.0000 0.11360  0.11450  0.25890  Biso   1.000  C
  C2       1.0000 0.99660  0.05310  0.10870  Biso   1.000  C
  C3       1.0000 0.99220  0.99720  0.09680  Biso   1.000  C
  C4       1.0000 0.12040  0.01030  0.21920  Biso   1.000  C
  C5       1.0000 0.00980  0.14880  0.22970  Biso   1.000  C
  C6       1.0000 0.93040  0.18510  0.19430  Biso   1.000  C
  C7       1.0000 0.80860  0.27090  0.19080  Biso   1.000  C
  C8       1.0000 0.67150  0.19550  0.17270  Biso   1.000  C
  C9       1.0000 0.59310  0.24200  0.16910  Biso   1.000  C
  C10      1.0000 0.50990  0.96099  0.87850  Biso   1.000  C
  C11      1.0000 0.52820  0.93119  0.95630  Biso   1.000  C
  C12      1.0000 0.42190  0.92628  0.99230  Biso   1.000  C
  H1       1.0000 0.33470  0.93760  0.96470  Biso   1.000  H
  C13      1.0000 0.44570  0.90474  0.06860  Biso   1.000  C
  C14      1.0000 0.33180  0.90016  0.10710  Biso   1.000  C
  C15      1.0000 0.57490  0.88707  0.11000  Biso   1.000  C
  H2       1.0000 0.59100  0.87350  0.16180  Biso   1.000  H
  C16      1.0000 0.68080  0.88962  0.07370  Biso   1.000  C
  C17      1.0000 0.65640  0.91197  0.99770  Biso   1.000  C
  H3       1.0000 0.72720  0.91410  0.97380  Biso   1.000  H
  C18      1.0000 0.82380  0.87300  0.11870  Biso   1.000  C
  N1       1.0000 0.07690  0.06390  0.20440  Biso   1.000  N
  N2       1.0000 0.07710  0.97330  0.17790  Biso   1.000  N
  N3       1.0000 0.66950  0.29090  0.18630  Biso   1.000  N
  N4       1.0000 0.80610  0.21560  0.19480  Biso   1.000  N
  O1       1.0000 0.61190  0.96631  0.85206  Biso   1.000  O
  O2       1.0000 0.39660  0.98077  0.84226  Biso   1.000  O
  O3       1.0000 0.21530  0.88998  0.06463  Biso   1.000  O
  O4       1.0000 0.35900  0.90439  0.18291  Biso   1.000  O
  O5       1.0000 0.90770  0.86452  0.07920  Biso   1.000  O
  O6       1.0000 0.84700  0.86070  0.19230  Biso   1.000  O
  C19      1.0000 0.37510  0.38880  0.78580  Biso   1.000  C
  C20      1.0000 0.53880  0.31220  0.84600  Biso   1.000  C
  C21      1.0000 0.79600  0.29890  0.89200  Biso   1.000  C
  C22      1.0000 0.87770  0.25700  0.88520  Biso   1.000  C
  N5       1.0000 0.41920  0.44030  0.83120  Biso   1.000  N
  N6       1.0000 0.43520  0.53200  0.84590  Biso   1.000  N
  N7       1.0000 0.80750  0.21510  0.83820  Biso   1.000  N
  N8       1.0000 0.66710  0.28160  0.84930  Biso   1.000  N
  O7       1.0000 0.13600  0.11920  0.80760  Biso   1.000  O
  Cd2      1.0000 0.61373  0.37778  0.17278  Biso   1.000  Cd
  C23      1.0000 0.61360  0.61450  0.25890  Biso   1.000  C
  C24      1.0000 0.49660  0.55310  0.10870  Biso   1.000  C
  C25      1.0000 0.49220  0.49720  0.09680  Biso   1.000  C
  C26      1.0000 0.62040  0.51030  0.21920  Biso   1.000  C
  C27      1.0000 0.50980  0.64880  0.22970  Biso   1.000  C
  C28      1.0000 0.43040  0.68510  0.19430  Biso   1.000  C
  C29      1.0000 0.30860  0.77090  0.19080  Biso   1.000  C
  C30      1.0000 0.17150  0.69550  0.17270  Biso   1.000  C
  C31      1.0000 0.09310  0.74200  0.16910  Biso   1.000  C
  C32      1.0000 0.00990  0.46099  0.87850  Biso   1.000  C
  C33      1.0000 0.02820  0.43119  0.95630  Biso   1.000  C
  C34      1.0000 0.92190  0.42628  0.99230  Biso   1.000  C
  H4       1.0000 0.83470  0.43760  0.96470  Biso   1.000  H
  C35      1.0000 0.94570  0.40474  0.06860  Biso   1.000  C
  C36      1.0000 0.83180  0.40016  0.10710  Biso   1.000  C
  C37      1.0000 0.07490  0.38707  0.11000  Biso   1.000  C
  H5       1.0000 0.09100  0.37350  0.16180  Biso   1.000  H
  C38      1.0000 0.18080  0.38962  0.07370  Biso   1.000  C
  C39      1.0000 0.15640  0.41197  0.99770  Biso   1.000  C
  H6       1.0000 0.22720  0.41410  0.97380  Biso   1.000  H
  C40      1.0000 0.32380  0.37300  0.11870  Biso   1.000  C
  N9       1.0000 0.57690  0.56390  0.20440  Biso   1.000  N
  N10      1.0000 0.57710  0.47330  0.17790  Biso   1.000  N
  N11      1.0000 0.16950  0.79090  0.18630  Biso   1.000  N
  N12      1.0000 0.30610  0.71560  0.19480  Biso   1.000  N
  O8       1.0000 0.11190  0.46631  0.85206  Biso   1.000  O
  O9       1.0000 0.89660  0.48077  0.84226  Biso   1.000  O
  O10      1.0000 0.71530  0.38998  0.06463  Biso   1.000  O
  O11      1.0000 0.85900  0.40439  0.18291  Biso   1.000  O
  O12      1.0000 0.40770  0.36452  0.07920  Biso   1.000  O
  O13      1.0000 0.34700  0.36070  0.19230  Biso   1.000  O
  C41      1.0000 0.87510  0.88880  0.78580  Biso   1.000  C
  C42      1.0000 0.03880  0.81220  0.84600  Biso   1.000  C
  C43      1.0000 0.29600  0.79890  0.89200  Biso   1.000  C
  C44      1.0000 0.37770  0.75700  0.88520  Biso   1.000  C
  N13      1.0000 0.91920  0.94030  0.83120  Biso   1.000  N
  N14      1.0000 0.93520  0.03200  0.84590  Biso   1.000  N
  N15      1.0000 0.30750  0.71510  0.83820  Biso   1.000  N
  N16      1.0000 0.16710  0.78160  0.84930  Biso   1.000  N
  O14      1.0000 0.63600  0.61920  0.80760  Biso   1.000  O
  Cd3      1.0000 0.88627  0.87778  0.32722  Biso   1.000  Cd
  C45      1.0000 0.88640  0.11450  0.24110  Biso   1.000  C
  C46      1.0000 0.00340  0.05310  0.39130  Biso   1.000  C
  C47      1.0000 0.00780  0.99720  0.40320  Biso   1.000  C
  C48      1.0000 0.87960  0.01030  0.28080  Biso   1.000  C
  C49      1.0000 0.99020  0.14880  0.27030  Biso   1.000  C
  C50      1.0000 0.06960  0.18510  0.30570  Biso   1.000  C
  C51      1.0000 0.19140  0.27090  0.30920  Biso   1.000  C
  C52      1.0000 0.32850  0.19550  0.32730  Biso   1.000  C
  C53      1.0000 0.40690  0.24200  0.33090  Biso   1.000  C
  C54      1.0000 0.49010  0.96099  0.62150  Biso   1.000  C
  C55      1.0000 0.47180  0.93119  0.54370  Biso   1.000  C
  C56      1.0000 0.57810  0.92628  0.50770  Biso   1.000  C
  H7       1.0000 0.66530  0.93760  0.53530  Biso   1.000  H
  C57      1.0000 0.55430  0.90474  0.43140  Biso   1.000  C
  C58      1.0000 0.66820  0.90016  0.39290  Biso   1.000  C
  C59      1.0000 0.42510  0.88707  0.39000  Biso   1.000  C
  H8       1.0000 0.40900  0.87350  0.33820  Biso   1.000  H
  C60      1.0000 0.31920  0.88962  0.42630  Biso   1.000  C
  C61      1.0000 0.34360  0.91197  0.50230  Biso   1.000  C
  H9       1.0000 0.27280  0.91410  0.52620  Biso   1.000  H
  C62      1.0000 0.17620  0.87300  0.38130  Biso   1.000  C
  N17      1.0000 0.92310  0.06390  0.29560  Biso   1.000  N
  N18      1.0000 0.92290  0.97330  0.32210  Biso   1.000  N
  N19      1.0000 0.33050  0.29090  0.31370  Biso   1.000  N
  N20      1.0000 0.19390  0.21560  0.30520  Biso   1.000  N
  O15      1.0000 0.38810  0.96631  0.64794  Biso   1.000  O
  O16      1.0000 0.60340  0.98077  0.65774  Biso   1.000  O
  O17      1.0000 0.78470  0.88998  0.43537  Biso   1.000  O
  O18      1.0000 0.64100  0.90439  0.31709  Biso   1.000  O
  O19      1.0000 0.09230  0.86452  0.42080  Biso   1.000  O
  O20      1.0000 0.15300  0.86070  0.30770  Biso   1.000  O
  C63      1.0000 0.62490  0.38880  0.71420  Biso   1.000  C
  C64      1.0000 0.46120  0.31220  0.65400  Biso   1.000  C
  C65      1.0000 0.20400  0.29890  0.60800  Biso   1.000  C
  C66      1.0000 0.12230  0.25700  0.61480  Biso   1.000  C
  N21      1.0000 0.58080  0.44030  0.66880  Biso   1.000  N
  N22      1.0000 0.56480  0.53200  0.65410  Biso   1.000  N
  N23      1.0000 0.19250  0.21510  0.66180  Biso   1.000  N
  N24      1.0000 0.33290  0.28160  0.65070  Biso   1.000  N
  O21      1.0000 0.86400  0.11920  0.69240  Biso   1.000  O
  Cd4      1.0000 0.38627  0.37778  0.32722  Biso   1.000  Cd
  C67      1.0000 0.38640  0.61450  0.24110  Biso   1.000  C
  C68      1.0000 0.50340  0.55310  0.39130  Biso   1.000  C
  C69      1.0000 0.50780  0.49720  0.40320  Biso   1.000  C
  C70      1.0000 0.37960  0.51030  0.28080  Biso   1.000  C
  C71      1.0000 0.49020  0.64880  0.27030  Biso   1.000  C
  C72      1.0000 0.56960  0.68510  0.30570  Biso   1.000  C
  C73      1.0000 0.69140  0.77090  0.30920  Biso   1.000  C
  C74      1.0000 0.82850  0.69550  0.32730  Biso   1.000  C
  C75      1.0000 0.90690  0.74200  0.33090  Biso   1.000  C
  C76      1.0000 0.99010  0.46099  0.62150  Biso   1.000  C
  C77      1.0000 0.97180  0.43119  0.54370  Biso   1.000  C
  C78      1.0000 0.07810  0.42628  0.50770  Biso   1.000  C
  H10      1.0000 0.16530  0.43760  0.53530  Biso   1.000  H
  C79      1.0000 0.05430  0.40474  0.43140  Biso   1.000  C
  C80      1.0000 0.16820  0.40016  0.39290  Biso   1.000  C
  C81      1.0000 0.92510  0.38707  0.39000  Biso   1.000  C
  H11      1.0000 0.90900  0.37350  0.33820  Biso   1.000  H
  C82      1.0000 0.81920  0.38962  0.42630  Biso   1.000  C
  C83      1.0000 0.84360  0.41197  0.50230  Biso   1.000  C
  H12      1.0000 0.77280  0.41410  0.52620  Biso   1.000  H
  C84      1.0000 0.67620  0.37300  0.38130  Biso   1.000  C
  N25      1.0000 0.42310  0.56390  0.29560  Biso   1.000  N
  N26      1.0000 0.42290  0.47330  0.32210  Biso   1.000  N
  N27      1.0000 0.83050  0.79090  0.31370  Biso   1.000  N
  N28      1.0000 0.69390  0.71560  0.30520  Biso   1.000  N
  O22      1.0000 0.88810  0.46631  0.64794  Biso   1.000  O
  O23      1.0000 0.10340  0.48077  0.65774  Biso   1.000  O
  O24      1.0000 0.28470  0.38998  0.43537  Biso   1.000  O
  O25      1.0000 0.14100  0.40439  0.31709  Biso   1.000  O
  O26      1.0000 0.59230  0.36452  0.42080  Biso   1.000  O
  O27      1.0000 0.65300  0.36070  0.30770  Biso   1.000  O
  C85      1.0000 0.12490  0.88880  0.71420  Biso   1.000  C
  C86      1.0000 0.96120  0.81220  0.65400  Biso   1.000  C
  C87      1.0000 0.70400  0.79890  0.60800  Biso   1.000  C
  C88      1.0000 0.62230  0.75700  0.61480  Biso   1.000  C
  N29      1.0000 0.08080  0.94030  0.66880  Biso   1.000  N
  N30      1.0000 0.06480  0.03200  0.65410  Biso   1.000  N
  N31      1.0000 0.69250  0.71510  0.66180  Biso   1.000  N
  N32      1.0000 0.83290  0.78160  0.65070  Biso   1.000  N
  O28      1.0000 0.36400  0.61920  0.69240  Biso   1.000  O
  Cd5      1.0000 0.88627  0.12222  0.82722  Biso   1.000  Cd
  C89      1.0000 0.88640  0.88550  0.74110  Biso   1.000  C
  C90      1.0000 0.00340  0.94690  0.89130  Biso   1.000  C
  C91      1.0000 0.00780  0.00280  0.90320  Biso   1.000  C
  C92      1.0000 0.87960  0.98970  0.78080  Biso   1.000  C
  C93      1.0000 0.99020  0.85120  0.77030  Biso   1.000  C
  C94      1.0000 0.06960  0.81490  0.80570  Biso   1.000  C
  C95      1.0000 0.19140  0.72910  0.80920  Biso   1.000  C
  C96      1.0000 0.32850  0.80450  0.82730  Biso   1.000  C
  C97      1.0000 0.40690  0.75800  0.83090  Biso   1.000  C
  C98      1.0000 0.49010  0.03901  0.12150  Biso   1.000  C
  C99      1.0000 0.47180  0.06881  0.04370  Biso   1.000  C
  C100     1.0000 0.57810  0.07372  0.00770  Biso   1.000  C
  H13      1.0000 0.66530  0.06240  0.03530  Biso   1.000  H
  C101     1.0000 0.55430  0.09526  0.93140  Biso   1.000  C
  C102     1.0000 0.66820  0.09984  0.89290  Biso   1.000  C
  C103     1.0000 0.42510  0.11293  0.89000  Biso   1.000  C
  H14      1.0000 0.40900  0.12650  0.83820  Biso   1.000  H
  C104     1.0000 0.31920  0.11038  0.92630  Biso   1.000  C
  C105     1.0000 0.34360  0.08803  0.00230  Biso   1.000  C
  H15      1.0000 0.27280  0.08590  0.02620  Biso   1.000  H
  C106     1.0000 0.17620  0.12700  0.88130  Biso   1.000  C
  N33      1.0000 0.92310  0.93610  0.79560  Biso   1.000  N
  N34      1.0000 0.92290  0.02670  0.82210  Biso   1.000  N
  N35      1.0000 0.33050  0.70910  0.81370  Biso   1.000  N
  N36      1.0000 0.19390  0.78440  0.80520  Biso   1.000  N
  O29      1.0000 0.38810  0.03369  0.14794  Biso   1.000  O
  O30      1.0000 0.60340  0.01923  0.15774  Biso   1.000  O
  O31      1.0000 0.78470  0.11002  0.93537  Biso   1.000  O
  O32      1.0000 0.64100  0.09561  0.81709  Biso   1.000  O
  O33      1.0000 0.09230  0.13548  0.92080  Biso   1.000  O
  O34      1.0000 0.15300  0.13930  0.80770  Biso   1.000  O
  C107     1.0000 0.62490  0.61120  0.21420  Biso   1.000  C
  C108     1.0000 0.46120  0.68780  0.15400  Biso   1.000  C
  C109     1.0000 0.20400  0.70110  0.10800  Biso   1.000  C
  C110     1.0000 0.12230  0.74300  0.11480  Biso   1.000  C
  N37      1.0000 0.58080  0.55970  0.16880  Biso   1.000  N
  N38      1.0000 0.56480  0.46800  0.15410  Biso   1.000  N
  N39      1.0000 0.19250  0.78490  0.16180  Biso   1.000  N
  N40      1.0000 0.33290  0.71840  0.15070  Biso   1.000  N
  O35      1.0000 0.86400  0.88080  0.19240  Biso   1.000  O
  Cd6      1.0000 0.38627  0.62222  0.82722  Biso   1.000  Cd
  C111     1.0000 0.38640  0.38550  0.74110  Biso   1.000  C
  C112     1.0000 0.50340  0.44690  0.89130  Biso   1.000  C
  C113     1.0000 0.50780  0.50280  0.90320  Biso   1.000  C
  C114     1.0000 0.37960  0.48970  0.78080  Biso   1.000  C
  C115     1.0000 0.49020  0.35120  0.77030  Biso   1.000  C
  C116     1.0000 0.56960  0.31490  0.80570  Biso   1.000  C
  C117     1.0000 0.69140  0.22910  0.80920  Biso   1.000  C
  C118     1.0000 0.82850  0.30450  0.82730  Biso   1.000  C
  C119     1.0000 0.90690  0.25800  0.83090  Biso   1.000  C
  C120     1.0000 0.99010  0.53901  0.12150  Biso   1.000  C
  C121     1.0000 0.97180  0.56881  0.04370  Biso   1.000  C
  C122     1.0000 0.07810  0.57372  0.00770  Biso   1.000  C
  H16      1.0000 0.16530  0.56240  0.03530  Biso   1.000  H
  C123     1.0000 0.05430  0.59526  0.93140  Biso   1.000  C
  C124     1.0000 0.16820  0.59984  0.89290  Biso   1.000  C
  C125     1.0000 0.92510  0.61293  0.89000  Biso   1.000  C
  H17      1.0000 0.90900  0.62650  0.83820  Biso   1.000  H
  C126     1.0000 0.81920  0.61038  0.92630  Biso   1.000  C
  C127     1.0000 0.84360  0.58803  0.00230  Biso   1.000  C
  H18      1.0000 0.77280  0.58590  0.02620  Biso   1.000  H
  C128     1.0000 0.67620  0.62700  0.88130  Biso   1.000  C
  N41      1.0000 0.42310  0.43610  0.79560  Biso   1.000  N
  N42      1.0000 0.42290  0.52670  0.82210  Biso   1.000  N
  N43      1.0000 0.83050  0.20910  0.81370  Biso   1.000  N
  N44      1.0000 0.69390  0.28440  0.80520  Biso   1.000  N
  O36      1.0000 0.88810  0.53369  0.14794  Biso   1.000  O
  O37      1.0000 0.10340  0.51923  0.15774  Biso   1.000  O
  O38      1.0000 0.28470  0.61002  0.93537  Biso   1.000  O
  O39      1.0000 0.14100  0.59561  0.81709  Biso   1.000  O
  O40      1.0000 0.59230  0.63548  0.92080  Biso   1.000  O
  O41      1.0000 0.65300  0.63930  0.80770  Biso   1.000  O
  C129     1.0000 0.12490  0.11120  0.21420  Biso   1.000  C
  C130     1.0000 0.96120  0.18780  0.15400  Biso   1.000  C
  C131     1.0000 0.70400  0.20110  0.10800  Biso   1.000  C
  C132     1.0000 0.62230  0.24300  0.11480  Biso   1.000  C
  N45      1.0000 0.08080  0.05970  0.16880  Biso   1.000  N
  N46      1.0000 0.06480  0.96800  0.15410  Biso   1.000  N
  N47      1.0000 0.69250  0.28490  0.16180  Biso   1.000  N
  N48      1.0000 0.83290  0.21840  0.15070  Biso   1.000  N
  O42      1.0000 0.36400  0.38080  0.19240  Biso   1.000  O
  Cd7      1.0000 0.11373  0.12222  0.67278  Biso   1.000  Cd
  C133     1.0000 0.11360  0.88550  0.75890  Biso   1.000  C
  C134     1.0000 0.99660  0.94690  0.60870  Biso   1.000  C
  C135     1.0000 0.99220  0.00280  0.59680  Biso   1.000  C
  C136     1.0000 0.12040  0.98970  0.71920  Biso   1.000  C
  C137     1.0000 0.00980  0.85120  0.72970  Biso   1.000  C
  C138     1.0000 0.93040  0.81490  0.69430  Biso   1.000  C
  C139     1.0000 0.80860  0.72910  0.69080  Biso   1.000  C
  C140     1.0000 0.67150  0.80450  0.67270  Biso   1.000  C
  C141     1.0000 0.59310  0.75800  0.66910  Biso   1.000  C
  C142     1.0000 0.50990  0.03901  0.37850  Biso   1.000  C
  C143     1.0000 0.52820  0.06881  0.45630  Biso   1.000  C
  C144     1.0000 0.42190  0.07372  0.49230  Biso   1.000  C
  H19      1.0000 0.33470  0.06240  0.46470  Biso   1.000  H
  C145     1.0000 0.44570  0.09526  0.56860  Biso   1.000  C
  C146     1.0000 0.33180  0.09984  0.60710  Biso   1.000  C
  C147     1.0000 0.57490  0.11293  0.61000  Biso   1.000  C
  H20      1.0000 0.59100  0.12650  0.66180  Biso   1.000  H
  C148     1.0000 0.68080  0.11038  0.57370  Biso   1.000  C
  C149     1.0000 0.65640  0.08803  0.49770  Biso   1.000  C
  H21      1.0000 0.72720  0.08590  0.47380  Biso   1.000  H
  C150     1.0000 0.82380  0.12700  0.61870  Biso   1.000  C
  N49      1.0000 0.07690  0.93610  0.70440  Biso   1.000  N
  N50      1.0000 0.07710  0.02670  0.67790  Biso   1.000  N
  N51      1.0000 0.66950  0.70910  0.68630  Biso   1.000  N
  N52      1.0000 0.80610  0.78440  0.69480  Biso   1.000  N
  O43      1.0000 0.61190  0.03369  0.35206  Biso   1.000  O
  O44      1.0000 0.39660  0.01923  0.34226  Biso   1.000  O
  O45      1.0000 0.21530  0.11002  0.56463  Biso   1.000  O
  O46      1.0000 0.35900  0.09561  0.68291  Biso   1.000  O
  O47      1.0000 0.90770  0.13548  0.57920  Biso   1.000  O
  O48      1.0000 0.84700  0.13930  0.69230  Biso   1.000  O
  C151     1.0000 0.37510  0.61120  0.28580  Biso   1.000  C
  C152     1.0000 0.53880  0.68780  0.34600  Biso   1.000  C
  C153     1.0000 0.79600  0.70110  0.39200  Biso   1.000  C
  C154     1.0000 0.87770  0.74300  0.38520  Biso   1.000  C
  N53      1.0000 0.41920  0.55970  0.33120  Biso   1.000  N
  N54      1.0000 0.43520  0.46800  0.34590  Biso   1.000  N
  N55      1.0000 0.80750  0.78490  0.33820  Biso   1.000  N
  N56      1.0000 0.66710  0.71840  0.34930  Biso   1.000  N
  O49      1.0000 0.13600  0.88080  0.30760  Biso   1.000  O
  Cd8      1.0000 0.61373  0.62222  0.67278  Biso   1.000  Cd
  C155     1.0000 0.61360  0.38550  0.75890  Biso   1.000  C
  C156     1.0000 0.49660  0.44690  0.60870  Biso   1.000  C
  C157     1.0000 0.49220  0.50280  0.59680  Biso   1.000  C
  C158     1.0000 0.62040  0.48970  0.71920  Biso   1.000  C
  C159     1.0000 0.50980  0.35120  0.72970  Biso   1.000  C
  C160     1.0000 0.43040  0.31490  0.69430  Biso   1.000  C
  C161     1.0000 0.30860  0.22910  0.69080  Biso   1.000  C
  C162     1.0000 0.17150  0.30450  0.67270  Biso   1.000  C
  C163     1.0000 0.09310  0.25800  0.66910  Biso   1.000  C
  C164     1.0000 0.00990  0.53901  0.37850  Biso   1.000  C
  C165     1.0000 0.02820  0.56881  0.45630  Biso   1.000  C
  C166     1.0000 0.92190  0.57372  0.49230  Biso   1.000  C
  H22      1.0000 0.83470  0.56240  0.46470  Biso   1.000  H
  C167     1.0000 0.94570  0.59526  0.56860  Biso   1.000  C
  C168     1.0000 0.83180  0.59984  0.60710  Biso   1.000  C
  C169     1.0000 0.07490  0.61293  0.61000  Biso   1.000  C
  H23      1.0000 0.09100  0.62650  0.66180  Biso   1.000  H
  C170     1.0000 0.18080  0.61038  0.57370  Biso   1.000  C
  C171     1.0000 0.15640  0.58803  0.49770  Biso   1.000  C
  H24      1.0000 0.22720  0.58590  0.47380  Biso   1.000  H
  C172     1.0000 0.32380  0.62700  0.61870  Biso   1.000  C
  N57      1.0000 0.57690  0.43610  0.70440  Biso   1.000  N
  N58      1.0000 0.57710  0.52670  0.67790  Biso   1.000  N
  N59      1.0000 0.16950  0.20910  0.68630  Biso   1.000  N
  N60      1.0000 0.30610  0.28440  0.69480  Biso   1.000  N
  O50      1.0000 0.11190  0.53369  0.35206  Biso   1.000  O
  O51      1.0000 0.89660  0.51923  0.34226  Biso   1.000  O
  O52      1.0000 0.71530  0.61002  0.56463  Biso   1.000  O
  O53      1.0000 0.85900  0.59561  0.68291  Biso   1.000  O
  O54      1.0000 0.40770  0.63548  0.57920  Biso   1.000  O
  O55      1.0000 0.34700  0.63930  0.69230  Biso   1.000  O
  C173     1.0000 0.87510  0.11120  0.28580  Biso   1.000  C
  C174     1.0000 0.03880  0.18780  0.34600  Biso   1.000  C
  C175     1.0000 0.29600  0.20110  0.39200  Biso   1.000  C
  C176     1.0000 0.37770  0.24300  0.38520  Biso   1.000  C
  N61      1.0000 0.91920  0.05970  0.33120  Biso   1.000  N
  N62      1.0000 0.93520  0.96800  0.34590  Biso   1.000  N
  N63      1.0000 0.30750  0.28490  0.33820  Biso   1.000  N
  N64      1.0000 0.16710  0.21840  0.34930  Biso   1.000  N
  O56      1.0000 0.63600  0.38080  0.30760  Biso   1.000  O
  Cd9      1.0000 0.50000  0.02465  0.75000  Biso   1.000  Cd
  Cd10     1.0000 0.00000  0.52465  0.75000  Biso   1.000  Cd
  Cd11     1.0000 0.50000  0.97535  0.25000  Biso   1.000  Cd
  Cd12     1.0000 0.00000  0.47535  0.25000  Biso   1.000  Cd
