data_image0
_cell_length_a       18.5283
_cell_length_b       18.5283
_cell_length_c       38.8075
_cell_angle_alpha    90
_cell_angle_beta     90
_cell_angle_gamma    120

_symmetry_space_group_name_H-M    "P 1"
_symmetry_int_tables_number       1

loop_
  _symmetry_equiv_pos_as_xyz
  'x, y, z'

loop_
  _atom_site_label
  _atom_site_occupancy
  _atom_site_fract_x
  _atom_site_fract_y
  _atom_site_fract_z
  _atom_site_thermal_displace_type
  _atom_site_B_iso_or_equiv
  _atom_site_type_symbol
  C1       1.0000 0.48300  0.38719  0.62220  Biso   1.000  C
  C2       1.0000 0.42471  0.30638  0.63924  Biso   1.000  C
  C3       1.0000 0.46741  0.40336  0.58839  Biso   1.000  C
  H1       1.0000 0.41910  0.36490  0.57700  Biso   1.000  H
  F1       1.0000 0.49800  0.62170  0.57140  Biso   1.000  F
  O1       1.0000 0.36258  0.25520  0.62212  Biso   1.000  O
  O2       1.0000 0.44345  0.29561  0.66902  Biso   1.000  O
  F2       1.0000 0.46170  0.65520  0.53640  Biso   1.000  F
  C4       1.0000 0.14967  0.72052  0.95553  Biso   1.000  C
  C5       1.0000 0.09138  0.63971  0.97257  Biso   1.000  C
  C6       1.0000 0.13408  0.73669  0.92172  Biso   1.000  C
  H2       1.0000 0.08577  0.69823  0.91033  Biso   1.000  H
  F3       1.0000 0.16467  0.95503  0.90473  Biso   1.000  F
  O3       1.0000 0.02925  0.58853  0.95545  Biso   1.000  O
  O4       1.0000 0.11012  0.62894  0.00235  Biso   1.000  O
  F4       1.0000 0.12837  0.98853  0.86973  Biso   1.000  F
  C7       1.0000 0.81633  0.05386  0.28887  Biso   1.000  C
  C8       1.0000 0.75804  0.97305  0.30591  Biso   1.000  C
  C9       1.0000 0.80074  0.07003  0.25506  Biso   1.000  C
  H3       1.0000 0.75243  0.03157  0.24367  Biso   1.000  H
  F5       1.0000 0.83133  0.28837  0.23807  Biso   1.000  F
  O5       1.0000 0.69591  0.92187  0.28879  Biso   1.000  O
  O6       1.0000 0.77678  0.96228  0.33569  Biso   1.000  O
  F6       1.0000 0.79503  0.32187  0.20307  Biso   1.000  F
  C10      1.0000 0.61281  0.09581  0.62220  Biso   1.000  C
  C11      1.0000 0.69362  0.11833  0.63924  Biso   1.000  C
  C12      1.0000 0.59664  0.06405  0.58839  Biso   1.000  C
  H4       1.0000 0.63510  0.05420  0.57700  Biso   1.000  H
  F7       1.0000 0.37830  0.87630  0.57140  Biso   1.000  F
  O7       1.0000 0.74480  0.10738  0.62212  Biso   1.000  O
  O8       1.0000 0.70439  0.14784  0.66902  Biso   1.000  O
  F8       1.0000 0.34480  0.80650  0.53640  Biso   1.000  F
  C13      1.0000 0.27948  0.42914  0.95553  Biso   1.000  C
  C14      1.0000 0.36029  0.45166  0.97257  Biso   1.000  C
  C15      1.0000 0.26331  0.39738  0.92172  Biso   1.000  C
  H5       1.0000 0.30177  0.38753  0.91033  Biso   1.000  H
  F9       1.0000 0.04497  0.20963  0.90473  Biso   1.000  F
  O9       1.0000 0.41147  0.44071  0.95545  Biso   1.000  O
  O10      1.0000 0.37106  0.48117  0.00235  Biso   1.000  O
  F10      1.0000 0.01147  0.13983  0.86973  Biso   1.000  F
  C16      1.0000 0.94614  0.76248  0.28887  Biso   1.000  C
  C17      1.0000 0.02695  0.78500  0.30591  Biso   1.000  C
  C18      1.0000 0.92997  0.73072  0.25506  Biso   1.000  C
  H6       1.0000 0.96843  0.72087  0.24367  Biso   1.000  H
  F11      1.0000 0.71163  0.54297  0.23807  Biso   1.000  F
  O11      1.0000 0.07813  0.77405  0.28879  Biso   1.000  O
  O12      1.0000 0.03772  0.81451  0.33569  Biso   1.000  O
  F12      1.0000 0.67813  0.47317  0.20307  Biso   1.000  F
  C19      1.0000 0.90419  0.51700  0.62220  Biso   1.000  C
  C20      1.0000 0.88167  0.57529  0.63924  Biso   1.000  C
  C21      1.0000 0.93595  0.53259  0.58839  Biso   1.000  C
  H7       1.0000 0.94580  0.58090  0.57700  Biso   1.000  H
  F13      1.0000 0.12370  0.50200  0.57140  Biso   1.000  F
  O13      1.0000 0.89262  0.63742  0.62212  Biso   1.000  O
  O14      1.0000 0.85216  0.55655  0.66902  Biso   1.000  O
  F14      1.0000 0.19350  0.53830  0.53640  Biso   1.000  F
  C22      1.0000 0.57086  0.85033  0.95553  Biso   1.000  C
  C23      1.0000 0.54834  0.90862  0.97257  Biso   1.000  C
  C24      1.0000 0.60262  0.86592  0.92172  Biso   1.000  C
  H8       1.0000 0.61247  0.91423  0.91033  Biso   1.000  H
  F15      1.0000 0.79037  0.83533  0.90473  Biso   1.000  F
  O15      1.0000 0.55929  0.97075  0.95545  Biso   1.000  O
  O16      1.0000 0.51883  0.88988  0.00235  Biso   1.000  O
  F16      1.0000 0.86017  0.87163  0.86973  Biso   1.000  F
  C25      1.0000 0.23752  0.18367  0.28887  Biso   1.000  C
  C26      1.0000 0.21500  0.24196  0.30591  Biso   1.000  C
  C27      1.0000 0.26928  0.19926  0.25506  Biso   1.000  C
  H9       1.0000 0.27913  0.24757  0.24367  Biso   1.000  H
  F17      1.0000 0.45703  0.16867  0.23807  Biso   1.000  F
  O17      1.0000 0.22595  0.30409  0.28879  Biso   1.000  O
  O18      1.0000 0.18549  0.22322  0.33569  Biso   1.000  O
  F18      1.0000 0.52683  0.20497  0.20307  Biso   1.000  F
  C28      1.0000 0.38719  0.48300  0.37780  Biso   1.000  C
  C29      1.0000 0.30638  0.42471  0.36076  Biso   1.000  C
  C30      1.0000 0.40336  0.46741  0.41161  Biso   1.000  C
  H10      1.0000 0.36490  0.41910  0.42300  Biso   1.000  H
  F19      1.0000 0.62170  0.49800  0.42860  Biso   1.000  F
  O19      1.0000 0.25520  0.36258  0.37788  Biso   1.000  O
  O20      1.0000 0.29561  0.44345  0.33098  Biso   1.000  O
  F20      1.0000 0.65520  0.46170  0.46360  Biso   1.000  F
  C31      1.0000 0.05386  0.81633  0.71113  Biso   1.000  C
  C32      1.0000 0.97305  0.75804  0.69409  Biso   1.000  C
  C33      1.0000 0.07003  0.80074  0.74494  Biso   1.000  C
  H11      1.0000 0.03157  0.75243  0.75633  Biso   1.000  H
  F21      1.0000 0.28837  0.83133  0.76193  Biso   1.000  F
  O21      1.0000 0.92187  0.69591  0.71121  Biso   1.000  O
  O22      1.0000 0.96228  0.77678  0.66431  Biso   1.000  O
  F22      1.0000 0.32187  0.79503  0.79693  Biso   1.000  F
  C34      1.0000 0.72052  0.14967  0.04447  Biso   1.000  C
  C35      1.0000 0.63971  0.09138  0.02743  Biso   1.000  C
  C36      1.0000 0.73669  0.13408  0.07828  Biso   1.000  C
  H12      1.0000 0.69823  0.08577  0.08967  Biso   1.000  H
  F23      1.0000 0.95503  0.16467  0.09527  Biso   1.000  F
  O23      1.0000 0.58853  0.02925  0.04455  Biso   1.000  O
  O24      1.0000 0.62894  0.11012  0.99765  Biso   1.000  O
  F24      1.0000 0.98853  0.12837  0.13027  Biso   1.000  F
  C37      1.0000 0.09581  0.61281  0.37780  Biso   1.000  C
  C38      1.0000 0.11833  0.69362  0.36076  Biso   1.000  C
  C39      1.0000 0.06405  0.59664  0.41161  Biso   1.000  C
  H13      1.0000 0.05420  0.63510  0.42300  Biso   1.000  H
  F25      1.0000 0.87630  0.37830  0.42860  Biso   1.000  F
  O25      1.0000 0.10738  0.74480  0.37788  Biso   1.000  O
  O26      1.0000 0.14784  0.70439  0.33098  Biso   1.000  O
  F26      1.0000 0.80650  0.34480  0.46360  Biso   1.000  F
  C40      1.0000 0.76248  0.94614  0.71113  Biso   1.000  C
  C41      1.0000 0.78500  0.02695  0.69409  Biso   1.000  C
  C42      1.0000 0.73072  0.92997  0.74494  Biso   1.000  C
  H14      1.0000 0.72087  0.96843  0.75633  Biso   1.000  H
  F27      1.0000 0.54297  0.71163  0.76193  Biso   1.000  F
  O27      1.0000 0.77405  0.07813  0.71121  Biso   1.000  O
  O28      1.0000 0.81451  0.03772  0.66431  Biso   1.000  O
  F28      1.0000 0.47317  0.67813  0.79693  Biso   1.000  F
  C43      1.0000 0.42914  0.27948  0.04447  Biso   1.000  C
  C44      1.0000 0.45166  0.36029  0.02743  Biso   1.000  C
  C45      1.0000 0.39738  0.26331  0.07828  Biso   1.000  C
  H15      1.0000 0.38753  0.30177  0.08967  Biso   1.000  H
  F29      1.0000 0.20963  0.04497  0.09527  Biso   1.000  F
  O29      1.0000 0.44071  0.41147  0.04455  Biso   1.000  O
  O30      1.0000 0.48117  0.37106  0.99765  Biso   1.000  O
  F30      1.0000 0.13983  0.01147  0.13027  Biso   1.000  F
  C46      1.0000 0.51700  0.90419  0.37780  Biso   1.000  C
  C47      1.0000 0.57529  0.88167  0.36076  Biso   1.000  C
  C48      1.0000 0.53259  0.93595  0.41161  Biso   1.000  C
  H16      1.0000 0.58090  0.94580  0.42300  Biso   1.000  H
  F31      1.0000 0.50200  0.12370  0.42860  Biso   1.000  F
  O31      1.0000 0.63742  0.89262  0.37788  Biso   1.000  O
  O32      1.0000 0.55655  0.85216  0.33098  Biso   1.000  O
  F32      1.0000 0.53830  0.19350  0.46360  Biso   1.000  F
  C49      1.0000 0.18367  0.23752  0.71113  Biso   1.000  C
  C50      1.0000 0.24196  0.21500  0.69409  Biso   1.000  C
  C51      1.0000 0.19926  0.26928  0.74494  Biso   1.000  C
  H17      1.0000 0.24757  0.27913  0.75633  Biso   1.000  H
  F33      1.0000 0.16867  0.45703  0.76193  Biso   1.000  F
  O33      1.0000 0.30409  0.22595  0.71121  Biso   1.000  O
  O34      1.0000 0.22322  0.18549  0.66431  Biso   1.000  O
  F34      1.0000 0.20497  0.52683  0.79693  Biso   1.000  F
  C52      1.0000 0.85033  0.57086  0.04447  Biso   1.000  C
  C53      1.0000 0.90862  0.54834  0.02743  Biso   1.000  C
  C54      1.0000 0.86592  0.60262  0.07828  Biso   1.000  C
  H18      1.0000 0.91423  0.61247  0.08967  Biso   1.000  H
  F35      1.0000 0.83533  0.79037  0.09527  Biso   1.000  F
  O35      1.0000 0.97075  0.55929  0.04455  Biso   1.000  O
  O36      1.0000 0.88988  0.51883  0.99765  Biso   1.000  O
  F36      1.0000 0.87163  0.86017  0.13027  Biso   1.000  F
  C55      1.0000 0.51700  0.61281  0.37780  Biso   1.000  C
  C56      1.0000 0.57529  0.69362  0.36076  Biso   1.000  C
  C57      1.0000 0.53259  0.59664  0.41161  Biso   1.000  C
  H19      1.0000 0.58090  0.63510  0.42300  Biso   1.000  H
  F37      1.0000 0.50200  0.37830  0.42860  Biso   1.000  F
  O37      1.0000 0.63742  0.74480  0.37788  Biso   1.000  O
  O38      1.0000 0.55655  0.70439  0.33098  Biso   1.000  O
  F38      1.0000 0.53830  0.34480  0.46360  Biso   1.000  F
  C58      1.0000 0.18367  0.94614  0.71113  Biso   1.000  C
  C59      1.0000 0.24196  0.02695  0.69409  Biso   1.000  C
  C60      1.0000 0.19926  0.92997  0.74494  Biso   1.000  C
  H20      1.0000 0.24757  0.96843  0.75633  Biso   1.000  H
  F39      1.0000 0.16867  0.71163  0.76193  Biso   1.000  F
  O39      1.0000 0.30409  0.07813  0.71121  Biso   1.000  O
  O40      1.0000 0.22322  0.03772  0.66431  Biso   1.000  O
  F40      1.0000 0.20497  0.67813  0.79693  Biso   1.000  F
  C61      1.0000 0.85033  0.27948  0.04447  Biso   1.000  C
  C62      1.0000 0.90862  0.36029  0.02743  Biso   1.000  C
  C63      1.0000 0.86592  0.26331  0.07828  Biso   1.000  C
  H21      1.0000 0.91423  0.30177  0.08967  Biso   1.000  H
  F41      1.0000 0.83533  0.04497  0.09527  Biso   1.000  F
  O41      1.0000 0.97075  0.41147  0.04455  Biso   1.000  O
  O42      1.0000 0.88988  0.37106  0.99765  Biso   1.000  O
  F42      1.0000 0.87163  0.01147  0.13027  Biso   1.000  F
  C64      1.0000 0.38719  0.90419  0.37780  Biso   1.000  C
  C65      1.0000 0.30638  0.88167  0.36076  Biso   1.000  C
  C66      1.0000 0.40336  0.93595  0.41161  Biso   1.000  C
  H22      1.0000 0.36490  0.94580  0.42300  Biso   1.000  H
  F43      1.0000 0.62170  0.12370  0.42860  Biso   1.000  F
  O43      1.0000 0.25520  0.89262  0.37788  Biso   1.000  O
  O44      1.0000 0.29561  0.85216  0.33098  Biso   1.000  O
  F44      1.0000 0.65520  0.19350  0.46360  Biso   1.000  F
  C67      1.0000 0.05386  0.23752  0.71113  Biso   1.000  C
  C68      1.0000 0.97305  0.21500  0.69409  Biso   1.000  C
  C69      1.0000 0.07003  0.26928  0.74494  Biso   1.000  C
  H23      1.0000 0.03157  0.27913  0.75633  Biso   1.000  H
  F45      1.0000 0.28837  0.45703  0.76193  Biso   1.000  F
  O45      1.0000 0.92187  0.22595  0.71121  Biso   1.000  O
  O46      1.0000 0.96228  0.18549  0.66431  Biso   1.000  O
  F46      1.0000 0.32187  0.52683  0.79693  Biso   1.000  F
  C70      1.0000 0.72052  0.57086  0.04447  Biso   1.000  C
  C71      1.0000 0.63971  0.54834  0.02743  Biso   1.000  C
  C72      1.0000 0.73669  0.60262  0.07828  Biso   1.000  C
  H24      1.0000 0.69823  0.61247  0.08967  Biso   1.000  H
  F47      1.0000 0.95503  0.79037  0.09527  Biso   1.000  F
  O47      1.0000 0.58853  0.55929  0.04455  Biso   1.000  O
  O48      1.0000 0.62894  0.51883  0.99765  Biso   1.000  O
  F48      1.0000 0.98853  0.86017  0.13027  Biso   1.000  F
  C73      1.0000 0.09581  0.48300  0.37780  Biso   1.000  C
  C74      1.0000 0.11833  0.42471  0.36076  Biso   1.000  C
  C75      1.0000 0.06405  0.46741  0.41161  Biso   1.000  C
  H25      1.0000 0.05420  0.41910  0.42300  Biso   1.000  H
  F49      1.0000 0.87630  0.49800  0.42860  Biso   1.000  F
  O49      1.0000 0.10738  0.36258  0.37788  Biso   1.000  O
  O50      1.0000 0.14784  0.44345  0.33098  Biso   1.000  O
  F50      1.0000 0.80650  0.46170  0.46360  Biso   1.000  F
  C76      1.0000 0.76248  0.81633  0.71113  Biso   1.000  C
  C77      1.0000 0.78500  0.75804  0.69409  Biso   1.000  C
  C78      1.0000 0.73072  0.80074  0.74494  Biso   1.000  C
  H26      1.0000 0.72087  0.75243  0.75633  Biso   1.000  H
  F51      1.0000 0.54297  0.83133  0.76193  Biso   1.000  F
  O51      1.0000 0.77405  0.69591  0.71121  Biso   1.000  O
  O52      1.0000 0.81451  0.77678  0.66431  Biso   1.000  O
  F52      1.0000 0.47317  0.79503  0.79693  Biso   1.000  F
  C79      1.0000 0.42914  0.14967  0.04447  Biso   1.000  C
  C80      1.0000 0.45166  0.09138  0.02743  Biso   1.000  C
  C81      1.0000 0.39738  0.13408  0.07828  Biso   1.000  C
  H27      1.0000 0.38753  0.08577  0.08967  Biso   1.000  H
  F53      1.0000 0.20963  0.16467  0.09527  Biso   1.000  F
  O53      1.0000 0.44071  0.02925  0.04455  Biso   1.000  O
  O54      1.0000 0.48117  0.11012  0.99765  Biso   1.000  O
  F54      1.0000 0.13983  0.12837  0.13027  Biso   1.000  F
  C82      1.0000 0.61281  0.51700  0.62220  Biso   1.000  C
  C83      1.0000 0.69362  0.57529  0.63924  Biso   1.000  C
  C84      1.0000 0.59664  0.53259  0.58839  Biso   1.000  C
  H28      1.0000 0.63510  0.58090  0.57700  Biso   1.000  H
  F55      1.0000 0.37830  0.50200  0.57140  Biso   1.000  F
  O55      1.0000 0.74480  0.63742  0.62212  Biso   1.000  O
  O56      1.0000 0.70439  0.55655  0.66902  Biso   1.000  O
  F56      1.0000 0.34480  0.53830  0.53640  Biso   1.000  F
  C85      1.0000 0.27948  0.85033  0.95553  Biso   1.000  C
  C86      1.0000 0.36029  0.90862  0.97257  Biso   1.000  C
  C87      1.0000 0.26331  0.86592  0.92172  Biso   1.000  C
  H29      1.0000 0.30177  0.91423  0.91033  Biso   1.000  H
  F57      1.0000 0.04497  0.83533  0.90473  Biso   1.000  F
  O57      1.0000 0.41147  0.97075  0.95545  Biso   1.000  O
  O58      1.0000 0.37106  0.88988  0.00235  Biso   1.000  O
  F58      1.0000 0.01147  0.87163  0.86973  Biso   1.000  F
  C88      1.0000 0.94614  0.18367  0.28887  Biso   1.000  C
  C89      1.0000 0.02695  0.24196  0.30591  Biso   1.000  C
  C90      1.0000 0.92997  0.19926  0.25506  Biso   1.000  C
  H30      1.0000 0.96843  0.24757  0.24367  Biso   1.000  H
  F59      1.0000 0.71163  0.16867  0.23807  Biso   1.000  F
  O59      1.0000 0.07813  0.30409  0.28879  Biso   1.000  O
  O60      1.0000 0.03772  0.22322  0.33569  Biso   1.000  O
  F60      1.0000 0.67813  0.20497  0.20307  Biso   1.000  F
  C91      1.0000 0.90419  0.38719  0.62220  Biso   1.000  C
  C92      1.0000 0.88167  0.30638  0.63924  Biso   1.000  C
  C93      1.0000 0.93595  0.40336  0.58839  Biso   1.000  C
  H31      1.0000 0.94580  0.36490  0.57700  Biso   1.000  H
  F61      1.0000 0.12370  0.62170  0.57140  Biso   1.000  F
  O61      1.0000 0.89262  0.25520  0.62212  Biso   1.000  O
  O62      1.0000 0.85216  0.29561  0.66902  Biso   1.000  O
  F62      1.0000 0.19350  0.65520  0.53640  Biso   1.000  F
  C94      1.0000 0.57086  0.72052  0.95553  Biso   1.000  C
  C95      1.0000 0.54834  0.63971  0.97257  Biso   1.000  C
  C96      1.0000 0.60262  0.73669  0.92172  Biso   1.000  C
  H32      1.0000 0.61247  0.69823  0.91033  Biso   1.000  H
  F63      1.0000 0.79037  0.95503  0.90473  Biso   1.000  F
  O63      1.0000 0.55929  0.58853  0.95545  Biso   1.000  O
  O64      1.0000 0.51883  0.62894  0.00235  Biso   1.000  O
  F64      1.0000 0.86017  0.98853  0.86973  Biso   1.000  F
  C97      1.0000 0.23752  0.05386  0.28887  Biso   1.000  C
  C98      1.0000 0.21500  0.97305  0.30591  Biso   1.000  C
  C99      1.0000 0.26928  0.07003  0.25506  Biso   1.000  C
  H33      1.0000 0.27913  0.03157  0.24367  Biso   1.000  H
  F65      1.0000 0.45703  0.28837  0.23807  Biso   1.000  F
  O65      1.0000 0.22595  0.92187  0.28879  Biso   1.000  O
  O66      1.0000 0.18549  0.96228  0.33569  Biso   1.000  O
  F66      1.0000 0.52683  0.32187  0.20307  Biso   1.000  F
  C100     1.0000 0.48300  0.09581  0.62220  Biso   1.000  C
  C101     1.0000 0.42471  0.11833  0.63924  Biso   1.000  C
  C102     1.0000 0.46741  0.06405  0.58839  Biso   1.000  C
  H34      1.0000 0.41910  0.05420  0.57700  Biso   1.000  H
  F67      1.0000 0.49800  0.87630  0.57140  Biso   1.000  F
  O67      1.0000 0.36258  0.10738  0.62212  Biso   1.000  O
  O68      1.0000 0.44345  0.14784  0.66902  Biso   1.000  O
  F68      1.0000 0.46170  0.80650  0.53640  Biso   1.000  F
  C103     1.0000 0.14967  0.42914  0.95553  Biso   1.000  C
  C104     1.0000 0.09138  0.45166  0.97257  Biso   1.000  C
  C105     1.0000 0.13408  0.39738  0.92172  Biso   1.000  C
  H35      1.0000 0.08577  0.38753  0.91033  Biso   1.000  H
  F69      1.0000 0.16467  0.20963  0.90473  Biso   1.000  F
  O69      1.0000 0.02925  0.44071  0.95545  Biso   1.000  O
  O70      1.0000 0.11012  0.48117  0.00235  Biso   1.000  O
  F70      1.0000 0.12837  0.13983  0.86973  Biso   1.000  F
  C106     1.0000 0.81633  0.76248  0.28887  Biso   1.000  C
  C107     1.0000 0.75804  0.78500  0.30591  Biso   1.000  C
  C108     1.0000 0.80074  0.73072  0.25506  Biso   1.000  C
  H36      1.0000 0.75243  0.72087  0.24367  Biso   1.000  H
  F71      1.0000 0.83133  0.54297  0.23807  Biso   1.000  F
  O71      1.0000 0.69591  0.77405  0.28879  Biso   1.000  O
  O72      1.0000 0.77678  0.81451  0.33569  Biso   1.000  O
  F72      1.0000 0.79503  0.47317  0.20307  Biso   1.000  F
  C109     1.0000 0.55588  0.44412  0.63914  Biso   1.000  C
  H37      1.0000 0.56640  0.43360  0.66150  Biso   1.000  H
  C110     1.0000 0.52375  0.47625  0.57206  Biso   1.000  C
  C111     1.0000 0.54000  0.46000  0.51090  Biso   1.000  C
  H38      1.0000 0.56780  0.43220  0.51780  Biso   1.000  H
  C112     1.0000 0.51001  0.48999  0.53523  Biso   1.000  C
  C113     1.0000 0.46930  0.53070  0.52451  Biso   1.000  C
  C114     1.0000 0.43600  0.56400  0.55150  Biso   1.000  C
  F73      1.0000 0.39690  0.60310  0.53590  Biso   1.000  F
  F74      1.0000 0.43620  0.56380  0.57880  Biso   1.000  F
  C115     1.0000 0.42900  0.57100  0.54420  Biso   1.000  C
  C116     1.0000 0.22255  0.77745  0.97247  Biso   1.000  C
  H39      1.0000 0.23307  0.76693  0.99483  Biso   1.000  H
  C117     1.0000 0.19042  0.80958  0.90539  Biso   1.000  C
  C118     1.0000 0.20667  0.79333  0.84423  Biso   1.000  C
  H40      1.0000 0.23447  0.76553  0.85113  Biso   1.000  H
  C119     1.0000 0.17668  0.82332  0.86856  Biso   1.000  C
  C120     1.0000 0.13597  0.86403  0.85784  Biso   1.000  C
  C121     1.0000 0.10267  0.89733  0.88483  Biso   1.000  C
  F75      1.0000 0.06357  0.93643  0.86923  Biso   1.000  F
  F76      1.0000 0.10287  0.89713  0.91213  Biso   1.000  F
  C122     1.0000 0.09567  0.90433  0.87753  Biso   1.000  C
  C123     1.0000 0.88921  0.11079  0.30581  Biso   1.000  C
  H41      1.0000 0.89973  0.10027  0.32817  Biso   1.000  H
  C124     1.0000 0.85708  0.14292  0.23873  Biso   1.000  C
  C125     1.0000 0.87333  0.12667  0.17757  Biso   1.000  C
  H42      1.0000 0.90113  0.09887  0.18447  Biso   1.000  H
  C126     1.0000 0.84334  0.15666  0.20190  Biso   1.000  C
  C127     1.0000 0.80263  0.19737  0.19118  Biso   1.000  C
  C128     1.0000 0.76933  0.23067  0.21817  Biso   1.000  C
  F77      1.0000 0.73023  0.26977  0.20257  Biso   1.000  F
  F78      1.0000 0.76953  0.23047  0.24547  Biso   1.000  F
  C129     1.0000 0.76233  0.23767  0.21087  Biso   1.000  C
  C130     1.0000 0.55588  0.11176  0.63914  Biso   1.000  C
  H43      1.0000 0.56640  0.13280  0.66150  Biso   1.000  H
  C131     1.0000 0.52375  0.04750  0.57206  Biso   1.000  C
  C132     1.0000 0.54000  0.08000  0.51090  Biso   1.000  C
  H44      1.0000 0.56780  0.13560  0.51780  Biso   1.000  H
  C133     1.0000 0.51001  0.02002  0.53523  Biso   1.000  C
  C134     1.0000 0.46930  0.93860  0.52451  Biso   1.000  C
  C135     1.0000 0.43600  0.87200  0.55150  Biso   1.000  C
  F79      1.0000 0.39690  0.79380  0.53590  Biso   1.000  F
  F80      1.0000 0.43620  0.87240  0.57880  Biso   1.000  F
  C136     1.0000 0.42900  0.85800  0.54420  Biso   1.000  C
  C137     1.0000 0.22255  0.44509  0.97247  Biso   1.000  C
  H45      1.0000 0.23307  0.46613  0.99483  Biso   1.000  H
  C138     1.0000 0.19042  0.38083  0.90539  Biso   1.000  C
  C139     1.0000 0.20667  0.41333  0.84423  Biso   1.000  C
  H46      1.0000 0.23447  0.46893  0.85113  Biso   1.000  H
  C140     1.0000 0.17668  0.35335  0.86856  Biso   1.000  C
  C141     1.0000 0.13597  0.27193  0.85784  Biso   1.000  C
  C142     1.0000 0.10267  0.20533  0.88483  Biso   1.000  C
  F81      1.0000 0.06357  0.12713  0.86923  Biso   1.000  F
  F82      1.0000 0.10287  0.20573  0.91213  Biso   1.000  F
  C143     1.0000 0.09567  0.19133  0.87753  Biso   1.000  C
  C144     1.0000 0.88921  0.77843  0.30581  Biso   1.000  C
  H47      1.0000 0.89973  0.79947  0.32817  Biso   1.000  H
  C145     1.0000 0.85708  0.71417  0.23873  Biso   1.000  C
  C146     1.0000 0.87333  0.74667  0.17757  Biso   1.000  C
  H48      1.0000 0.90113  0.80227  0.18447  Biso   1.000  H
  C147     1.0000 0.84334  0.68669  0.20190  Biso   1.000  C
  C148     1.0000 0.80263  0.60527  0.19118  Biso   1.000  C
  C149     1.0000 0.76933  0.53867  0.21817  Biso   1.000  C
  F83      1.0000 0.73023  0.46047  0.20257  Biso   1.000  F
  F84      1.0000 0.76953  0.53907  0.24547  Biso   1.000  F
  C150     1.0000 0.76233  0.52467  0.21087  Biso   1.000  C
  C151     1.0000 0.88824  0.44412  0.63914  Biso   1.000  C
  H49      1.0000 0.86720  0.43360  0.66150  Biso   1.000  H
  C152     1.0000 0.95250  0.47625  0.57206  Biso   1.000  C
  C153     1.0000 0.92000  0.46000  0.51090  Biso   1.000  C
  H50      1.0000 0.86440  0.43220  0.51780  Biso   1.000  H
  C154     1.0000 0.97998  0.48999  0.53523  Biso   1.000  C
  C155     1.0000 0.06140  0.53070  0.52451  Biso   1.000  C
  C156     1.0000 0.12800  0.56400  0.55150  Biso   1.000  C
  F85      1.0000 0.20620  0.60310  0.53590  Biso   1.000  F
  F86      1.0000 0.12760  0.56380  0.57880  Biso   1.000  F
  C157     1.0000 0.14200  0.57100  0.54420  Biso   1.000  C
  C158     1.0000 0.55491  0.77745  0.97247  Biso   1.000  C
  H51      1.0000 0.53387  0.76693  0.99483  Biso   1.000  H
  C159     1.0000 0.61917  0.80958  0.90539  Biso   1.000  C
  C160     1.0000 0.58667  0.79333  0.84423  Biso   1.000  C
  H52      1.0000 0.53107  0.76553  0.85113  Biso   1.000  H
  C161     1.0000 0.64665  0.82332  0.86856  Biso   1.000  C
  C162     1.0000 0.72807  0.86403  0.85784  Biso   1.000  C
  C163     1.0000 0.79467  0.89733  0.88483  Biso   1.000  C
  F87      1.0000 0.87287  0.93643  0.86923  Biso   1.000  F
  F88      1.0000 0.79427  0.89713  0.91213  Biso   1.000  F
  C164     1.0000 0.80867  0.90433  0.87753  Biso   1.000  C
  C165     1.0000 0.22157  0.11079  0.30581  Biso   1.000  C
  H53      1.0000 0.20053  0.10027  0.32817  Biso   1.000  H
  C166     1.0000 0.28583  0.14292  0.23873  Biso   1.000  C
  C167     1.0000 0.25333  0.12667  0.17757  Biso   1.000  C
  H54      1.0000 0.19773  0.09887  0.18447  Biso   1.000  H
  C168     1.0000 0.31331  0.15666  0.20190  Biso   1.000  C
  C169     1.0000 0.39473  0.19737  0.19118  Biso   1.000  C
  C170     1.0000 0.46133  0.23067  0.21817  Biso   1.000  C
  F89      1.0000 0.53953  0.26977  0.20257  Biso   1.000  F
  F90      1.0000 0.46093  0.23047  0.24547  Biso   1.000  F
  C171     1.0000 0.47533  0.23767  0.21087  Biso   1.000  C
  C172     1.0000 0.44412  0.55588  0.36086  Biso   1.000  C
  H55      1.0000 0.43360  0.56640  0.33850  Biso   1.000  H
  C173     1.0000 0.47625  0.52375  0.42794  Biso   1.000  C
  C174     1.0000 0.46000  0.54000  0.48910  Biso   1.000  C
  H56      1.0000 0.43220  0.56780  0.48220  Biso   1.000  H
  C175     1.0000 0.48999  0.51001  0.46477  Biso   1.000  C
  C176     1.0000 0.53070  0.46930  0.47549  Biso   1.000  C
  C177     1.0000 0.56400  0.43600  0.44850  Biso   1.000  C
  F91      1.0000 0.60310  0.39690  0.46410  Biso   1.000  F
  F92      1.0000 0.56380  0.43620  0.42120  Biso   1.000  F
  C178     1.0000 0.57100  0.42900  0.45580  Biso   1.000  C
  C179     1.0000 0.11079  0.88921  0.69419  Biso   1.000  C
  H57      1.0000 0.10027  0.89973  0.67183  Biso   1.000  H
  C180     1.0000 0.14292  0.85708  0.76127  Biso   1.000  C
  C181     1.0000 0.12667  0.87333  0.82243  Biso   1.000  C
  H58      1.0000 0.09887  0.90113  0.81553  Biso   1.000  H
  C182     1.0000 0.15666  0.84334  0.79810  Biso   1.000  C
  C183     1.0000 0.19737  0.80263  0.80882  Biso   1.000  C
  C184     1.0000 0.23067  0.76933  0.78183  Biso   1.000  C
  F93      1.0000 0.26977  0.73023  0.79743  Biso   1.000  F
  F94      1.0000 0.23047  0.76953  0.75453  Biso   1.000  F
  C185     1.0000 0.23767  0.76233  0.78913  Biso   1.000  C
  C186     1.0000 0.77745  0.22255  0.02753  Biso   1.000  C
  H59      1.0000 0.76693  0.23307  0.00517  Biso   1.000  H
  C187     1.0000 0.80958  0.19042  0.09461  Biso   1.000  C
  C188     1.0000 0.79333  0.20667  0.15577  Biso   1.000  C
  H60      1.0000 0.76553  0.23447  0.14887  Biso   1.000  H
  C189     1.0000 0.82332  0.17668  0.13144  Biso   1.000  C
  C190     1.0000 0.86403  0.13597  0.14216  Biso   1.000  C
  C191     1.0000 0.89733  0.10267  0.11517  Biso   1.000  C
  F95      1.0000 0.93643  0.06357  0.13077  Biso   1.000  F
  F96      1.0000 0.89713  0.10287  0.08787  Biso   1.000  F
  C192     1.0000 0.90433  0.09567  0.12247  Biso   1.000  C
  C193     1.0000 0.11176  0.55588  0.36086  Biso   1.000  C
  H61      1.0000 0.13280  0.56640  0.33850  Biso   1.000  H
  C194     1.0000 0.04750  0.52375  0.42794  Biso   1.000  C
  C195     1.0000 0.08000  0.54000  0.48910  Biso   1.000  C
  H62      1.0000 0.13560  0.56780  0.48220  Biso   1.000  H
  C196     1.0000 0.02002  0.51001  0.46477  Biso   1.000  C
  C197     1.0000 0.93860  0.46930  0.47549  Biso   1.000  C
  C198     1.0000 0.87200  0.43600  0.44850  Biso   1.000  C
  F97      1.0000 0.79380  0.39690  0.46410  Biso   1.000  F
  F98      1.0000 0.87240  0.43620  0.42120  Biso   1.000  F
  C199     1.0000 0.85800  0.42900  0.45580  Biso   1.000  C
  C200     1.0000 0.77843  0.88921  0.69419  Biso   1.000  C
  H63      1.0000 0.79947  0.89973  0.67183  Biso   1.000  H
  C201     1.0000 0.71417  0.85708  0.76127  Biso   1.000  C
  C202     1.0000 0.74667  0.87333  0.82243  Biso   1.000  C
  H64      1.0000 0.80227  0.90113  0.81553  Biso   1.000  H
  C203     1.0000 0.68669  0.84334  0.79810  Biso   1.000  C
  C204     1.0000 0.60527  0.80263  0.80882  Biso   1.000  C
  C205     1.0000 0.53867  0.76933  0.78183  Biso   1.000  C
  F99      1.0000 0.46047  0.73023  0.79743  Biso   1.000  F
  F100     1.0000 0.53907  0.76953  0.75453  Biso   1.000  F
  C206     1.0000 0.52467  0.76233  0.78913  Biso   1.000  C
  C207     1.0000 0.44509  0.22255  0.02753  Biso   1.000  C
  H65      1.0000 0.46613  0.23307  0.00517  Biso   1.000  H
  C208     1.0000 0.38083  0.19042  0.09461  Biso   1.000  C
  C209     1.0000 0.41333  0.20667  0.15577  Biso   1.000  C
  H66      1.0000 0.46893  0.23447  0.14887  Biso   1.000  H
  C210     1.0000 0.35335  0.17668  0.13144  Biso   1.000  C
  C211     1.0000 0.27193  0.13597  0.14216  Biso   1.000  C
  C212     1.0000 0.20533  0.10267  0.11517  Biso   1.000  C
  F101     1.0000 0.12713  0.06357  0.13077  Biso   1.000  F
  F102     1.0000 0.20573  0.10287  0.08787  Biso   1.000  F
  C213     1.0000 0.19133  0.09567  0.12247  Biso   1.000  C
  C214     1.0000 0.44412  0.88824  0.36086  Biso   1.000  C
  H67      1.0000 0.43360  0.86720  0.33850  Biso   1.000  H
  C215     1.0000 0.47625  0.95250  0.42794  Biso   1.000  C
  C216     1.0000 0.46000  0.92000  0.48910  Biso   1.000  C
  H68      1.0000 0.43220  0.86440  0.48220  Biso   1.000  H
  C217     1.0000 0.48999  0.97998  0.46477  Biso   1.000  C
  C218     1.0000 0.53070  0.06140  0.47549  Biso   1.000  C
  C219     1.0000 0.56400  0.12800  0.44850  Biso   1.000  C
  F103     1.0000 0.60310  0.20620  0.46410  Biso   1.000  F
  F104     1.0000 0.56380  0.12760  0.42120  Biso   1.000  F
  C220     1.0000 0.57100  0.14200  0.45580  Biso   1.000  C
  C221     1.0000 0.11079  0.22157  0.69419  Biso   1.000  C
  H69      1.0000 0.10027  0.20053  0.67183  Biso   1.000  H
  C222     1.0000 0.14292  0.28583  0.76127  Biso   1.000  C
  C223     1.0000 0.12667  0.25333  0.82243  Biso   1.000  C
  H70      1.0000 0.09887  0.19773  0.81553  Biso   1.000  H
  C224     1.0000 0.15666  0.31331  0.79810  Biso   1.000  C
  C225     1.0000 0.19737  0.39473  0.80882  Biso   1.000  C
  C226     1.0000 0.23067  0.46133  0.78183  Biso   1.000  C
  F105     1.0000 0.26977  0.53953  0.79743  Biso   1.000  F
  F106     1.0000 0.23047  0.46093  0.75453  Biso   1.000  F
  C227     1.0000 0.23767  0.47533  0.78913  Biso   1.000  C
  C228     1.0000 0.77745  0.55491  0.02753  Biso   1.000  C
  H71      1.0000 0.76693  0.53387  0.00517  Biso   1.000  H
  C229     1.0000 0.80958  0.61917  0.09461  Biso   1.000  C
  C230     1.0000 0.79333  0.58667  0.15577  Biso   1.000  C
  H72      1.0000 0.76553  0.53107  0.14887  Biso   1.000  H
  C231     1.0000 0.82332  0.64665  0.13144  Biso   1.000  C
  C232     1.0000 0.86403  0.72807  0.14216  Biso   1.000  C
  C233     1.0000 0.89733  0.79467  0.11517  Biso   1.000  C
  F107     1.0000 0.93643  0.87287  0.13077  Biso   1.000  F
  F108     1.0000 0.89713  0.79427  0.08787  Biso   1.000  F
  C234     1.0000 0.90433  0.80867  0.12247  Biso   1.000  C
  Cu1      1.0000 0.38149  0.19074  0.69448  Biso   1.000  Cu
  Cu2      1.0000 0.04816  0.52408  0.02781  Biso   1.000  Cu
  Cu3      1.0000 0.71482  0.85741  0.36114  Biso   1.000  Cu
  Cu4      1.0000 0.80925  0.19074  0.69448  Biso   1.000  Cu
  Cu5      1.0000 0.47592  0.52408  0.02781  Biso   1.000  Cu
  Cu6      1.0000 0.14259  0.85741  0.36114  Biso   1.000  Cu
  Cu7      1.0000 0.80925  0.61851  0.69448  Biso   1.000  Cu
  Cu8      1.0000 0.47592  0.95184  0.02781  Biso   1.000  Cu
  Cu9      1.0000 0.14259  0.28518  0.36114  Biso   1.000  Cu
  Cu10     1.0000 0.19074  0.38149  0.30552  Biso   1.000  Cu
  Cu11     1.0000 0.85741  0.71482  0.63886  Biso   1.000  Cu
  Cu12     1.0000 0.52408  0.04816  0.97219  Biso   1.000  Cu
  Cu13     1.0000 0.19074  0.80926  0.30552  Biso   1.000  Cu
  Cu14     1.0000 0.85741  0.14259  0.63886  Biso   1.000  Cu
  Cu15     1.0000 0.52408  0.47592  0.97219  Biso   1.000  Cu
  Cu16     1.0000 0.61851  0.80925  0.30552  Biso   1.000  Cu
  Cu17     1.0000 0.28518  0.14259  0.63886  Biso   1.000  Cu
  Cu18     1.0000 0.95184  0.47592  0.97219  Biso   1.000  Cu
