data_image0
_cell_length_a       8.5465
_cell_length_b       15.9683
_cell_length_c       20.726
_cell_angle_alpha    90
_cell_angle_beta     90
_cell_angle_gamma    90

_symmetry_space_group_name_H-M    "P 1"
_symmetry_int_tables_number       1

loop_
  _symmetry_equiv_pos_as_xyz
  'x, y, z'

loop_
  _atom_site_label
  _atom_site_occupancy
  _atom_site_fract_x
  _atom_site_fract_y
  _atom_site_fract_z
  _atom_site_thermal_displace_type
  _atom_site_B_iso_or_equiv
  _atom_site_type_symbol
  Cr1      1.0000 0.10970  0.41550  0.21240  Biso   1.000  Cr
  O1       1.0000 0.29120  0.43940  0.21550  Biso   1.000  O
  N1       1.0000 0.08600  0.91950  0.64790  Biso   1.000  N
  C1       1.0000 0.34100  0.67820  0.39620  Biso   1.000  C
  N2       1.0000 0.42800  0.58090  0.29090  Biso   1.000  N
  C2       1.0000 0.47300  0.66300  0.38700  Biso   1.000  C
  H1       1.0000 0.55030  0.68160  0.41690  Biso   1.000  H
  C3       1.0000 0.29700  0.72660  0.45750  Biso   1.000  C
  C4       1.0000 0.24100  0.76890  0.49960  Biso   1.000  C
  C5       1.0000 0.19600  0.81900  0.55070  Biso   1.000  C
  C6       1.0000 0.10500  0.78400  0.60280  Biso   1.000  C
  H2       1.0000 0.08270  0.72540  0.60410  Biso   1.000  H
  C7       1.0000 0.05200  0.83630  0.65050  Biso   1.000  C
  H3       1.0000 0.99220  0.81460  0.68530  Biso   1.000  H
  C8       1.0000 0.23200  0.89870  0.55090  Biso   1.000  C
  H4       1.0000 0.29640  0.92150  0.51800  Biso   1.000  H
  C9       1.0000 0.17600  0.94780  0.59850  Biso   1.000  C
  H5       1.0000 0.20120  0.00570  0.59750  Biso   1.000  H
  C10      1.0000 0.23400  0.65800  0.34600  Biso   1.000  C
  H6       1.0000 0.13130  0.68080  0.34560  Biso   1.000  H
  C11      1.0000 0.28100  0.60700  0.30080  Biso   1.000  C
  H7       1.0000 0.20390  0.58600  0.27210  Biso   1.000  H
  C12      1.0000 0.52100  0.61100  0.32540  Biso   1.000  C
  H8       1.0000 0.62920  0.60310  0.31600  Biso   1.000  H
  C13      1.0000 0.25900  0.60500  0.38180  Biso   1.000  C
  H9       1.0000 0.17310  0.58900  0.40800  Biso   1.000  H
  C14      1.0000 0.30300  0.55680  0.32920  Biso   1.000  C
  H10      1.0000 0.24630  0.50710  0.31930  Biso   1.000  H
  C15      1.0000 0.51100  0.65360  0.30530  Biso   1.000  C
  H11      1.0000 0.59670  0.67010  0.27920  Biso   1.000  H
  C16      1.0000 0.46700  0.70220  0.35800  Biso   1.000  C
  H12      1.0000 0.52350  0.75190  0.36780  Biso   1.000  H
  Cr2      1.0000 0.60970  0.91550  0.71240  Biso   1.000  Cr
  O2       1.0000 0.79120  0.93940  0.71550  Biso   1.000  O
  N3       1.0000 0.58600  0.41950  0.14790  Biso   1.000  N
  C17      1.0000 0.84100  0.17820  0.89620  Biso   1.000  C
  N4       1.0000 0.92800  0.08090  0.79090  Biso   1.000  N
  C18      1.0000 0.97300  0.16300  0.88700  Biso   1.000  C
  H13      1.0000 0.05030  0.18160  0.91690  Biso   1.000  H
  C19      1.0000 0.79700  0.22660  0.95750  Biso   1.000  C
  C20      1.0000 0.74100  0.26890  0.99960  Biso   1.000  C
  C21      1.0000 0.69600  0.31900  0.05070  Biso   1.000  C
  C22      1.0000 0.60500  0.28400  0.10280  Biso   1.000  C
  H14      1.0000 0.58270  0.22540  0.10410  Biso   1.000  H
  C23      1.0000 0.55200  0.33630  0.15050  Biso   1.000  C
  H15      1.0000 0.49220  0.31460  0.18530  Biso   1.000  H
  C24      1.0000 0.73200  0.39870  0.05090  Biso   1.000  C
  H16      1.0000 0.79640  0.42150  0.01800  Biso   1.000  H
  C25      1.0000 0.67600  0.44780  0.09850  Biso   1.000  C
  H17      1.0000 0.70120  0.50570  0.09750  Biso   1.000  H
  C26      1.0000 0.73400  0.15800  0.84600  Biso   1.000  C
  H18      1.0000 0.63130  0.18080  0.84560  Biso   1.000  H
  C27      1.0000 0.78100  0.10700  0.80080  Biso   1.000  C
  H19      1.0000 0.70390  0.08600  0.77210  Biso   1.000  H
  C28      1.0000 0.02100  0.11100  0.82540  Biso   1.000  C
  H20      1.0000 0.12920  0.10310  0.81600  Biso   1.000  H
  C29      1.0000 0.75900  0.10500  0.88180  Biso   1.000  C
  H21      1.0000 0.67310  0.08900  0.90800  Biso   1.000  H
  C30      1.0000 0.80300  0.05680  0.82920  Biso   1.000  C
  H22      1.0000 0.74630  0.00710  0.81930  Biso   1.000  H
  C31      1.0000 0.01100  0.15360  0.80530  Biso   1.000  C
  H23      1.0000 0.09670  0.17010  0.77920  Biso   1.000  H
  C32      1.0000 0.96700  0.20220  0.85800  Biso   1.000  C
  H24      1.0000 0.02350  0.25190  0.86780  Biso   1.000  H
  Cr3      1.0000 0.89030  0.58450  0.21240  Biso   1.000  Cr
  O3       1.0000 0.70880  0.56060  0.21550  Biso   1.000  O
  N5       1.0000 0.91400  0.08050  0.64790  Biso   1.000  N
  C33      1.0000 0.65900  0.32180  0.39620  Biso   1.000  C
  N6       1.0000 0.57200  0.41910  0.29090  Biso   1.000  N
  C34      1.0000 0.52700  0.33700  0.38700  Biso   1.000  C
  H25      1.0000 0.44970  0.31840  0.41690  Biso   1.000  H
  C35      1.0000 0.70300  0.27340  0.45750  Biso   1.000  C
  C36      1.0000 0.75900  0.23110  0.49960  Biso   1.000  C
  C37      1.0000 0.80400  0.18100  0.55070  Biso   1.000  C
  C38      1.0000 0.89500  0.21600  0.60280  Biso   1.000  C
  H26      1.0000 0.91730  0.27460  0.60410  Biso   1.000  H
  C39      1.0000 0.94800  0.16370  0.65050  Biso   1.000  C
  H27      1.0000 0.00780  0.18540  0.68530  Biso   1.000  H
  C40      1.0000 0.76800  0.10130  0.55090  Biso   1.000  C
  H28      1.0000 0.70360  0.07850  0.51800  Biso   1.000  H
  C41      1.0000 0.82400  0.05220  0.59850  Biso   1.000  C
  H29      1.0000 0.79880  0.99430  0.59750  Biso   1.000  H
  C42      1.0000 0.76600  0.34200  0.34600  Biso   1.000  C
  H30      1.0000 0.86870  0.31920  0.34560  Biso   1.000  H
  C43      1.0000 0.71900  0.39300  0.30080  Biso   1.000  C
  H31      1.0000 0.79610  0.41400  0.27210  Biso   1.000  H
  C44      1.0000 0.47900  0.38900  0.32540  Biso   1.000  C
  H32      1.0000 0.37080  0.39690  0.31600  Biso   1.000  H
  C45      1.0000 0.74100  0.39500  0.38180  Biso   1.000  C
  H33      1.0000 0.82690  0.41100  0.40800  Biso   1.000  H
  C46      1.0000 0.69700  0.44320  0.32920  Biso   1.000  C
  H34      1.0000 0.75370  0.49290  0.31930  Biso   1.000  H
  C47      1.0000 0.48900  0.34640  0.30530  Biso   1.000  C
  H35      1.0000 0.40330  0.32990  0.27920  Biso   1.000  H
  C48      1.0000 0.53300  0.29780  0.35800  Biso   1.000  C
  H36      1.0000 0.47650  0.24810  0.36780  Biso   1.000  H
  Cr4      1.0000 0.39030  0.08450  0.71240  Biso   1.000  Cr
  O4       1.0000 0.20880  0.06060  0.71550  Biso   1.000  O
  N7       1.0000 0.41400  0.58050  0.14790  Biso   1.000  N
  C49      1.0000 0.15900  0.82180  0.89620  Biso   1.000  C
  N8       1.0000 0.07200  0.91910  0.79090  Biso   1.000  N
  C50      1.0000 0.02700  0.83700  0.88700  Biso   1.000  C
  H37      1.0000 0.94970  0.81840  0.91690  Biso   1.000  H
  C51      1.0000 0.20300  0.77340  0.95750  Biso   1.000  C
  C52      1.0000 0.25900  0.73110  0.99960  Biso   1.000  C
  C53      1.0000 0.30400  0.68100  0.05070  Biso   1.000  C
  C54      1.0000 0.39500  0.71600  0.10280  Biso   1.000  C
  H38      1.0000 0.41730  0.77460  0.10410  Biso   1.000  H
  C55      1.0000 0.44800  0.66370  0.15050  Biso   1.000  C
  H39      1.0000 0.50780  0.68540  0.18530  Biso   1.000  H
  C56      1.0000 0.26800  0.60130  0.05090  Biso   1.000  C
  H40      1.0000 0.20360  0.57850  0.01800  Biso   1.000  H
  C57      1.0000 0.32400  0.55220  0.09850  Biso   1.000  C
  H41      1.0000 0.29880  0.49430  0.09750  Biso   1.000  H
  C58      1.0000 0.26600  0.84200  0.84600  Biso   1.000  C
  H42      1.0000 0.36870  0.81920  0.84560  Biso   1.000  H
  C59      1.0000 0.21900  0.89300  0.80080  Biso   1.000  C
  H43      1.0000 0.29610  0.91400  0.77210  Biso   1.000  H
  C60      1.0000 0.97900  0.88900  0.82540  Biso   1.000  C
  H44      1.0000 0.87080  0.89690  0.81600  Biso   1.000  H
  C61      1.0000 0.24100  0.89500  0.88180  Biso   1.000  C
  H45      1.0000 0.32690  0.91100  0.90800  Biso   1.000  H
  C62      1.0000 0.19700  0.94320  0.82920  Biso   1.000  C
  H46      1.0000 0.25370  0.99290  0.81930  Biso   1.000  H
  C63      1.0000 0.98900  0.84640  0.80530  Biso   1.000  C
  H47      1.0000 0.90330  0.82990  0.77920  Biso   1.000  H
  C64      1.0000 0.03300  0.79780  0.85800  Biso   1.000  C
  H48      1.0000 0.97650  0.74810  0.86780  Biso   1.000  H
  Ni1      1.0000 0.50000  0.50000  0.21830  Biso   1.000  Ni
  Ni2      1.0000 0.00000  0.00000  0.71830  Biso   1.000  Ni
  O5       1.0000 0.00000  0.50000  0.24120  Biso   1.000  O
  O6       1.0000 0.50000  0.00000  0.74120  Biso   1.000  O
  Cr5      1.0000 0.89030  0.41550  0.78760  Biso   1.000  Cr
  O7       1.0000 0.70880  0.43940  0.78450  Biso   1.000  O
  N9       1.0000 0.91400  0.91950  0.35210  Biso   1.000  N
  C65      1.0000 0.65900  0.67820  0.60380  Biso   1.000  C
  N10      1.0000 0.57200  0.58090  0.70910  Biso   1.000  N
  C66      1.0000 0.52700  0.66300  0.61300  Biso   1.000  C
  H49      1.0000 0.44970  0.68160  0.58310  Biso   1.000  H
  C67      1.0000 0.70300  0.72660  0.54250  Biso   1.000  C
  C68      1.0000 0.75900  0.76890  0.50040  Biso   1.000  C
  C69      1.0000 0.80400  0.81900  0.44930  Biso   1.000  C
  C70      1.0000 0.89500  0.78400  0.39720  Biso   1.000  C
  H50      1.0000 0.91730  0.72540  0.39590  Biso   1.000  H
  C71      1.0000 0.94800  0.83630  0.34950  Biso   1.000  C
  H51      1.0000 0.00780  0.81460  0.31470  Biso   1.000  H
  C72      1.0000 0.76800  0.89870  0.44910  Biso   1.000  C
  H52      1.0000 0.70360  0.92150  0.48200  Biso   1.000  H
  C73      1.0000 0.82400  0.94780  0.40150  Biso   1.000  C
  H53      1.0000 0.79880  0.00570  0.40250  Biso   1.000  H
  C74      1.0000 0.76600  0.65800  0.65400  Biso   1.000  C
  H54      1.0000 0.86870  0.68080  0.65440  Biso   1.000  H
  C75      1.0000 0.71900  0.60700  0.69920  Biso   1.000  C
  H55      1.0000 0.79610  0.58600  0.72790  Biso   1.000  H
  C76      1.0000 0.47900  0.61100  0.67460  Biso   1.000  C
  H56      1.0000 0.37080  0.60310  0.68400  Biso   1.000  H
  C77      1.0000 0.74100  0.60500  0.61820  Biso   1.000  C
  H57      1.0000 0.82690  0.58900  0.59200  Biso   1.000  H
  C78      1.0000 0.69700  0.55680  0.67080  Biso   1.000  C
  H58      1.0000 0.75370  0.50710  0.68070  Biso   1.000  H
  C79      1.0000 0.48900  0.65360  0.69470  Biso   1.000  C
  H59      1.0000 0.40330  0.67010  0.72080  Biso   1.000  H
  C80      1.0000 0.53300  0.70220  0.64200  Biso   1.000  C
  H60      1.0000 0.47650  0.75190  0.63220  Biso   1.000  H
  Cr6      1.0000 0.39030  0.91550  0.28760  Biso   1.000  Cr
  O8       1.0000 0.20880  0.93940  0.28450  Biso   1.000  O
  N11      1.0000 0.41400  0.41950  0.85210  Biso   1.000  N
  C81      1.0000 0.15900  0.17820  0.10380  Biso   1.000  C
  N12      1.0000 0.07200  0.08090  0.20910  Biso   1.000  N
  C82      1.0000 0.02700  0.16300  0.11300  Biso   1.000  C
  H61      1.0000 0.94970  0.18160  0.08310  Biso   1.000  H
  C83      1.0000 0.20300  0.22660  0.04250  Biso   1.000  C
  C84      1.0000 0.25900  0.26890  0.00040  Biso   1.000  C
  C85      1.0000 0.30400  0.31900  0.94930  Biso   1.000  C
  C86      1.0000 0.39500  0.28400  0.89720  Biso   1.000  C
  H62      1.0000 0.41730  0.22540  0.89590  Biso   1.000  H
  C87      1.0000 0.44800  0.33630  0.84950  Biso   1.000  C
  H63      1.0000 0.50780  0.31460  0.81470  Biso   1.000  H
  C88      1.0000 0.26800  0.39870  0.94910  Biso   1.000  C
  H64      1.0000 0.20360  0.42150  0.98200  Biso   1.000  H
  C89      1.0000 0.32400  0.44780  0.90150  Biso   1.000  C
  H65      1.0000 0.29880  0.50570  0.90250  Biso   1.000  H
  C90      1.0000 0.26600  0.15800  0.15400  Biso   1.000  C
  H66      1.0000 0.36870  0.18080  0.15440  Biso   1.000  H
  C91      1.0000 0.21900  0.10700  0.19920  Biso   1.000  C
  H67      1.0000 0.29610  0.08600  0.22790  Biso   1.000  H
  C92      1.0000 0.97900  0.11100  0.17460  Biso   1.000  C
  H68      1.0000 0.87080  0.10310  0.18400  Biso   1.000  H
  C93      1.0000 0.24100  0.10500  0.11820  Biso   1.000  C
  H69      1.0000 0.32690  0.08900  0.09200  Biso   1.000  H
  C94      1.0000 0.19700  0.05680  0.17080  Biso   1.000  C
  H70      1.0000 0.25370  0.00710  0.18070  Biso   1.000  H
  C95      1.0000 0.98900  0.15360  0.19470  Biso   1.000  C
  H71      1.0000 0.90330  0.17010  0.22080  Biso   1.000  H
  C96      1.0000 0.03300  0.20220  0.14200  Biso   1.000  C
  H72      1.0000 0.97650  0.25190  0.13220  Biso   1.000  H
  Cr7      1.0000 0.10970  0.58450  0.78760  Biso   1.000  Cr
  O9       1.0000 0.29120  0.56060  0.78450  Biso   1.000  O
  N13      1.0000 0.08600  0.08050  0.35210  Biso   1.000  N
  C97      1.0000 0.34100  0.32180  0.60380  Biso   1.000  C
  N14      1.0000 0.42800  0.41910  0.70910  Biso   1.000  N
  C98      1.0000 0.47300  0.33700  0.61300  Biso   1.000  C
  H73      1.0000 0.55030  0.31840  0.58310  Biso   1.000  H
  C99      1.0000 0.29700  0.27340  0.54250  Biso   1.000  C
  C100     1.0000 0.24100  0.23110  0.50040  Biso   1.000  C
  C101     1.0000 0.19600  0.18100  0.44930  Biso   1.000  C
  C102     1.0000 0.10500  0.21600  0.39720  Biso   1.000  C
  H74      1.0000 0.08270  0.27460  0.39590  Biso   1.000  H
  C103     1.0000 0.05200  0.16370  0.34950  Biso   1.000  C
  H75      1.0000 0.99220  0.18540  0.31470  Biso   1.000  H
  C104     1.0000 0.23200  0.10130  0.44910  Biso   1.000  C
  H76      1.0000 0.29640  0.07850  0.48200  Biso   1.000  H
  C105     1.0000 0.17600  0.05220  0.40150  Biso   1.000  C
  H77      1.0000 0.20120  0.99430  0.40250  Biso   1.000  H
  C106     1.0000 0.23400  0.34200  0.65400  Biso   1.000  C
  H78      1.0000 0.13130  0.31920  0.65440  Biso   1.000  H
  C107     1.0000 0.28100  0.39300  0.69920  Biso   1.000  C
  H79      1.0000 0.20390  0.41400  0.72790  Biso   1.000  H
  C108     1.0000 0.52100  0.38900  0.67460  Biso   1.000  C
  H80      1.0000 0.62920  0.39690  0.68400  Biso   1.000  H
  C109     1.0000 0.25900  0.39500  0.61820  Biso   1.000  C
  H81      1.0000 0.17310  0.41100  0.59200  Biso   1.000  H
  C110     1.0000 0.30300  0.44320  0.67080  Biso   1.000  C
  H82      1.0000 0.24630  0.49290  0.68070  Biso   1.000  H
  C111     1.0000 0.51100  0.34640  0.69470  Biso   1.000  C
  H83      1.0000 0.59670  0.32990  0.72080  Biso   1.000  H
  C112     1.0000 0.46700  0.29780  0.64200  Biso   1.000  C
  H84      1.0000 0.52350  0.24810  0.63220  Biso   1.000  H
  Cr8      1.0000 0.60970  0.08450  0.28760  Biso   1.000  Cr
  O10      1.0000 0.79120  0.06060  0.28450  Biso   1.000  O
  N15      1.0000 0.58600  0.58050  0.85210  Biso   1.000  N
  C113     1.0000 0.84100  0.82180  0.10380  Biso   1.000  C
  N16      1.0000 0.92800  0.91910  0.20910  Biso   1.000  N
  C114     1.0000 0.97300  0.83700  0.11300  Biso   1.000  C
  H85      1.0000 0.05030  0.81840  0.08310  Biso   1.000  H
  C115     1.0000 0.79700  0.77340  0.04250  Biso   1.000  C
  C116     1.0000 0.74100  0.73110  0.00040  Biso   1.000  C
  C117     1.0000 0.69600  0.68100  0.94930  Biso   1.000  C
  C118     1.0000 0.60500  0.71600  0.89720  Biso   1.000  C
  H86      1.0000 0.58270  0.77460  0.89590  Biso   1.000  H
  C119     1.0000 0.55200  0.66370  0.84950  Biso   1.000  C
  H87      1.0000 0.49220  0.68540  0.81470  Biso   1.000  H
  C120     1.0000 0.73200  0.60130  0.94910  Biso   1.000  C
  H88      1.0000 0.79640  0.57850  0.98200  Biso   1.000  H
  C121     1.0000 0.67600  0.55220  0.90150  Biso   1.000  C
  H89      1.0000 0.70120  0.49430  0.90250  Biso   1.000  H
  C122     1.0000 0.73400  0.84200  0.15400  Biso   1.000  C
  H90      1.0000 0.63130  0.81920  0.15440  Biso   1.000  H
  C123     1.0000 0.78100  0.89300  0.19920  Biso   1.000  C
  H91      1.0000 0.70390  0.91400  0.22790  Biso   1.000  H
  C124     1.0000 0.02100  0.88900  0.17460  Biso   1.000  C
  H92      1.0000 0.12920  0.89690  0.18400  Biso   1.000  H
  C125     1.0000 0.75900  0.89500  0.11820  Biso   1.000  C
  H93      1.0000 0.67310  0.91100  0.09200  Biso   1.000  H
  C126     1.0000 0.80300  0.94320  0.17080  Biso   1.000  C
  H94      1.0000 0.74630  0.99290  0.18070  Biso   1.000  H
  C127     1.0000 0.01100  0.84640  0.19470  Biso   1.000  C
  H95      1.0000 0.09670  0.82990  0.22080  Biso   1.000  H
  C128     1.0000 0.96700  0.79780  0.14200  Biso   1.000  C
  H96      1.0000 0.02350  0.74810  0.13220  Biso   1.000  H
  Ni3      1.0000 0.50000  0.50000  0.78170  Biso   1.000  Ni
  Ni4      1.0000 0.00000  0.00000  0.28170  Biso   1.000  Ni
  O11      1.0000 0.00000  0.50000  0.75880  Biso   1.000  O
  O12      1.0000 0.50000  0.00000  0.25880  Biso   1.000  O
