data_image0
_cell_length_a       19.561
_cell_length_b       15.255
_cell_length_c       23.404
_cell_angle_alpha    90
_cell_angle_beta     90
_cell_angle_gamma    90

_symmetry_space_group_name_H-M    "P 1"
_symmetry_int_tables_number       1

loop_
  _symmetry_equiv_pos_as_xyz
  'x, y, z'

loop_
  _atom_site_label
  _atom_site_occupancy
  _atom_site_fract_x
  _atom_site_fract_y
  _atom_site_fract_z
  _atom_site_thermal_displace_type
  _atom_site_B_iso_or_equiv
  _atom_site_type_symbol
  O1       1.0000 0.05610  0.35070  0.76770  Biso   1.000  O
  C1       1.0000 0.06330  0.66770  0.98610  Biso   1.000  C
  C2       1.0000 0.05710  0.55400  0.88710  Biso   1.000  C
  C3       1.0000 0.05720  0.48670  0.84740  Biso   1.000  C
  O2       1.0000 0.32760  0.78040  0.19330  Biso   1.000  O
  O3       1.0000 0.36110  0.81900  0.13970  Biso   1.000  O
  H1       1.0000 0.06340  0.61450  0.01050  Biso   1.000  H
  H2       1.0000 0.10540  0.66190  0.96300  Biso   1.000  H
  H3       1.0000 0.10150  0.57500  0.90120  Biso   1.000  H
  H4       1.0000 0.10250  0.46470  0.83410  Biso   1.000  H
  O4       1.0000 0.55610  0.85070  0.26770  Biso   1.000  O
  C4       1.0000 0.56330  0.16770  0.48610  Biso   1.000  C
  C5       1.0000 0.55710  0.05400  0.38710  Biso   1.000  C
  C6       1.0000 0.55720  0.98670  0.34740  Biso   1.000  C
  O5       1.0000 0.82760  0.28040  0.69330  Biso   1.000  O
  O6       1.0000 0.86110  0.31900  0.63970  Biso   1.000  O
  H5       1.0000 0.56340  0.11450  0.51050  Biso   1.000  H
  H6       1.0000 0.60540  0.16190  0.46300  Biso   1.000  H
  H7       1.0000 0.60150  0.07500  0.40120  Biso   1.000  H
  H8       1.0000 0.60250  0.96470  0.33410  Biso   1.000  H
  O7       1.0000 0.94390  0.14930  0.76770  Biso   1.000  O
  C7       1.0000 0.93670  0.83230  0.98610  Biso   1.000  C
  C8       1.0000 0.94290  0.94600  0.88710  Biso   1.000  C
  C9       1.0000 0.94280  0.01330  0.84740  Biso   1.000  C
  O8       1.0000 0.67240  0.71960  0.19330  Biso   1.000  O
  O9       1.0000 0.63890  0.68100  0.13970  Biso   1.000  O
  H9       1.0000 0.93660  0.88550  0.01050  Biso   1.000  H
  H10      1.0000 0.89460  0.83810  0.96300  Biso   1.000  H
  H11      1.0000 0.89850  0.92500  0.90120  Biso   1.000  H
  H12      1.0000 0.89750  0.03530  0.83410  Biso   1.000  H
  O10      1.0000 0.44390  0.64930  0.26770  Biso   1.000  O
  C10      1.0000 0.43670  0.33230  0.48610  Biso   1.000  C
  C11      1.0000 0.44290  0.44600  0.38710  Biso   1.000  C
  C12      1.0000 0.44280  0.51330  0.34740  Biso   1.000  C
  O11      1.0000 0.17240  0.21960  0.69330  Biso   1.000  O
  O12      1.0000 0.13890  0.18100  0.63970  Biso   1.000  O
  H13      1.0000 0.43660  0.38550  0.51050  Biso   1.000  H
  H14      1.0000 0.39460  0.33810  0.46300  Biso   1.000  H
  H15      1.0000 0.39850  0.42500  0.40120  Biso   1.000  H
  H16      1.0000 0.39750  0.53530  0.33410  Biso   1.000  H
  O13      1.0000 0.05610  0.14930  0.76770  Biso   1.000  O
  C13      1.0000 0.06330  0.83230  0.98610  Biso   1.000  C
  C14      1.0000 0.05710  0.94600  0.88710  Biso   1.000  C
  C15      1.0000 0.05720  0.01330  0.84740  Biso   1.000  C
  O14      1.0000 0.32760  0.71960  0.19330  Biso   1.000  O
  O15      1.0000 0.36110  0.68100  0.13970  Biso   1.000  O
  H17      1.0000 0.06340  0.88550  0.01050  Biso   1.000  H
  H18      1.0000 0.10540  0.83810  0.96300  Biso   1.000  H
  H19      1.0000 0.10150  0.92500  0.90120  Biso   1.000  H
  H20      1.0000 0.10250  0.03530  0.83410  Biso   1.000  H
  O16      1.0000 0.55610  0.64930  0.26770  Biso   1.000  O
  C16      1.0000 0.56330  0.33230  0.48610  Biso   1.000  C
  C17      1.0000 0.55710  0.44600  0.38710  Biso   1.000  C
  C18      1.0000 0.55720  0.51330  0.34740  Biso   1.000  C
  O17      1.0000 0.82760  0.21960  0.69330  Biso   1.000  O
  O18      1.0000 0.86110  0.18100  0.63970  Biso   1.000  O
  H21      1.0000 0.56340  0.38550  0.51050  Biso   1.000  H
  H22      1.0000 0.60540  0.33810  0.46300  Biso   1.000  H
  H23      1.0000 0.60150  0.42500  0.40120  Biso   1.000  H
  H24      1.0000 0.60250  0.53530  0.33410  Biso   1.000  H
  O19      1.0000 0.94390  0.35070  0.76770  Biso   1.000  O
  C19      1.0000 0.93670  0.66770  0.98610  Biso   1.000  C
  C20      1.0000 0.94290  0.55400  0.88710  Biso   1.000  C
  C21      1.0000 0.94280  0.48670  0.84740  Biso   1.000  C
  O20      1.0000 0.67240  0.78040  0.19330  Biso   1.000  O
  O21      1.0000 0.63890  0.81900  0.13970  Biso   1.000  O
  H25      1.0000 0.93660  0.61450  0.01050  Biso   1.000  H
  H26      1.0000 0.89460  0.66190  0.96300  Biso   1.000  H
  H27      1.0000 0.89850  0.57500  0.90120  Biso   1.000  H
  H28      1.0000 0.89750  0.46470  0.83410  Biso   1.000  H
  O22      1.0000 0.44390  0.85070  0.26770  Biso   1.000  O
  C22      1.0000 0.43670  0.16770  0.48610  Biso   1.000  C
  C23      1.0000 0.44290  0.05400  0.38710  Biso   1.000  C
  C24      1.0000 0.44280  0.98670  0.34740  Biso   1.000  C
  O23      1.0000 0.17240  0.28040  0.69330  Biso   1.000  O
  O24      1.0000 0.13890  0.31900  0.63970  Biso   1.000  O
  H29      1.0000 0.43660  0.11450  0.51050  Biso   1.000  H
  H30      1.0000 0.39460  0.16190  0.46300  Biso   1.000  H
  H31      1.0000 0.39850  0.07500  0.40120  Biso   1.000  H
  H32      1.0000 0.39750  0.96470  0.33410  Biso   1.000  H
  Zn1      1.0000 0.07650  0.25000  0.71620  Biso   1.000  Zn
  Zn2      1.0000 0.57650  0.75000  0.21620  Biso   1.000  Zn
  Zn3      1.0000 0.92350  0.25000  0.71620  Biso   1.000  Zn
  Zn4      1.0000 0.42350  0.75000  0.21620  Biso   1.000  Zn
  O25      1.0000 0.00000  0.25000  0.66500  Biso   1.000  O
  O26      1.0000 0.50000  0.75000  0.16500  Biso   1.000  O
  C25      1.0000 0.06530  0.75000  0.02250  Biso   1.000  C
  C26      1.0000 0.12920  0.75000  0.06080  Biso   1.000  C
  C27      1.0000 0.18950  0.75000  0.03310  Biso   1.000  C
  C28      1.0000 0.24930  0.75000  0.06160  Biso   1.000  C
  C29      1.0000 0.25260  0.75000  0.11900  Biso   1.000  C
  C30      1.0000 0.19420  0.75000  0.14900  Biso   1.000  C
  C31      1.0000 0.13640  0.75000  0.11790  Biso   1.000  C
  C32      1.0000 0.32700  0.75000  0.14410  Biso   1.000  C
  H33      1.0000 0.96010  0.75000  0.88380  Biso   1.000  H
  H34      1.0000 0.19330  0.75000  0.99100  Biso   1.000  H
  H35      1.0000 0.29320  0.75000  0.04360  Biso   1.000  H
  H36      1.0000 0.18880  0.75000  0.19220  Biso   1.000  H
  H37      1.0000 0.09140  0.75000  0.13740  Biso   1.000  H
  C33      1.0000 0.56530  0.25000  0.52250  Biso   1.000  C
  C34      1.0000 0.62920  0.25000  0.56080  Biso   1.000  C
  C35      1.0000 0.68950  0.25000  0.53310  Biso   1.000  C
  C36      1.0000 0.74930  0.25000  0.56160  Biso   1.000  C
  C37      1.0000 0.75260  0.25000  0.61900  Biso   1.000  C
  C38      1.0000 0.69420  0.25000  0.64900  Biso   1.000  C
  C39      1.0000 0.63640  0.25000  0.61790  Biso   1.000  C
  C40      1.0000 0.82700  0.25000  0.64410  Biso   1.000  C
  H38      1.0000 0.46010  0.25000  0.38380  Biso   1.000  H
  H39      1.0000 0.69330  0.25000  0.49100  Biso   1.000  H
  H40      1.0000 0.79320  0.25000  0.54360  Biso   1.000  H
  H41      1.0000 0.68880  0.25000  0.69220  Biso   1.000  H
  H42      1.0000 0.59140  0.25000  0.63740  Biso   1.000  H
  C41      1.0000 0.93470  0.75000  0.02250  Biso   1.000  C
  C42      1.0000 0.87080  0.75000  0.06080  Biso   1.000  C
  C43      1.0000 0.81050  0.75000  0.03310  Biso   1.000  C
  C44      1.0000 0.75070  0.75000  0.06160  Biso   1.000  C
  C45      1.0000 0.74740  0.75000  0.11900  Biso   1.000  C
  C46      1.0000 0.80580  0.75000  0.14900  Biso   1.000  C
  C47      1.0000 0.86360  0.75000  0.11790  Biso   1.000  C
  C48      1.0000 0.67300  0.75000  0.14410  Biso   1.000  C
  H43      1.0000 0.03990  0.75000  0.88380  Biso   1.000  H
  H44      1.0000 0.80670  0.75000  0.99100  Biso   1.000  H
  H45      1.0000 0.70680  0.75000  0.04360  Biso   1.000  H
  H46      1.0000 0.81120  0.75000  0.19220  Biso   1.000  H
  H47      1.0000 0.90860  0.75000  0.13740  Biso   1.000  H
  C49      1.0000 0.43470  0.25000  0.52250  Biso   1.000  C
  C50      1.0000 0.37080  0.25000  0.56080  Biso   1.000  C
  C51      1.0000 0.31050  0.25000  0.53310  Biso   1.000  C
  C52      1.0000 0.25070  0.25000  0.56160  Biso   1.000  C
  C53      1.0000 0.24740  0.25000  0.61900  Biso   1.000  C
  C54      1.0000 0.30580  0.25000  0.64900  Biso   1.000  C
  C55      1.0000 0.36360  0.25000  0.61790  Biso   1.000  C
  C56      1.0000 0.17300  0.25000  0.64410  Biso   1.000  C
  H48      1.0000 0.53990  0.25000  0.38380  Biso   1.000  H
  H49      1.0000 0.30670  0.25000  0.49100  Biso   1.000  H
  H50      1.0000 0.20680  0.25000  0.54360  Biso   1.000  H
  H51      1.0000 0.31120  0.25000  0.69220  Biso   1.000  H
  H52      1.0000 0.40860  0.25000  0.63740  Biso   1.000  H
  C57      1.0000 0.00000  0.66940  0.94790  Biso   1.000  C
  C58      1.0000 0.00000  0.59140  0.90880  Biso   1.000  C
  C59      1.0000 0.00000  0.44980  0.82590  Biso   1.000  C
  C60      1.0000 0.00000  0.37830  0.78300  Biso   1.000  C
  H53      1.0000 0.00000  0.80110  0.08650  Biso   1.000  H
  C61      1.0000 0.50000  0.16940  0.44790  Biso   1.000  C
  C62      1.0000 0.50000  0.09140  0.40880  Biso   1.000  C
  C63      1.0000 0.50000  0.94980  0.32590  Biso   1.000  C
  C64      1.0000 0.50000  0.87830  0.28300  Biso   1.000  C
  H54      1.0000 0.50000  0.30110  0.58650  Biso   1.000  H
  C65      1.0000 0.00000  0.83060  0.94790  Biso   1.000  C
  C66      1.0000 0.00000  0.90860  0.90880  Biso   1.000  C
  C67      1.0000 0.00000  0.05020  0.82590  Biso   1.000  C
  C68      1.0000 0.00000  0.12170  0.78300  Biso   1.000  C
  H55      1.0000 0.00000  0.69890  0.08650  Biso   1.000  H
  C69      1.0000 0.50000  0.33060  0.44790  Biso   1.000  C
  C70      1.0000 0.50000  0.40860  0.40880  Biso   1.000  C
  C71      1.0000 0.50000  0.55020  0.32590  Biso   1.000  C
  C72      1.0000 0.50000  0.62170  0.28300  Biso   1.000  C
  H56      1.0000 0.50000  0.19890  0.58650  Biso   1.000  H
  C73      1.0000 0.00000  0.75000  0.90920  Biso   1.000  C
  C74      1.0000 0.00000  0.75000  0.05920  Biso   1.000  C
  C75      1.0000 0.50000  0.25000  0.40920  Biso   1.000  C
  C76      1.0000 0.50000  0.25000  0.55920  Biso   1.000  C
  O27      1.0000 0.94390  0.85070  0.23230  Biso   1.000  O
  C77      1.0000 0.93670  0.16770  0.01390  Biso   1.000  C
  C78      1.0000 0.94290  0.05400  0.11290  Biso   1.000  C
  C79      1.0000 0.94280  0.98670  0.15260  Biso   1.000  C
  O28      1.0000 0.67240  0.28040  0.80670  Biso   1.000  O
  O29      1.0000 0.63890  0.31900  0.86030  Biso   1.000  O
  H57      1.0000 0.93660  0.11450  0.98950  Biso   1.000  H
  H58      1.0000 0.89460  0.16190  0.03700  Biso   1.000  H
  H59      1.0000 0.89850  0.07500  0.09880  Biso   1.000  H
  H60      1.0000 0.89750  0.96470  0.16590  Biso   1.000  H
  O30      1.0000 0.44390  0.35070  0.73230  Biso   1.000  O
  C80      1.0000 0.43670  0.66770  0.51390  Biso   1.000  C
  C81      1.0000 0.44290  0.55400  0.61290  Biso   1.000  C
  C82      1.0000 0.44280  0.48670  0.65260  Biso   1.000  C
  O31      1.0000 0.17240  0.78040  0.30670  Biso   1.000  O
  O32      1.0000 0.13890  0.81900  0.36030  Biso   1.000  O
  H61      1.0000 0.43660  0.61450  0.48950  Biso   1.000  H
  H62      1.0000 0.39460  0.66190  0.53700  Biso   1.000  H
  H63      1.0000 0.39850  0.57500  0.59880  Biso   1.000  H
  H64      1.0000 0.39750  0.46470  0.66590  Biso   1.000  H
  O33      1.0000 0.05610  0.64930  0.23230  Biso   1.000  O
  C83      1.0000 0.06330  0.33230  0.01390  Biso   1.000  C
  C84      1.0000 0.05710  0.44600  0.11290  Biso   1.000  C
  C85      1.0000 0.05720  0.51330  0.15260  Biso   1.000  C
  O34      1.0000 0.32760  0.21960  0.80670  Biso   1.000  O
  O35      1.0000 0.36110  0.18100  0.86030  Biso   1.000  O
  H65      1.0000 0.06340  0.38550  0.98950  Biso   1.000  H
  H66      1.0000 0.10540  0.33810  0.03700  Biso   1.000  H
  H67      1.0000 0.10150  0.42500  0.09880  Biso   1.000  H
  H68      1.0000 0.10250  0.53530  0.16590  Biso   1.000  H
  O36      1.0000 0.55610  0.14930  0.73230  Biso   1.000  O
  C86      1.0000 0.56330  0.83230  0.51390  Biso   1.000  C
  C87      1.0000 0.55710  0.94600  0.61290  Biso   1.000  C
  C88      1.0000 0.55720  0.01330  0.65260  Biso   1.000  C
  O37      1.0000 0.82760  0.71960  0.30670  Biso   1.000  O
  O38      1.0000 0.86110  0.68100  0.36030  Biso   1.000  O
  H69      1.0000 0.56340  0.88550  0.48950  Biso   1.000  H
  H70      1.0000 0.60540  0.83810  0.53700  Biso   1.000  H
  H71      1.0000 0.60150  0.92500  0.59880  Biso   1.000  H
  H72      1.0000 0.60250  0.03530  0.66590  Biso   1.000  H
  O39      1.0000 0.94390  0.64930  0.23230  Biso   1.000  O
  C89      1.0000 0.93670  0.33230  0.01390  Biso   1.000  C
  C90      1.0000 0.94290  0.44600  0.11290  Biso   1.000  C
  C91      1.0000 0.94280  0.51330  0.15260  Biso   1.000  C
  O40      1.0000 0.67240  0.21960  0.80670  Biso   1.000  O
  O41      1.0000 0.63890  0.18100  0.86030  Biso   1.000  O
  H73      1.0000 0.93660  0.38550  0.98950  Biso   1.000  H
  H74      1.0000 0.89460  0.33810  0.03700  Biso   1.000  H
  H75      1.0000 0.89850  0.42500  0.09880  Biso   1.000  H
  H76      1.0000 0.89750  0.53530  0.16590  Biso   1.000  H
  O42      1.0000 0.44390  0.14930  0.73230  Biso   1.000  O
  C92      1.0000 0.43670  0.83230  0.51390  Biso   1.000  C
  C93      1.0000 0.44290  0.94600  0.61290  Biso   1.000  C
  C94      1.0000 0.44280  0.01330  0.65260  Biso   1.000  C
  O43      1.0000 0.17240  0.71960  0.30670  Biso   1.000  O
  O44      1.0000 0.13890  0.68100  0.36030  Biso   1.000  O
  H77      1.0000 0.43660  0.88550  0.48950  Biso   1.000  H
  H78      1.0000 0.39460  0.83810  0.53700  Biso   1.000  H
  H79      1.0000 0.39850  0.92500  0.59880  Biso   1.000  H
  H80      1.0000 0.39750  0.03530  0.66590  Biso   1.000  H
  O45      1.0000 0.05610  0.85070  0.23230  Biso   1.000  O
  C95      1.0000 0.06330  0.16770  0.01390  Biso   1.000  C
  C96      1.0000 0.05710  0.05400  0.11290  Biso   1.000  C
  C97      1.0000 0.05720  0.98670  0.15260  Biso   1.000  C
  O46      1.0000 0.32760  0.28040  0.80670  Biso   1.000  O
  O47      1.0000 0.36110  0.31900  0.86030  Biso   1.000  O
  H81      1.0000 0.06340  0.11450  0.98950  Biso   1.000  H
  H82      1.0000 0.10540  0.16190  0.03700  Biso   1.000  H
  H83      1.0000 0.10150  0.07500  0.09880  Biso   1.000  H
  H84      1.0000 0.10250  0.96470  0.16590  Biso   1.000  H
  O48      1.0000 0.55610  0.35070  0.73230  Biso   1.000  O
  C98      1.0000 0.56330  0.66770  0.51390  Biso   1.000  C
  C99      1.0000 0.55710  0.55400  0.61290  Biso   1.000  C
  C100     1.0000 0.55720  0.48670  0.65260  Biso   1.000  C
  O49      1.0000 0.82760  0.78040  0.30670  Biso   1.000  O
  O50      1.0000 0.86110  0.81900  0.36030  Biso   1.000  O
  H85      1.0000 0.56340  0.61450  0.48950  Biso   1.000  H
  H86      1.0000 0.60540  0.66190  0.53700  Biso   1.000  H
  H87      1.0000 0.60150  0.57500  0.59880  Biso   1.000  H
  H88      1.0000 0.60250  0.46470  0.66590  Biso   1.000  H
  Zn5      1.0000 0.92350  0.75000  0.28380  Biso   1.000  Zn
  Zn6      1.0000 0.42350  0.25000  0.78380  Biso   1.000  Zn
  Zn7      1.0000 0.07650  0.75000  0.28380  Biso   1.000  Zn
  Zn8      1.0000 0.57650  0.25000  0.78380  Biso   1.000  Zn
  O51      1.0000 0.00000  0.75000  0.33500  Biso   1.000  O
  O52      1.0000 0.50000  0.25000  0.83500  Biso   1.000  O
  C101     1.0000 0.93470  0.25000  0.97750  Biso   1.000  C
  C102     1.0000 0.87080  0.25000  0.93920  Biso   1.000  C
  C103     1.0000 0.81050  0.25000  0.96690  Biso   1.000  C
  C104     1.0000 0.75070  0.25000  0.93840  Biso   1.000  C
  C105     1.0000 0.74740  0.25000  0.88100  Biso   1.000  C
  C106     1.0000 0.80580  0.25000  0.85100  Biso   1.000  C
  C107     1.0000 0.86360  0.25000  0.88210  Biso   1.000  C
  C108     1.0000 0.67300  0.25000  0.85590  Biso   1.000  C
  H89      1.0000 0.03990  0.25000  0.11620  Biso   1.000  H
  H90      1.0000 0.80670  0.25000  0.00900  Biso   1.000  H
  H91      1.0000 0.70680  0.25000  0.95640  Biso   1.000  H
  H92      1.0000 0.81120  0.25000  0.80780  Biso   1.000  H
  H93      1.0000 0.90860  0.25000  0.86260  Biso   1.000  H
  C109     1.0000 0.43470  0.75000  0.47750  Biso   1.000  C
  C110     1.0000 0.37080  0.75000  0.43920  Biso   1.000  C
  C111     1.0000 0.31050  0.75000  0.46690  Biso   1.000  C
  C112     1.0000 0.25070  0.75000  0.43840  Biso   1.000  C
  C113     1.0000 0.24740  0.75000  0.38100  Biso   1.000  C
  C114     1.0000 0.30580  0.75000  0.35100  Biso   1.000  C
  C115     1.0000 0.36360  0.75000  0.38210  Biso   1.000  C
  C116     1.0000 0.17300  0.75000  0.35590  Biso   1.000  C
  H94      1.0000 0.53990  0.75000  0.61620  Biso   1.000  H
  H95      1.0000 0.30670  0.75000  0.50900  Biso   1.000  H
  H96      1.0000 0.20680  0.75000  0.45640  Biso   1.000  H
  H97      1.0000 0.31120  0.75000  0.30780  Biso   1.000  H
  H98      1.0000 0.40860  0.75000  0.36260  Biso   1.000  H
  C117     1.0000 0.06530  0.25000  0.97750  Biso   1.000  C
  C118     1.0000 0.12920  0.25000  0.93920  Biso   1.000  C
  C119     1.0000 0.18950  0.25000  0.96690  Biso   1.000  C
  C120     1.0000 0.24930  0.25000  0.93840  Biso   1.000  C
  C121     1.0000 0.25260  0.25000  0.88100  Biso   1.000  C
  C122     1.0000 0.19420  0.25000  0.85100  Biso   1.000  C
  C123     1.0000 0.13640  0.25000  0.88210  Biso   1.000  C
  C124     1.0000 0.32700  0.25000  0.85590  Biso   1.000  C
  H99      1.0000 0.96010  0.25000  0.11620  Biso   1.000  H
  H100     1.0000 0.19330  0.25000  0.00900  Biso   1.000  H
  H101     1.0000 0.29320  0.25000  0.95640  Biso   1.000  H
  H102     1.0000 0.18880  0.25000  0.80780  Biso   1.000  H
  H103     1.0000 0.09140  0.25000  0.86260  Biso   1.000  H
  C125     1.0000 0.56530  0.75000  0.47750  Biso   1.000  C
  C126     1.0000 0.62920  0.75000  0.43920  Biso   1.000  C
  C127     1.0000 0.68950  0.75000  0.46690  Biso   1.000  C
  C128     1.0000 0.74930  0.75000  0.43840  Biso   1.000  C
  C129     1.0000 0.75260  0.75000  0.38100  Biso   1.000  C
  C130     1.0000 0.69420  0.75000  0.35100  Biso   1.000  C
  C131     1.0000 0.63640  0.75000  0.38210  Biso   1.000  C
  C132     1.0000 0.82700  0.75000  0.35590  Biso   1.000  C
  H104     1.0000 0.46010  0.75000  0.61620  Biso   1.000  H
  H105     1.0000 0.69330  0.75000  0.50900  Biso   1.000  H
  H106     1.0000 0.79320  0.75000  0.45640  Biso   1.000  H
  H107     1.0000 0.68880  0.75000  0.30780  Biso   1.000  H
  H108     1.0000 0.59140  0.75000  0.36260  Biso   1.000  H
  C133     1.0000 0.00000  0.16940  0.05210  Biso   1.000  C
  C134     1.0000 0.00000  0.09140  0.09120  Biso   1.000  C
  C135     1.0000 0.00000  0.94980  0.17410  Biso   1.000  C
  C136     1.0000 0.00000  0.87830  0.21700  Biso   1.000  C
  H109     1.0000 0.00000  0.30110  0.91350  Biso   1.000  H
  C137     1.0000 0.50000  0.66940  0.55210  Biso   1.000  C
  C138     1.0000 0.50000  0.59140  0.59120  Biso   1.000  C
  C139     1.0000 0.50000  0.44980  0.67410  Biso   1.000  C
  C140     1.0000 0.50000  0.37830  0.71700  Biso   1.000  C
  H110     1.0000 0.50000  0.80110  0.41350  Biso   1.000  H
  C141     1.0000 0.00000  0.33060  0.05210  Biso   1.000  C
  C142     1.0000 0.00000  0.40860  0.09120  Biso   1.000  C
  C143     1.0000 0.00000  0.55020  0.17410  Biso   1.000  C
  C144     1.0000 0.00000  0.62170  0.21700  Biso   1.000  C
  H111     1.0000 0.00000  0.19890  0.91350  Biso   1.000  H
  C145     1.0000 0.50000  0.83060  0.55210  Biso   1.000  C
  C146     1.0000 0.50000  0.90860  0.59120  Biso   1.000  C
  C147     1.0000 0.50000  0.05020  0.67410  Biso   1.000  C
  C148     1.0000 0.50000  0.12170  0.71700  Biso   1.000  C
  H112     1.0000 0.50000  0.69890  0.41350  Biso   1.000  H
  C149     1.0000 0.00000  0.25000  0.09080  Biso   1.000  C
  C150     1.0000 0.00000  0.25000  0.94080  Biso   1.000  C
  C151     1.0000 0.50000  0.75000  0.59080  Biso   1.000  C
  C152     1.0000 0.50000  0.75000  0.44080  Biso   1.000  C
