data_image0
_cell_length_a       10.8212
_cell_length_b       10.8212
_cell_length_c       10.8212
_cell_angle_alpha    90
_cell_angle_beta     90
_cell_angle_gamma    90

_symmetry_space_group_name_H-M    "P 1"
_symmetry_int_tables_number       1

loop_
  _symmetry_equiv_pos_as_xyz
  'x, y, z'

loop_
  _atom_site_label
  _atom_site_occupancy
  _atom_site_fract_x
  _atom_site_fract_y
  _atom_site_fract_z
  _atom_site_thermal_displace_type
  _atom_site_B_iso_or_equiv
  _atom_site_type_symbol
  O1       1.0000 0.24600  0.10700  0.02200  Biso   1.000  O
  O2       1.0000 0.25400  0.39300  0.02200  Biso   1.000  O
  O3       1.0000 0.25400  0.10700  0.47800  Biso   1.000  O
  O4       1.0000 0.24600  0.39300  0.47800  Biso   1.000  O
  O5       1.0000 0.02200  0.24600  0.10700  Biso   1.000  O
  O6       1.0000 0.02200  0.25400  0.39300  Biso   1.000  O
  O7       1.0000 0.47800  0.25400  0.10700  Biso   1.000  O
  O8       1.0000 0.47800  0.24600  0.39300  Biso   1.000  O
  O9       1.0000 0.10700  0.02200  0.24600  Biso   1.000  O
  O10      1.0000 0.39300  0.02200  0.25400  Biso   1.000  O
  O11      1.0000 0.10700  0.47800  0.25400  Biso   1.000  O
  O12      1.0000 0.39300  0.47800  0.24600  Biso   1.000  O
  O13      1.0000 0.60700  0.74600  0.97800  Biso   1.000  O
  O14      1.0000 0.89300  0.75400  0.97800  Biso   1.000  O
  O15      1.0000 0.60700  0.75400  0.52200  Biso   1.000  O
  O16      1.0000 0.89300  0.74600  0.52200  Biso   1.000  O
  O17      1.0000 0.74600  0.52200  0.89300  Biso   1.000  O
  O18      1.0000 0.75400  0.52200  0.60700  Biso   1.000  O
  O19      1.0000 0.75400  0.97800  0.89300  Biso   1.000  O
  O20      1.0000 0.74600  0.97800  0.60700  Biso   1.000  O
  O21      1.0000 0.52200  0.60700  0.75400  Biso   1.000  O
  O22      1.0000 0.52200  0.89300  0.74600  Biso   1.000  O
  O23      1.0000 0.97800  0.60700  0.74600  Biso   1.000  O
  O24      1.0000 0.97800  0.89300  0.75400  Biso   1.000  O
  O25      1.0000 0.75400  0.89300  0.97800  Biso   1.000  O
  O26      1.0000 0.74600  0.60700  0.97800  Biso   1.000  O
  O27      1.0000 0.74600  0.89300  0.52200  Biso   1.000  O
  O28      1.0000 0.75400  0.60700  0.52200  Biso   1.000  O
  O29      1.0000 0.97800  0.75400  0.89300  Biso   1.000  O
  O30      1.0000 0.97800  0.74600  0.60700  Biso   1.000  O
  O31      1.0000 0.52200  0.74600  0.89300  Biso   1.000  O
  O32      1.0000 0.52200  0.75400  0.60700  Biso   1.000  O
  O33      1.0000 0.89300  0.97800  0.75400  Biso   1.000  O
  O34      1.0000 0.60700  0.97800  0.74600  Biso   1.000  O
  O35      1.0000 0.89300  0.52200  0.74600  Biso   1.000  O
  O36      1.0000 0.60700  0.52200  0.75400  Biso   1.000  O
  O37      1.0000 0.39300  0.25400  0.02200  Biso   1.000  O
  O38      1.0000 0.10700  0.24600  0.02200  Biso   1.000  O
  O39      1.0000 0.39300  0.24600  0.47800  Biso   1.000  O
  O40      1.0000 0.10700  0.25400  0.47800  Biso   1.000  O
  O41      1.0000 0.25400  0.47800  0.10700  Biso   1.000  O
  O42      1.0000 0.24600  0.47800  0.39300  Biso   1.000  O
  O43      1.0000 0.24600  0.02200  0.10700  Biso   1.000  O
  O44      1.0000 0.25400  0.02200  0.39300  Biso   1.000  O
  O45      1.0000 0.47800  0.39300  0.24600  Biso   1.000  O
  O46      1.0000 0.47800  0.10700  0.25400  Biso   1.000  O
  O47      1.0000 0.02200  0.39300  0.25400  Biso   1.000  O
  O48      1.0000 0.02200  0.10700  0.24600  Biso   1.000  O
  Zn1      1.0000 0.25000  0.25000  0.25000  Biso   1.000  Zn
  Zn2      1.0000 0.75000  0.75000  0.75000  Biso   1.000  Zn
  O49      1.0000 0.14760  0.14760  0.14760  Biso   1.000  O
  C1       1.0000 0.02860  0.02860  0.02860  Biso   1.000  C
  O50      1.0000 0.35240  0.35240  0.14760  Biso   1.000  O
  C2       1.0000 0.47140  0.47140  0.02860  Biso   1.000  C
  O51      1.0000 0.35240  0.14760  0.35240  Biso   1.000  O
  C3       1.0000 0.47140  0.02860  0.47140  Biso   1.000  C
  O52      1.0000 0.14760  0.35240  0.35240  Biso   1.000  O
  C4       1.0000 0.02860  0.47140  0.47140  Biso   1.000  C
  O53      1.0000 0.64760  0.64760  0.85240  Biso   1.000  O
  C5       1.0000 0.52860  0.52860  0.97140  Biso   1.000  C
  O54      1.0000 0.85240  0.85240  0.85240  Biso   1.000  O
  C6       1.0000 0.97140  0.97140  0.97140  Biso   1.000  C
  O55      1.0000 0.64760  0.85240  0.64760  Biso   1.000  O
  C7       1.0000 0.52860  0.97140  0.52860  Biso   1.000  C
  O56      1.0000 0.85240  0.64760  0.64760  Biso   1.000  O
  C8       1.0000 0.97140  0.52860  0.52860  Biso   1.000  C
  C9       1.0000 0.16600  0.08885  0.08885  Biso   1.000  C
  C10      1.0000 0.33400  0.41115  0.08885  Biso   1.000  C
  C11      1.0000 0.33400  0.08885  0.41115  Biso   1.000  C
  C12      1.0000 0.16600  0.41115  0.41115  Biso   1.000  C
  C13      1.0000 0.08885  0.16600  0.08885  Biso   1.000  C
  C14      1.0000 0.08885  0.33400  0.41115  Biso   1.000  C
  C15      1.0000 0.41115  0.33400  0.08885  Biso   1.000  C
  C16      1.0000 0.41115  0.16600  0.41115  Biso   1.000  C
  C17      1.0000 0.08885  0.08885  0.16600  Biso   1.000  C
  C18      1.0000 0.41115  0.08885  0.33400  Biso   1.000  C
  C19      1.0000 0.08885  0.41115  0.33400  Biso   1.000  C
  C20      1.0000 0.41115  0.41115  0.16600  Biso   1.000  C
  C21      1.0000 0.58885  0.66600  0.91115  Biso   1.000  C
  C22      1.0000 0.91115  0.83400  0.91115  Biso   1.000  C
  C23      1.0000 0.58885  0.83400  0.58885  Biso   1.000  C
  C24      1.0000 0.91115  0.66600  0.58885  Biso   1.000  C
  C25      1.0000 0.66600  0.58885  0.91115  Biso   1.000  C
  C26      1.0000 0.83400  0.58885  0.58885  Biso   1.000  C
  C27      1.0000 0.83400  0.91115  0.91115  Biso   1.000  C
  C28      1.0000 0.66600  0.91115  0.58885  Biso   1.000  C
  C29      1.0000 0.58885  0.58885  0.83400  Biso   1.000  C
  C30      1.0000 0.58885  0.91115  0.66600  Biso   1.000  C
  C31      1.0000 0.91115  0.58885  0.66600  Biso   1.000  C
  C32      1.0000 0.91115  0.91115  0.83400  Biso   1.000  C
  C33      1.0000 0.13210  0.13210  0.03610  Biso   1.000  C
  C34      1.0000 0.36790  0.36790  0.03610  Biso   1.000  C
  C35      1.0000 0.36790  0.13210  0.46390  Biso   1.000  C
  C36      1.0000 0.13210  0.36790  0.46390  Biso   1.000  C
  C37      1.0000 0.03610  0.13210  0.13210  Biso   1.000  C
  C38      1.0000 0.03610  0.36790  0.36790  Biso   1.000  C
  C39      1.0000 0.46390  0.36790  0.13210  Biso   1.000  C
  C40      1.0000 0.46390  0.13210  0.36790  Biso   1.000  C
  C41      1.0000 0.13210  0.03610  0.13210  Biso   1.000  C
  C42      1.0000 0.36790  0.03610  0.36790  Biso   1.000  C
  C43      1.0000 0.13210  0.46390  0.36790  Biso   1.000  C
  C44      1.0000 0.36790  0.46390  0.13210  Biso   1.000  C
  C45      1.0000 0.63210  0.63210  0.96390  Biso   1.000  C
  C46      1.0000 0.86790  0.86790  0.96390  Biso   1.000  C
  C47      1.0000 0.63210  0.86790  0.53610  Biso   1.000  C
  C48      1.0000 0.86790  0.63210  0.53610  Biso   1.000  C
  C49      1.0000 0.63210  0.53610  0.86790  Biso   1.000  C
  C50      1.0000 0.86790  0.53610  0.63210  Biso   1.000  C
  C51      1.0000 0.86790  0.96390  0.86790  Biso   1.000  C
  C52      1.0000 0.63210  0.96390  0.63210  Biso   1.000  C
  C53      1.0000 0.53610  0.63210  0.86790  Biso   1.000  C
  C54      1.0000 0.53610  0.86790  0.63210  Biso   1.000  C
  C55      1.0000 0.96390  0.63210  0.63210  Biso   1.000  C
  C56      1.0000 0.96390  0.86790  0.86790  Biso   1.000  C
