data_image0
_cell_length_a       20.8484
_cell_length_b       21.71
_cell_length_c       15.4856
_cell_angle_alpha    90
_cell_angle_beta     90
_cell_angle_gamma    90

_symmetry_space_group_name_H-M    "P 1"
_symmetry_int_tables_number       1

loop_
  _symmetry_equiv_pos_as_xyz
  'x, y, z'

loop_
  _atom_site_label
  _atom_site_occupancy
  _atom_site_fract_x
  _atom_site_fract_y
  _atom_site_fract_z
  _atom_site_thermal_displace_type
  _atom_site_B_iso_or_equiv
  _atom_site_type_symbol
  Fe1      1.0000 0.94677  0.67117  0.98153  Biso   1.000  Fe
  O1       1.0000 0.87780  0.72380  0.02060  Biso   1.000  O
  O2       1.0000 0.92650  0.58880  0.94300  Biso   1.000  O
  O3       1.0000 0.71630  0.75540  0.31060  Biso   1.000  O
  O4       1.0000 0.80620  0.47280  0.67260  Biso   1.000  O
  N1       1.0000 0.94800  0.63940  0.10890  Biso   1.000  N
  N2       1.0000 0.04670  0.63780  0.99670  Biso   1.000  N
  H1       1.0000 0.04970  0.60330  0.96360  Biso   1.000  H
  N3       1.0000 0.00810  0.75520  0.96500  Biso   1.000  N
  H2       1.0000 0.99150  0.78600  0.99810  Biso   1.000  H
  N4       1.0000 0.92010  0.69650  0.85670  Biso   1.000  N
  C1       1.0000 0.84640  0.73250  0.09290  Biso   1.000  C
  C2       1.0000 0.79850  0.77700  0.09090  Biso   1.000  C
  H3       1.0000 0.79400  0.80230  0.04280  Biso   1.000  H
  C3       1.0000 0.75730  0.78370  0.16090  Biso   1.000  C
  H4       1.0000 0.72530  0.81350  0.15960  Biso   1.000  H
  C4       1.0000 0.76410  0.74600  0.23280  Biso   1.000  C
  C5       1.0000 0.81200  0.70150  0.23480  Biso   1.000  C
  H5       1.0000 0.81650  0.67620  0.28290  Biso   1.000  H
  C6       1.0000 0.85320  0.69470  0.16480  Biso   1.000  C
  C7       1.0000 0.90610  0.65330  0.17240  Biso   1.000  C
  H6       1.0000 0.91220  0.63440  0.22560  Biso   1.000  H
  C8       1.0000 0.99680  0.59160  0.12370  Biso   1.000  C
  H7       1.0000 0.98530  0.55370  0.09450  Biso   1.000  H
  H8       1.0000 0.00150  0.58330  0.18490  Biso   1.000  H
  C9       1.0000 0.05820  0.61770  0.08700  Biso   1.000  C
  H9       1.0000 0.07230  0.65240  0.12160  Biso   1.000  H
  H10      1.0000 0.09160  0.58650  0.08830  Biso   1.000  H
  C10      1.0000 0.09480  0.68140  0.96210  Biso   1.000  C
  H11      1.0000 0.09580  0.67970  0.89950  Biso   1.000  H
  H12      1.0000 0.13720  0.67170  0.98400  Biso   1.000  H
  C11      1.0000 0.07370  0.74400  0.99250  Biso   1.000  C
  H13      1.0000 0.07640  0.74610  0.05490  Biso   1.000  H
  H14      1.0000 0.10170  0.77530  0.96860  Biso   1.000  H
  C12      1.0000 0.00040  0.77350  0.86800  Biso   1.000  C
  H15      1.0000 0.01020  0.81680  0.86050  Biso   1.000  H
  H16      1.0000 0.03000  0.74980  0.83280  Biso   1.000  H
  C13      1.0000 0.93510  0.76130  0.84090  Biso   1.000  C
  H17      1.0000 0.93040  0.77060  0.78000  Biso   1.000  H
  H18      1.0000 0.90580  0.78740  0.87300  Biso   1.000  H
  C14      1.0000 0.89210  0.66520  0.79740  Biso   1.000  C
  H19      1.0000 0.88060  0.68520  0.74660  Biso   1.000  H
  C15      1.0000 0.87740  0.59990  0.80550  Biso   1.000  C
  C16      1.0000 0.84700  0.57150  0.73630  Biso   1.000  C
  H20      1.0000 0.83190  0.59510  0.69040  Biso   1.000  H
  C17      1.0000 0.83900  0.50790  0.73560  Biso   1.000  C
  C18      1.0000 0.86150  0.47270  0.80420  Biso   1.000  C
  H21      1.0000 0.85610  0.43020  0.80370  Biso   1.000  H
  C19      1.0000 0.89190  0.50110  0.87340  Biso   1.000  C
  H22      1.0000 0.90700  0.47750  0.91930  Biso   1.000  H
  C20      1.0000 0.89990  0.56460  0.87410  Biso   1.000  C
  C21      1.0000 0.74980  0.74980  0.38440  Biso   1.000  C
  H23      1.0000 0.72160  0.75550  0.43280  Biso   1.000  H
  H24      1.0000 0.78300  0.78040  0.38590  Biso   1.000  H
  H25      1.0000 0.76870  0.70950  0.38720  Biso   1.000  H
  C22      1.0000 0.77370  0.50470  0.61390  Biso   1.000  C
  H26      1.0000 0.75350  0.47680  0.57420  Biso   1.000  H
  H27      1.0000 0.80260  0.53120  0.58310  Biso   1.000  H
  H28      1.0000 0.74150  0.52910  0.64210  Biso   1.000  H
  C23      1.0000 0.86840  0.74810  0.08490  Biso   1.000  C
  C24      1.0000 0.82460  0.74030  0.15170  Biso   1.000  C
  C25      1.0000 0.77880  0.78530  0.16790  Biso   1.000  C
  C26      1.0000 0.77670  0.83810  0.11740  Biso   1.000  C
  C27      1.0000 0.82050  0.84600  0.05060  Biso   1.000  C
  C28      1.0000 0.86630  0.80100  0.03430  Biso   1.000  C
  C29      1.0000 0.91730  0.81090  0.98220  Biso   1.000  C
  C30      1.0000 0.01770  0.78610  0.91190  Biso   1.000  C
  C31      1.0000 0.04990  0.74170  0.86100  Biso   1.000  C
  C32      1.0000 0.10540  0.67160  0.98570  Biso   1.000  C
  C33      1.0000 0.10540  0.70900  0.05770  Biso   1.000  C
  C34      1.0000 0.02700  0.65300  0.15400  Biso   1.000  C
  C35      1.0000 0.02670  0.59790  0.11550  Biso   1.000  C
  C36      1.0000 0.94980  0.55390  0.00000  Biso   1.000  C
  C37      1.0000 0.90940  0.56010  0.92760  Biso   1.000  C
  C38      1.0000 0.89060  0.50530  0.88870  Biso   1.000  C
  C39      1.0000 0.85620  0.50650  0.81180  Biso   1.000  C
  C40      1.0000 0.84050  0.56260  0.77390  Biso   1.000  C
  C41      1.0000 0.85920  0.61740  0.81290  Biso   1.000  C
  C42      1.0000 0.89370  0.61610  0.88970  Biso   1.000  C
  C43      1.0000 0.73450  0.93880  0.08700  Biso   1.000  C
  C44      1.0000 0.85950  0.39680  0.79820  Biso   1.000  C
  Fe2      1.0000 0.97300  0.68850  0.00450  Biso   1.000  Fe
  H29      1.0000 0.82600  0.70490  0.18550  Biso   1.000  H
  H30      1.0000 0.74950  0.78000  0.21260  Biso   1.000  H
  H31      1.0000 0.81910  0.88140  0.01680  Biso   1.000  H
  H32      1.0000 0.91750  0.84800  0.95210  Biso   1.000  H
  H33      1.0000 0.05060  0.80650  0.94580  Biso   1.000  H
  H34      1.0000 0.00130  0.81660  0.87190  Biso   1.000  H
  H35      1.0000 0.09350  0.75430  0.84790  Biso   1.000  H
  H36      1.0000 0.02710  0.73340  0.80770  Biso   1.000  H
  H37      1.0000 0.10390  0.62890  0.00420  Biso   1.000  H
  H38      1.0000 0.14520  0.67760  0.95440  Biso   1.000  H
  H39      1.0000 0.04350  0.64970  0.89080  Biso   1.000  H
  H40      1.0000 0.11420  0.75150  0.04220  Biso   1.000  H
  H41      1.0000 0.13710  0.69540  0.09940  Biso   1.000  H
  H42      1.0000 0.06090  0.65430  0.19730  Biso   1.000  H
  H43      1.0000 0.98660  0.65980  0.18350  Biso   1.000  H
  H44      1.0000 0.01280  0.56640  0.15570  Biso   1.000  H
  H45      1.0000 0.06920  0.58750  0.09490  Biso   1.000  H
  H46      1.0000 0.95670  0.51460  0.02210  Biso   1.000  H
  H47      1.0000 0.90120  0.46780  0.91400  Biso   1.000  H
  H48      1.0000 0.81740  0.56340  0.72250  Biso   1.000  H
  H49      1.0000 0.84870  0.65490  0.78760  Biso   1.000  H
  H50      1.0000 0.02720  0.73790  0.12080  Biso   1.000  H
  H51      1.0000 0.69870  0.96610  0.09440  Biso   1.000  H
  H52      1.0000 0.74330  0.93440  0.02610  Biso   1.000  H
  H53      1.0000 0.77150  0.95540  0.11520  Biso   1.000  H
  H54      1.0000 0.84180  0.36570  0.76110  Biso   1.000  H
  H55      1.0000 0.84590  0.38950  0.85650  Biso   1.000  H
  H56      1.0000 0.90550  0.39530  0.79530  Biso   1.000  H
  N5       1.0000 0.96820  0.77310  0.96850  Biso   1.000  N
  N6       1.0000 0.04860  0.68390  0.92410  Biso   1.000  N
  N7       1.0000 0.03730  0.70200  0.09370  Biso   1.000  N
  N8       1.0000 0.97940  0.60290  0.03950  Biso   1.000  N
  O5       1.0000 0.90740  0.70150  0.08810  Biso   1.000  O
  O6       1.0000 0.91460  0.67410  0.91950  Biso   1.000  O
  O7       1.0000 0.71940  0.88000  0.12240  Biso   1.000  O
  O8       1.0000 0.83520  0.46280  0.76760  Biso   1.000  O
  Fe3      1.0000 0.55323  0.17117  0.48153  Biso   1.000  Fe
  O9       1.0000 0.62220  0.22380  0.52060  Biso   1.000  O
  O10      1.0000 0.57350  0.08880  0.44300  Biso   1.000  O
  O11      1.0000 0.78370  0.25540  0.81060  Biso   1.000  O
  O12      1.0000 0.69380  0.97280  0.17260  Biso   1.000  O
  N9       1.0000 0.55200  0.13940  0.60890  Biso   1.000  N
  N10      1.0000 0.45330  0.13780  0.49670  Biso   1.000  N
  H57      1.0000 0.45030  0.10330  0.46360  Biso   1.000  H
  N11      1.0000 0.49190  0.25520  0.46500  Biso   1.000  N
  H58      1.0000 0.50850  0.28600  0.49810  Biso   1.000  H
  N12      1.0000 0.57990  0.19650  0.35670  Biso   1.000  N
  C45      1.0000 0.65360  0.23250  0.59290  Biso   1.000  C
  C46      1.0000 0.70150  0.27700  0.59090  Biso   1.000  C
  H59      1.0000 0.70600  0.30230  0.54280  Biso   1.000  H
  C47      1.0000 0.74270  0.28370  0.66090  Biso   1.000  C
  H60      1.0000 0.77470  0.31350  0.65960  Biso   1.000  H
  C48      1.0000 0.73590  0.24600  0.73280  Biso   1.000  C
  C49      1.0000 0.68800  0.20150  0.73480  Biso   1.000  C
  H61      1.0000 0.68350  0.17620  0.78290  Biso   1.000  H
  C50      1.0000 0.64680  0.19470  0.66480  Biso   1.000  C
  C51      1.0000 0.59390  0.15330  0.67240  Biso   1.000  C
  H62      1.0000 0.58780  0.13440  0.72560  Biso   1.000  H
  C52      1.0000 0.50320  0.09160  0.62370  Biso   1.000  C
  H63      1.0000 0.51470  0.05370  0.59450  Biso   1.000  H
  H64      1.0000 0.49850  0.08330  0.68490  Biso   1.000  H
  C53      1.0000 0.44180  0.11770  0.58700  Biso   1.000  C
  H65      1.0000 0.42770  0.15240  0.62160  Biso   1.000  H
  H66      1.0000 0.40840  0.08650  0.58830  Biso   1.000  H
  C54      1.0000 0.40520  0.18140  0.46210  Biso   1.000  C
  H67      1.0000 0.40420  0.17970  0.39950  Biso   1.000  H
  H68      1.0000 0.36280  0.17170  0.48400  Biso   1.000  H
  C55      1.0000 0.42630  0.24400  0.49250  Biso   1.000  C
  H69      1.0000 0.42360  0.24610  0.55490  Biso   1.000  H
  H70      1.0000 0.39830  0.27530  0.46860  Biso   1.000  H
  C56      1.0000 0.49960  0.27350  0.36800  Biso   1.000  C
  H71      1.0000 0.48980  0.31680  0.36050  Biso   1.000  H
  H72      1.0000 0.47000  0.24980  0.33280  Biso   1.000  H
  C57      1.0000 0.56490  0.26130  0.34090  Biso   1.000  C
  H73      1.0000 0.56960  0.27060  0.28000  Biso   1.000  H
  H74      1.0000 0.59420  0.28740  0.37300  Biso   1.000  H
  C58      1.0000 0.60790  0.16520  0.29740  Biso   1.000  C
  H75      1.0000 0.61940  0.18520  0.24660  Biso   1.000  H
  C59      1.0000 0.62260  0.09990  0.30550  Biso   1.000  C
  C60      1.0000 0.65300  0.07150  0.23630  Biso   1.000  C
  H76      1.0000 0.66810  0.09510  0.19040  Biso   1.000  H
  C61      1.0000 0.66100  0.00790  0.23560  Biso   1.000  C
  C62      1.0000 0.63850  0.97270  0.30420  Biso   1.000  C
  H77      1.0000 0.64390  0.93020  0.30370  Biso   1.000  H
  C63      1.0000 0.60810  0.00110  0.37340  Biso   1.000  C
  H78      1.0000 0.59300  0.97750  0.41930  Biso   1.000  H
  C64      1.0000 0.60010  0.06460  0.37410  Biso   1.000  C
  C65      1.0000 0.75020  0.24980  0.88440  Biso   1.000  C
  H79      1.0000 0.77840  0.25550  0.93280  Biso   1.000  H
  H80      1.0000 0.71700  0.28040  0.88590  Biso   1.000  H
  H81      1.0000 0.73130  0.20950  0.88720  Biso   1.000  H
  C66      1.0000 0.72630  0.00470  0.11390  Biso   1.000  C
  H82      1.0000 0.74650  0.97680  0.07420  Biso   1.000  H
  H83      1.0000 0.69740  0.03120  0.08310  Biso   1.000  H
  H84      1.0000 0.75850  0.02910  0.14210  Biso   1.000  H
  C67      1.0000 0.63160  0.24810  0.58490  Biso   1.000  C
  C68      1.0000 0.67540  0.24030  0.65170  Biso   1.000  C
  C69      1.0000 0.72120  0.28530  0.66790  Biso   1.000  C
  C70      1.0000 0.72330  0.33810  0.61740  Biso   1.000  C
  C71      1.0000 0.67950  0.34600  0.55060  Biso   1.000  C
  C72      1.0000 0.63370  0.30100  0.53430  Biso   1.000  C
  C73      1.0000 0.58270  0.31090  0.48220  Biso   1.000  C
  C74      1.0000 0.48230  0.28610  0.41190  Biso   1.000  C
  C75      1.0000 0.45010  0.24170  0.36100  Biso   1.000  C
  C76      1.0000 0.39460  0.17160  0.48570  Biso   1.000  C
  C77      1.0000 0.39460  0.20900  0.55770  Biso   1.000  C
  C78      1.0000 0.47300  0.15300  0.65400  Biso   1.000  C
  C79      1.0000 0.47330  0.09790  0.61550  Biso   1.000  C
  C80      1.0000 0.55020  0.05390  0.50000  Biso   1.000  C
  C81      1.0000 0.59060  0.06010  0.42760  Biso   1.000  C
  C82      1.0000 0.60940  0.00530  0.38870  Biso   1.000  C
  C83      1.0000 0.64380  0.00650  0.31180  Biso   1.000  C
  C84      1.0000 0.65950  0.06260  0.27390  Biso   1.000  C
  C85      1.0000 0.64080  0.11740  0.31290  Biso   1.000  C
  C86      1.0000 0.60630  0.11610  0.38970  Biso   1.000  C
  C87      1.0000 0.76550  0.43880  0.58700  Biso   1.000  C
  C88      1.0000 0.64050  0.89680  0.29820  Biso   1.000  C
  Fe4      1.0000 0.52700  0.18850  0.50450  Biso   1.000  Fe
  H85      1.0000 0.67400  0.20490  0.68550  Biso   1.000  H
  H86      1.0000 0.75050  0.28000  0.71260  Biso   1.000  H
  H87      1.0000 0.68090  0.38140  0.51680  Biso   1.000  H
  H88      1.0000 0.58250  0.34800  0.45210  Biso   1.000  H
  H89      1.0000 0.44940  0.30650  0.44580  Biso   1.000  H
  H90      1.0000 0.49870  0.31660  0.37190  Biso   1.000  H
  H91      1.0000 0.40650  0.25430  0.34790  Biso   1.000  H
  H92      1.0000 0.47290  0.23340  0.30770  Biso   1.000  H
  H93      1.0000 0.39610  0.12890  0.50420  Biso   1.000  H
  H94      1.0000 0.35480  0.17760  0.45440  Biso   1.000  H
  H95      1.0000 0.45650  0.14970  0.39080  Biso   1.000  H
  H96      1.0000 0.38580  0.25150  0.54220  Biso   1.000  H
  H97      1.0000 0.36290  0.19540  0.59940  Biso   1.000  H
  H98      1.0000 0.43910  0.15430  0.69730  Biso   1.000  H
  H99      1.0000 0.51340  0.15980  0.68350  Biso   1.000  H
  H100     1.0000 0.48720  0.06640  0.65570  Biso   1.000  H
  H101     1.0000 0.43080  0.08750  0.59490  Biso   1.000  H
  H102     1.0000 0.54330  0.01460  0.52210  Biso   1.000  H
  H103     1.0000 0.59880  0.96780  0.41400  Biso   1.000  H
  H104     1.0000 0.68260  0.06340  0.22250  Biso   1.000  H
  H105     1.0000 0.65130  0.15490  0.28760  Biso   1.000  H
  H106     1.0000 0.47280  0.23790  0.62080  Biso   1.000  H
  H107     1.0000 0.80130  0.46610  0.59440  Biso   1.000  H
  H108     1.0000 0.75670  0.43440  0.52610  Biso   1.000  H
  H109     1.0000 0.72850  0.45540  0.61520  Biso   1.000  H
  H110     1.0000 0.65820  0.86570  0.26110  Biso   1.000  H
  H111     1.0000 0.65410  0.88950  0.35650  Biso   1.000  H
  H112     1.0000 0.59450  0.89530  0.29530  Biso   1.000  H
  N13      1.0000 0.53180  0.27310  0.46850  Biso   1.000  N
  N14      1.0000 0.45140  0.18390  0.42410  Biso   1.000  N
  N15      1.0000 0.46270  0.20200  0.59370  Biso   1.000  N
  N16      1.0000 0.52060  0.10290  0.53950  Biso   1.000  N
  O13      1.0000 0.59260  0.20150  0.58810  Biso   1.000  O
  O14      1.0000 0.58540  0.17410  0.41950  Biso   1.000  O
  O15      1.0000 0.78060  0.38000  0.62240  Biso   1.000  O
  O16      1.0000 0.66480  0.96280  0.26760  Biso   1.000  O
  Fe5      1.0000 0.05323  0.32883  0.48153  Biso   1.000  Fe
  O17      1.0000 0.12220  0.27620  0.52060  Biso   1.000  O
  O18      1.0000 0.07350  0.41120  0.44300  Biso   1.000  O
  O19      1.0000 0.28370  0.24460  0.81060  Biso   1.000  O
  O20      1.0000 0.19380  0.52720  0.17260  Biso   1.000  O
  N17      1.0000 0.05200  0.36060  0.60890  Biso   1.000  N
  N18      1.0000 0.95330  0.36220  0.49670  Biso   1.000  N
  H113     1.0000 0.95030  0.39670  0.46360  Biso   1.000  H
  N19      1.0000 0.99190  0.24480  0.46500  Biso   1.000  N
  H114     1.0000 0.00850  0.21400  0.49810  Biso   1.000  H
  N20      1.0000 0.07990  0.30350  0.35670  Biso   1.000  N
  C89      1.0000 0.15360  0.26750  0.59290  Biso   1.000  C
  C90      1.0000 0.20150  0.22300  0.59090  Biso   1.000  C
  H115     1.0000 0.20600  0.19770  0.54280  Biso   1.000  H
  C91      1.0000 0.24270  0.21630  0.66090  Biso   1.000  C
  H116     1.0000 0.27470  0.18650  0.65960  Biso   1.000  H
  C92      1.0000 0.23590  0.25400  0.73280  Biso   1.000  C
  C93      1.0000 0.18800  0.29850  0.73480  Biso   1.000  C
  H117     1.0000 0.18350  0.32380  0.78290  Biso   1.000  H
  C94      1.0000 0.14680  0.30530  0.66480  Biso   1.000  C
  C95      1.0000 0.09390  0.34670  0.67240  Biso   1.000  C
  H118     1.0000 0.08780  0.36560  0.72560  Biso   1.000  H
  C96      1.0000 0.00320  0.40840  0.62370  Biso   1.000  C
  H119     1.0000 0.01470  0.44630  0.59450  Biso   1.000  H
  H120     1.0000 0.99850  0.41670  0.68490  Biso   1.000  H
  C97      1.0000 0.94180  0.38230  0.58700  Biso   1.000  C
  H121     1.0000 0.92770  0.34760  0.62160  Biso   1.000  H
  H122     1.0000 0.90840  0.41350  0.58830  Biso   1.000  H
  C98      1.0000 0.90520  0.31860  0.46210  Biso   1.000  C
  H123     1.0000 0.90420  0.32030  0.39950  Biso   1.000  H
  H124     1.0000 0.86280  0.32830  0.48400  Biso   1.000  H
  C99      1.0000 0.92630  0.25600  0.49250  Biso   1.000  C
  H125     1.0000 0.92360  0.25390  0.55490  Biso   1.000  H
  H126     1.0000 0.89830  0.22470  0.46860  Biso   1.000  H
  C100     1.0000 0.99960  0.22650  0.36800  Biso   1.000  C
  H127     1.0000 0.98980  0.18320  0.36050  Biso   1.000  H
  H128     1.0000 0.97000  0.25020  0.33280  Biso   1.000  H
  C101     1.0000 0.06490  0.23870  0.34090  Biso   1.000  C
  H129     1.0000 0.06960  0.22940  0.28000  Biso   1.000  H
  H130     1.0000 0.09420  0.21260  0.37300  Biso   1.000  H
  C102     1.0000 0.10790  0.33480  0.29740  Biso   1.000  C
  H131     1.0000 0.11940  0.31480  0.24660  Biso   1.000  H
  C103     1.0000 0.12260  0.40010  0.30550  Biso   1.000  C
  C104     1.0000 0.15300  0.42850  0.23630  Biso   1.000  C
  H132     1.0000 0.16810  0.40490  0.19040  Biso   1.000  H
  C105     1.0000 0.16100  0.49210  0.23560  Biso   1.000  C
  C106     1.0000 0.13850  0.52730  0.30420  Biso   1.000  C
  H133     1.0000 0.14390  0.56980  0.30370  Biso   1.000  H
  C107     1.0000 0.10810  0.49890  0.37340  Biso   1.000  C
  H134     1.0000 0.09300  0.52250  0.41930  Biso   1.000  H
  C108     1.0000 0.10010  0.43540  0.37410  Biso   1.000  C
  C109     1.0000 0.25020  0.25020  0.88440  Biso   1.000  C
  H135     1.0000 0.27840  0.24450  0.93280  Biso   1.000  H
  H136     1.0000 0.21700  0.21960  0.88590  Biso   1.000  H
  H137     1.0000 0.23130  0.29050  0.88720  Biso   1.000  H
  C110     1.0000 0.22630  0.49530  0.11390  Biso   1.000  C
  H138     1.0000 0.24650  0.52320  0.07420  Biso   1.000  H
  H139     1.0000 0.19740  0.46880  0.08310  Biso   1.000  H
  H140     1.0000 0.25850  0.47090  0.14210  Biso   1.000  H
  C111     1.0000 0.13160  0.25190  0.58490  Biso   1.000  C
  C112     1.0000 0.17540  0.25970  0.65170  Biso   1.000  C
  C113     1.0000 0.22120  0.21470  0.66790  Biso   1.000  C
  C114     1.0000 0.22330  0.16190  0.61740  Biso   1.000  C
  C115     1.0000 0.17950  0.15400  0.55060  Biso   1.000  C
  C116     1.0000 0.13370  0.19900  0.53430  Biso   1.000  C
  C117     1.0000 0.08270  0.18910  0.48220  Biso   1.000  C
  C118     1.0000 0.98230  0.21390  0.41190  Biso   1.000  C
  C119     1.0000 0.95010  0.25830  0.36100  Biso   1.000  C
  C120     1.0000 0.89460  0.32840  0.48570  Biso   1.000  C
  C121     1.0000 0.89460  0.29100  0.55770  Biso   1.000  C
  C122     1.0000 0.97300  0.34700  0.65400  Biso   1.000  C
  C123     1.0000 0.97330  0.40210  0.61550  Biso   1.000  C
  C124     1.0000 0.05020  0.44610  0.50000  Biso   1.000  C
  C125     1.0000 0.09060  0.43990  0.42760  Biso   1.000  C
  C126     1.0000 0.10940  0.49470  0.38870  Biso   1.000  C
  C127     1.0000 0.14380  0.49350  0.31180  Biso   1.000  C
  C128     1.0000 0.15950  0.43740  0.27390  Biso   1.000  C
  C129     1.0000 0.14080  0.38260  0.31290  Biso   1.000  C
  C130     1.0000 0.10630  0.38390  0.38970  Biso   1.000  C
  C131     1.0000 0.26550  0.06120  0.58700  Biso   1.000  C
  C132     1.0000 0.14050  0.60320  0.29820  Biso   1.000  C
  Fe6      1.0000 0.02700  0.31150  0.50450  Biso   1.000  Fe
  H141     1.0000 0.17400  0.29510  0.68550  Biso   1.000  H
  H142     1.0000 0.25050  0.22000  0.71260  Biso   1.000  H
  H143     1.0000 0.18090  0.11860  0.51680  Biso   1.000  H
  H144     1.0000 0.08250  0.15200  0.45210  Biso   1.000  H
  H145     1.0000 0.94940  0.19350  0.44580  Biso   1.000  H
  H146     1.0000 0.99870  0.18340  0.37190  Biso   1.000  H
  H147     1.0000 0.90650  0.24570  0.34790  Biso   1.000  H
  H148     1.0000 0.97290  0.26660  0.30770  Biso   1.000  H
  H149     1.0000 0.89610  0.37110  0.50420  Biso   1.000  H
  H150     1.0000 0.85480  0.32240  0.45440  Biso   1.000  H
  H151     1.0000 0.95650  0.35030  0.39080  Biso   1.000  H
  H152     1.0000 0.88580  0.24850  0.54220  Biso   1.000  H
  H153     1.0000 0.86290  0.30460  0.59940  Biso   1.000  H
  H154     1.0000 0.93910  0.34570  0.69730  Biso   1.000  H
  H155     1.0000 0.01340  0.34020  0.68350  Biso   1.000  H
  H156     1.0000 0.98720  0.43360  0.65570  Biso   1.000  H
  H157     1.0000 0.93080  0.41250  0.59490  Biso   1.000  H
  H158     1.0000 0.04330  0.48540  0.52210  Biso   1.000  H
  H159     1.0000 0.09880  0.53220  0.41400  Biso   1.000  H
  H160     1.0000 0.18260  0.43660  0.22250  Biso   1.000  H
  H161     1.0000 0.15130  0.34510  0.28760  Biso   1.000  H
  H162     1.0000 0.97280  0.26210  0.62080  Biso   1.000  H
  H163     1.0000 0.30130  0.03390  0.59440  Biso   1.000  H
  H164     1.0000 0.25670  0.06560  0.52610  Biso   1.000  H
  H165     1.0000 0.22850  0.04460  0.61520  Biso   1.000  H
  H166     1.0000 0.15820  0.63430  0.26110  Biso   1.000  H
  H167     1.0000 0.15410  0.61050  0.35650  Biso   1.000  H
  H168     1.0000 0.09450  0.60470  0.29530  Biso   1.000  H
  N21      1.0000 0.03180  0.22690  0.46850  Biso   1.000  N
  N22      1.0000 0.95140  0.31610  0.42410  Biso   1.000  N
  N23      1.0000 0.96270  0.29800  0.59370  Biso   1.000  N
  N24      1.0000 0.02060  0.39710  0.53950  Biso   1.000  N
  O21      1.0000 0.09260  0.29850  0.58810  Biso   1.000  O
  O22      1.0000 0.08540  0.32590  0.41950  Biso   1.000  O
  O23      1.0000 0.28060  0.12000  0.62240  Biso   1.000  O
  O24      1.0000 0.16480  0.53720  0.26760  Biso   1.000  O
  Fe7      1.0000 0.44677  0.82883  0.98153  Biso   1.000  Fe
  O25      1.0000 0.37780  0.77620  0.02060  Biso   1.000  O
  O26      1.0000 0.42650  0.91120  0.94300  Biso   1.000  O
  O27      1.0000 0.21630  0.74460  0.31060  Biso   1.000  O
  O28      1.0000 0.30620  0.02720  0.67260  Biso   1.000  O
  N25      1.0000 0.44800  0.86060  0.10890  Biso   1.000  N
  N26      1.0000 0.54670  0.86220  0.99670  Biso   1.000  N
  H169     1.0000 0.54970  0.89670  0.96360  Biso   1.000  H
  N27      1.0000 0.50810  0.74480  0.96500  Biso   1.000  N
  H170     1.0000 0.49150  0.71400  0.99810  Biso   1.000  H
  N28      1.0000 0.42010  0.80350  0.85670  Biso   1.000  N
  C133     1.0000 0.34640  0.76750  0.09290  Biso   1.000  C
  C134     1.0000 0.29850  0.72300  0.09090  Biso   1.000  C
  H171     1.0000 0.29400  0.69770  0.04280  Biso   1.000  H
  C135     1.0000 0.25730  0.71630  0.16090  Biso   1.000  C
  H172     1.0000 0.22530  0.68650  0.15960  Biso   1.000  H
  C136     1.0000 0.26410  0.75400  0.23280  Biso   1.000  C
  C137     1.0000 0.31200  0.79850  0.23480  Biso   1.000  C
  H173     1.0000 0.31650  0.82380  0.28290  Biso   1.000  H
  C138     1.0000 0.35320  0.80530  0.16480  Biso   1.000  C
  C139     1.0000 0.40610  0.84670  0.17240  Biso   1.000  C
  H174     1.0000 0.41220  0.86560  0.22560  Biso   1.000  H
  C140     1.0000 0.49680  0.90840  0.12370  Biso   1.000  C
  H175     1.0000 0.48530  0.94630  0.09450  Biso   1.000  H
  H176     1.0000 0.50150  0.91670  0.18490  Biso   1.000  H
  C141     1.0000 0.55820  0.88230  0.08700  Biso   1.000  C
  H177     1.0000 0.57230  0.84760  0.12160  Biso   1.000  H
  H178     1.0000 0.59160  0.91350  0.08830  Biso   1.000  H
  C142     1.0000 0.59480  0.81860  0.96210  Biso   1.000  C
  H179     1.0000 0.59580  0.82030  0.89950  Biso   1.000  H
  H180     1.0000 0.63720  0.82830  0.98400  Biso   1.000  H
  C143     1.0000 0.57370  0.75600  0.99250  Biso   1.000  C
  H181     1.0000 0.57640  0.75390  0.05490  Biso   1.000  H
  H182     1.0000 0.60170  0.72470  0.96860  Biso   1.000  H
  C144     1.0000 0.50040  0.72650  0.86800  Biso   1.000  C
  H183     1.0000 0.51020  0.68320  0.86050  Biso   1.000  H
  H184     1.0000 0.53000  0.75020  0.83280  Biso   1.000  H
  C145     1.0000 0.43510  0.73870  0.84090  Biso   1.000  C
  H185     1.0000 0.43040  0.72940  0.78000  Biso   1.000  H
  H186     1.0000 0.40580  0.71260  0.87300  Biso   1.000  H
  C146     1.0000 0.39210  0.83480  0.79740  Biso   1.000  C
  H187     1.0000 0.38060  0.81480  0.74660  Biso   1.000  H
  C147     1.0000 0.37740  0.90010  0.80550  Biso   1.000  C
  C148     1.0000 0.34700  0.92850  0.73630  Biso   1.000  C
  H188     1.0000 0.33190  0.90490  0.69040  Biso   1.000  H
  C149     1.0000 0.33900  0.99210  0.73560  Biso   1.000  C
  C150     1.0000 0.36150  0.02730  0.80420  Biso   1.000  C
  H189     1.0000 0.35610  0.06980  0.80370  Biso   1.000  H
  C151     1.0000 0.39190  0.99890  0.87340  Biso   1.000  C
  H190     1.0000 0.40700  0.02250  0.91930  Biso   1.000  H
  C152     1.0000 0.39990  0.93540  0.87410  Biso   1.000  C
  C153     1.0000 0.24980  0.75020  0.38440  Biso   1.000  C
  H191     1.0000 0.22160  0.74450  0.43280  Biso   1.000  H
  H192     1.0000 0.28300  0.71960  0.38590  Biso   1.000  H
  H193     1.0000 0.26870  0.79050  0.38720  Biso   1.000  H
  C154     1.0000 0.27370  0.99530  0.61390  Biso   1.000  C
  H194     1.0000 0.25350  0.02320  0.57420  Biso   1.000  H
  H195     1.0000 0.30260  0.96880  0.58310  Biso   1.000  H
  H196     1.0000 0.24150  0.97090  0.64210  Biso   1.000  H
  C155     1.0000 0.36840  0.75190  0.08490  Biso   1.000  C
  C156     1.0000 0.32460  0.75970  0.15170  Biso   1.000  C
  C157     1.0000 0.27880  0.71470  0.16790  Biso   1.000  C
  C158     1.0000 0.27670  0.66190  0.11740  Biso   1.000  C
  C159     1.0000 0.32050  0.65400  0.05060  Biso   1.000  C
  C160     1.0000 0.36630  0.69900  0.03430  Biso   1.000  C
  C161     1.0000 0.41730  0.68910  0.98220  Biso   1.000  C
  C162     1.0000 0.51770  0.71390  0.91190  Biso   1.000  C
  C163     1.0000 0.54990  0.75830  0.86100  Biso   1.000  C
  C164     1.0000 0.60540  0.82840  0.98570  Biso   1.000  C
  C165     1.0000 0.60540  0.79100  0.05770  Biso   1.000  C
  C166     1.0000 0.52700  0.84700  0.15400  Biso   1.000  C
  C167     1.0000 0.52670  0.90210  0.11550  Biso   1.000  C
  C168     1.0000 0.44980  0.94610  0.00000  Biso   1.000  C
  C169     1.0000 0.40940  0.93990  0.92760  Biso   1.000  C
  C170     1.0000 0.39060  0.99470  0.88870  Biso   1.000  C
  C171     1.0000 0.35620  0.99350  0.81180  Biso   1.000  C
  C172     1.0000 0.34050  0.93740  0.77390  Biso   1.000  C
  C173     1.0000 0.35920  0.88260  0.81290  Biso   1.000  C
  C174     1.0000 0.39370  0.88390  0.88970  Biso   1.000  C
  C175     1.0000 0.23450  0.56120  0.08700  Biso   1.000  C
  C176     1.0000 0.35950  0.10320  0.79820  Biso   1.000  C
  Fe8      1.0000 0.47300  0.81150  0.00450  Biso   1.000  Fe
  H197     1.0000 0.32600  0.79510  0.18550  Biso   1.000  H
  H198     1.0000 0.24950  0.72000  0.21260  Biso   1.000  H
  H199     1.0000 0.31910  0.61860  0.01680  Biso   1.000  H
  H200     1.0000 0.41750  0.65200  0.95210  Biso   1.000  H
  H201     1.0000 0.55060  0.69350  0.94580  Biso   1.000  H
  H202     1.0000 0.50130  0.68340  0.87190  Biso   1.000  H
  H203     1.0000 0.59350  0.74570  0.84790  Biso   1.000  H
  H204     1.0000 0.52710  0.76660  0.80770  Biso   1.000  H
  H205     1.0000 0.60390  0.87110  0.00420  Biso   1.000  H
  H206     1.0000 0.64520  0.82240  0.95440  Biso   1.000  H
  H207     1.0000 0.54350  0.85030  0.89080  Biso   1.000  H
  H208     1.0000 0.61420  0.74850  0.04220  Biso   1.000  H
  H209     1.0000 0.63710  0.80460  0.09940  Biso   1.000  H
  H210     1.0000 0.56090  0.84570  0.19730  Biso   1.000  H
  H211     1.0000 0.48660  0.84020  0.18350  Biso   1.000  H
  H212     1.0000 0.51280  0.93360  0.15570  Biso   1.000  H
  H213     1.0000 0.56920  0.91250  0.09490  Biso   1.000  H
  H214     1.0000 0.45670  0.98540  0.02210  Biso   1.000  H
  H215     1.0000 0.40120  0.03220  0.91400  Biso   1.000  H
  H216     1.0000 0.31740  0.93660  0.72250  Biso   1.000  H
  H217     1.0000 0.34870  0.84510  0.78760  Biso   1.000  H
  H218     1.0000 0.52720  0.76210  0.12080  Biso   1.000  H
  H219     1.0000 0.19870  0.53390  0.09440  Biso   1.000  H
  H220     1.0000 0.24330  0.56560  0.02610  Biso   1.000  H
  H221     1.0000 0.27150  0.54460  0.11520  Biso   1.000  H
  H222     1.0000 0.34180  0.13430  0.76110  Biso   1.000  H
  H223     1.0000 0.34590  0.11050  0.85650  Biso   1.000  H
  H224     1.0000 0.40550  0.10470  0.79530  Biso   1.000  H
  N29      1.0000 0.46820  0.72690  0.96850  Biso   1.000  N
  N30      1.0000 0.54860  0.81610  0.92410  Biso   1.000  N
  N31      1.0000 0.53730  0.79800  0.09370  Biso   1.000  N
  N32      1.0000 0.47940  0.89710  0.03950  Biso   1.000  N
  O29      1.0000 0.40740  0.79850  0.08810  Biso   1.000  O
  O30      1.0000 0.41460  0.82590  0.91950  Biso   1.000  O
  O31      1.0000 0.21940  0.62000  0.12240  Biso   1.000  O
  O32      1.0000 0.33520  0.03720  0.76760  Biso   1.000  O
  C177     1.0000 0.76490  0.45760  0.35390  Biso   1.000  C
  C178     1.0000 0.76250  0.52900  0.34800  Biso   1.000  C
  C179     1.0000 0.91340  0.44930  0.17210  Biso   1.000  C
  C180     1.0000 0.95470  0.41280  0.23810  Biso   1.000  C
  C181     1.0000 0.93280  0.54220  0.48360  Biso   1.000  C
  C182     1.0000 0.96520  0.58010  0.41140  Biso   1.000  C
  C183     1.0000 0.03040  0.23990  0.08160  Biso   1.000  C
  C184     1.0000 0.95660  0.23510  0.07740  Biso   1.000  C
  C185     1.0000 0.58530  0.45090  0.19110  Biso   1.000  C
  C186     1.0000 0.54470  0.41470  0.25630  Biso   1.000  C
  C187     1.0000 0.58000  0.53730  0.51880  Biso   1.000  C
  C188     1.0000 0.54480  0.56940  0.44150  Biso   1.000  C
  O33      1.0000 0.71070  0.43050  0.36280  Biso   1.000  O
  O34      1.0000 0.70850  0.55630  0.34770  Biso   1.000  O
  O35      1.0000 0.81710  0.43480  0.34670  Biso   1.000  O
  O36      1.0000 0.81590  0.55610  0.33920  Biso   1.000  O
  O37      1.0000 0.91250  0.43330  0.09470  Biso   1.000  O
  O38      1.0000 0.98750  0.36910  0.21070  Biso   1.000  O
  O39      1.0000 0.87990  0.49160  0.20530  Biso   1.000  O
  O40      1.0000 0.94930  0.42990  0.31570  Biso   1.000  O
  O41      1.0000 0.89900  0.49730  0.45840  Biso   1.000  O
  O42      1.0000 0.95130  0.56260  0.33630  Biso   1.000  O
  O43      1.0000 0.94420  0.55930  0.56050  Biso   1.000  O
  O44      1.0000 0.00370  0.62150  0.42910  Biso   1.000  O
  O45      1.0000 0.05800  0.29160  0.07750  Biso   1.000  O
  O46      1.0000 0.92700  0.28520  0.06720  Biso   1.000  O
  O47      1.0000 0.05890  0.18810  0.09140  Biso   1.000  O
  O48      1.0000 0.93300  0.18390  0.08690  Biso   1.000  O
  O49      1.0000 0.57010  0.44090  0.11070  Biso   1.000  O
  O50      1.0000 0.49930  0.37990  0.22500  Biso   1.000  O
  O51      1.0000 0.62880  0.48420  0.21570  Biso   1.000  O
  O52      1.0000 0.55740  0.42090  0.33430  Biso   1.000  O
  O53      1.0000 0.62050  0.49770  0.49600  Biso   1.000  O
  O54      1.0000 0.55490  0.55950  0.37100  Biso   1.000  O
  O55      1.0000 0.56620  0.55210  0.59310  Biso   1.000  O
  O56      1.0000 0.50040  0.60770  0.47010  Biso   1.000  O
  Cr1      1.0000 0.88668  0.49556  0.33304  Biso   1.000  Cr
  Cr2      1.0000 0.49905  0.38111  0.09757  Biso   1.000  Cr
  Mn1      1.0000 0.98780  0.36483  0.06949  Biso   1.000  Mn
  Mn2      1.0000 0.62967  0.48987  0.35751  Biso   1.000  Mn
  C189     1.0000 0.23510  0.54240  0.85390  Biso   1.000  C
  C190     1.0000 0.23750  0.47100  0.84800  Biso   1.000  C
  C191     1.0000 0.08660  0.55070  0.67210  Biso   1.000  C
  C192     1.0000 0.04530  0.58720  0.73810  Biso   1.000  C
  C193     1.0000 0.06720  0.45780  0.98360  Biso   1.000  C
  C194     1.0000 0.03480  0.41990  0.91140  Biso   1.000  C
  C195     1.0000 0.96960  0.76010  0.58160  Biso   1.000  C
  C196     1.0000 0.04340  0.76490  0.57740  Biso   1.000  C
  C197     1.0000 0.41470  0.54910  0.69110  Biso   1.000  C
  C198     1.0000 0.45530  0.58530  0.75630  Biso   1.000  C
  C199     1.0000 0.42000  0.46270  0.01880  Biso   1.000  C
  C200     1.0000 0.45520  0.43060  0.94150  Biso   1.000  C
  O57      1.0000 0.28930  0.56950  0.86280  Biso   1.000  O
  O58      1.0000 0.29150  0.44370  0.84770  Biso   1.000  O
  O59      1.0000 0.18290  0.56520  0.84670  Biso   1.000  O
  O60      1.0000 0.18410  0.44390  0.83920  Biso   1.000  O
  O61      1.0000 0.08750  0.56670  0.59470  Biso   1.000  O
  O62      1.0000 0.01250  0.63090  0.71070  Biso   1.000  O
  O63      1.0000 0.12010  0.50840  0.70530  Biso   1.000  O
  O64      1.0000 0.05070  0.57010  0.81570  Biso   1.000  O
  O65      1.0000 0.10100  0.50270  0.95840  Biso   1.000  O
  O66      1.0000 0.04870  0.43740  0.83630  Biso   1.000  O
  O67      1.0000 0.05580  0.44070  0.06050  Biso   1.000  O
  O68      1.0000 0.99630  0.37850  0.92910  Biso   1.000  O
  O69      1.0000 0.94200  0.70840  0.57750  Biso   1.000  O
  O70      1.0000 0.07300  0.71480  0.56720  Biso   1.000  O
  O71      1.0000 0.94110  0.81190  0.59140  Biso   1.000  O
  O72      1.0000 0.06700  0.81610  0.58690  Biso   1.000  O
  O73      1.0000 0.42990  0.55910  0.61070  Biso   1.000  O
  O74      1.0000 0.50070  0.62010  0.72500  Biso   1.000  O
  O75      1.0000 0.37120  0.51580  0.71570  Biso   1.000  O
  O76      1.0000 0.44260  0.57910  0.83430  Biso   1.000  O
  O77      1.0000 0.37950  0.50230  0.99600  Biso   1.000  O
  O78      1.0000 0.44510  0.44050  0.87100  Biso   1.000  O
  O79      1.0000 0.43380  0.44790  0.09310  Biso   1.000  O
  O80      1.0000 0.49960  0.39230  0.97010  Biso   1.000  O
  Cr3      1.0000 0.11332  0.50444  0.83304  Biso   1.000  Cr
  Cr4      1.0000 0.50095  0.61889  0.59757  Biso   1.000  Cr
  Mn3      1.0000 0.01220  0.63517  0.56949  Biso   1.000  Mn
  Mn4      1.0000 0.37033  0.51013  0.85751  Biso   1.000  Mn
  C201     1.0000 0.26490  0.04240  0.35390  Biso   1.000  C
  C202     1.0000 0.26250  0.97100  0.34800  Biso   1.000  C
  C203     1.0000 0.41340  0.05070  0.17210  Biso   1.000  C
  C204     1.0000 0.45470  0.08720  0.23810  Biso   1.000  C
  C205     1.0000 0.43280  0.95780  0.48360  Biso   1.000  C
  C206     1.0000 0.46520  0.91990  0.41140  Biso   1.000  C
  C207     1.0000 0.53040  0.26010  0.08160  Biso   1.000  C
  C208     1.0000 0.45660  0.26490  0.07740  Biso   1.000  C
  C209     1.0000 0.08530  0.04910  0.19110  Biso   1.000  C
  C210     1.0000 0.04470  0.08530  0.25630  Biso   1.000  C
  C211     1.0000 0.08000  0.96270  0.51880  Biso   1.000  C
  C212     1.0000 0.04480  0.93060  0.44150  Biso   1.000  C
  O81      1.0000 0.21070  0.06950  0.36280  Biso   1.000  O
  O82      1.0000 0.20850  0.94370  0.34770  Biso   1.000  O
  O83      1.0000 0.31710  0.06520  0.34670  Biso   1.000  O
  O84      1.0000 0.31590  0.94390  0.33920  Biso   1.000  O
  O85      1.0000 0.41250  0.06670  0.09470  Biso   1.000  O
  O86      1.0000 0.48750  0.13090  0.21070  Biso   1.000  O
  O87      1.0000 0.37990  0.00840  0.20530  Biso   1.000  O
  O88      1.0000 0.44930  0.07010  0.31570  Biso   1.000  O
  O89      1.0000 0.39900  0.00270  0.45840  Biso   1.000  O
  O90      1.0000 0.45130  0.93740  0.33630  Biso   1.000  O
  O91      1.0000 0.44420  0.94070  0.56050  Biso   1.000  O
  O92      1.0000 0.50370  0.87850  0.42910  Biso   1.000  O
  O93      1.0000 0.55800  0.20840  0.07750  Biso   1.000  O
  O94      1.0000 0.42700  0.21480  0.06720  Biso   1.000  O
  O95      1.0000 0.55890  0.31190  0.09140  Biso   1.000  O
  O96      1.0000 0.43300  0.31610  0.08690  Biso   1.000  O
  O97      1.0000 0.07010  0.05910  0.11070  Biso   1.000  O
  O98      1.0000 0.99930  0.12010  0.22500  Biso   1.000  O
  O99      1.0000 0.12880  0.01580  0.21570  Biso   1.000  O
  O100     1.0000 0.05740  0.07910  0.33430  Biso   1.000  O
  O101     1.0000 0.12050  0.00230  0.49600  Biso   1.000  O
  O102     1.0000 0.05490  0.94050  0.37100  Biso   1.000  O
  O103     1.0000 0.06620  0.94790  0.59310  Biso   1.000  O
  O104     1.0000 0.00040  0.89230  0.47010  Biso   1.000  O
  Cr5      1.0000 0.38668  0.00444  0.33304  Biso   1.000  Cr
  Cr6      1.0000 0.99905  0.11889  0.09757  Biso   1.000  Cr
  Mn5      1.0000 0.48780  0.13517  0.06949  Biso   1.000  Mn
  Mn6      1.0000 0.12967  0.01013  0.35751  Biso   1.000  Mn
  C213     1.0000 0.73510  0.95760  0.85390  Biso   1.000  C
  C214     1.0000 0.73750  0.02900  0.84800  Biso   1.000  C
  C215     1.0000 0.58660  0.94930  0.67210  Biso   1.000  C
  C216     1.0000 0.54530  0.91280  0.73810  Biso   1.000  C
  C217     1.0000 0.56720  0.04220  0.98360  Biso   1.000  C
  C218     1.0000 0.53480  0.08010  0.91140  Biso   1.000  C
  C219     1.0000 0.46960  0.73990  0.58160  Biso   1.000  C
  C220     1.0000 0.54340  0.73510  0.57740  Biso   1.000  C
  C221     1.0000 0.91470  0.95090  0.69110  Biso   1.000  C
  C222     1.0000 0.95530  0.91470  0.75630  Biso   1.000  C
  C223     1.0000 0.92000  0.03730  0.01880  Biso   1.000  C
  C224     1.0000 0.95520  0.06940  0.94150  Biso   1.000  C
  O105     1.0000 0.78930  0.93050  0.86280  Biso   1.000  O
  O106     1.0000 0.79150  0.05630  0.84770  Biso   1.000  O
  O107     1.0000 0.68290  0.93480  0.84670  Biso   1.000  O
  O108     1.0000 0.68410  0.05610  0.83920  Biso   1.000  O
  O109     1.0000 0.58750  0.93330  0.59470  Biso   1.000  O
  O110     1.0000 0.51250  0.86910  0.71070  Biso   1.000  O
  O111     1.0000 0.62010  0.99160  0.70530  Biso   1.000  O
  O112     1.0000 0.55070  0.92990  0.81570  Biso   1.000  O
  O113     1.0000 0.60100  0.99730  0.95840  Biso   1.000  O
  O114     1.0000 0.54870  0.06260  0.83630  Biso   1.000  O
  O115     1.0000 0.55580  0.05930  0.06050  Biso   1.000  O
  O116     1.0000 0.49630  0.12150  0.92910  Biso   1.000  O
  O117     1.0000 0.44200  0.79160  0.57750  Biso   1.000  O
  O118     1.0000 0.57300  0.78520  0.56720  Biso   1.000  O
  O119     1.0000 0.44110  0.68810  0.59140  Biso   1.000  O
  O120     1.0000 0.56700  0.68390  0.58690  Biso   1.000  O
  O121     1.0000 0.92990  0.94090  0.61070  Biso   1.000  O
  O122     1.0000 0.00070  0.87990  0.72500  Biso   1.000  O
  O123     1.0000 0.87120  0.98420  0.71570  Biso   1.000  O
  O124     1.0000 0.94260  0.92090  0.83430  Biso   1.000  O
  O125     1.0000 0.87950  0.99770  0.99600  Biso   1.000  O
  O126     1.0000 0.94510  0.05950  0.87100  Biso   1.000  O
  O127     1.0000 0.93380  0.05210  0.09310  Biso   1.000  O
  O128     1.0000 0.99960  0.10770  0.97010  Biso   1.000  O
  Cr7      1.0000 0.61332  0.99556  0.83304  Biso   1.000  Cr
  Cr8      1.0000 0.00095  0.88111  0.59757  Biso   1.000  Cr
  Mn7      1.0000 0.51220  0.86483  0.56949  Biso   1.000  Mn
  Mn8      1.0000 0.87033  0.98987  0.85751  Biso   1.000  Mn
