data_image0
_cell_length_a       14.8998
_cell_length_b       10.2903
_cell_length_c       18.515
_cell_angle_alpha    90
_cell_angle_beta     101.079
_cell_angle_gamma    90

_symmetry_space_group_name_H-M    "P 1"
_symmetry_int_tables_number       1

loop_
  _symmetry_equiv_pos_as_xyz
  'x, y, z'

loop_
  _atom_site_label
  _atom_site_occupancy
  _atom_site_fract_x
  _atom_site_fract_y
  _atom_site_fract_z
  _atom_site_thermal_displace_type
  _atom_site_B_iso_or_equiv
  _atom_site_type_symbol
  V1       1.0000 0.83260  0.38240  0.90710  Biso   1.000  V
  V2       1.0000 0.75770  0.44620  0.71670  Biso   1.000  V
  V3       1.0000 0.19230  0.41810  0.78050  Biso   1.000  V
  P1       1.0000 0.21580  0.62080  0.92530  Biso   1.000  P
  P2       1.0000 0.83770  0.66590  0.83330  Biso   1.000  P
  O1       1.0000 0.20960  0.57510  0.00290  Biso   1.000  O
  O2       1.0000 0.30290  0.70000  0.92660  Biso   1.000  O
  O3       1.0000 0.83380  0.59280  0.76140  Biso   1.000  O
  O4       1.0000 0.82850  0.57420  0.89710  Biso   1.000  O
  O5       1.0000 0.21480  0.49890  0.87890  Biso   1.000  O
  O6       1.0000 0.76510  0.77100  0.82850  Biso   1.000  O
  O7       1.0000 0.65680  0.50220  0.71200  Biso   1.000  O
  O8       1.0000 0.77770  0.37000  0.81470  Biso   1.000  O
  C1       1.0000 0.11880  0.72080  0.88970  Biso   1.000  C
  C2       1.0000 0.94780  0.74220  0.85560  Biso   1.000  C
  C3       1.0000 0.02830  0.64820  0.87580  Biso   1.000  C
  O9       1.0000 0.90630  0.35300  0.72640  Biso   1.000  O
  H1       1.0000 0.11560  0.79070  0.92430  Biso   1.000  H
  H2       1.0000 0.12780  0.75980  0.84390  Biso   1.000  H
  H3       1.0000 0.95690  0.79380  0.81370  Biso   1.000  H
  H4       1.0000 0.94800  0.80100  0.89650  Biso   1.000  H
  H5       1.0000 0.02220  0.60000  0.91960  Biso   1.000  H
  H6       1.0000 0.02740  0.58650  0.83610  Biso   1.000  H
  V4       1.0000 0.33260  0.88240  0.90710  Biso   1.000  V
  V5       1.0000 0.25770  0.94620  0.71670  Biso   1.000  V
  V6       1.0000 0.69230  0.91810  0.78050  Biso   1.000  V
  P3       1.0000 0.71580  0.12080  0.92530  Biso   1.000  P
  P4       1.0000 0.33770  0.16590  0.83330  Biso   1.000  P
  O10      1.0000 0.70960  0.07510  0.00290  Biso   1.000  O
  O11      1.0000 0.80290  0.20000  0.92660  Biso   1.000  O
  O12      1.0000 0.33380  0.09280  0.76140  Biso   1.000  O
  O13      1.0000 0.32850  0.07420  0.89710  Biso   1.000  O
  O14      1.0000 0.71480  0.99890  0.87890  Biso   1.000  O
  O15      1.0000 0.26510  0.27100  0.82850  Biso   1.000  O
  O16      1.0000 0.15680  0.00220  0.71200  Biso   1.000  O
  O17      1.0000 0.27770  0.87000  0.81470  Biso   1.000  O
  C4       1.0000 0.61880  0.22080  0.88970  Biso   1.000  C
  C5       1.0000 0.44780  0.24220  0.85560  Biso   1.000  C
  C6       1.0000 0.52830  0.14820  0.87580  Biso   1.000  C
  O18      1.0000 0.40630  0.85300  0.72640  Biso   1.000  O
  H7       1.0000 0.61560  0.29070  0.92430  Biso   1.000  H
  H8       1.0000 0.62780  0.25980  0.84390  Biso   1.000  H
  H9       1.0000 0.45690  0.29380  0.81370  Biso   1.000  H
  H10      1.0000 0.44800  0.30100  0.89650  Biso   1.000  H
  H11      1.0000 0.52220  0.10000  0.91960  Biso   1.000  H
  H12      1.0000 0.52740  0.08650  0.83610  Biso   1.000  H
  V7       1.0000 0.16740  0.38240  0.59290  Biso   1.000  V
  V8       1.0000 0.24230  0.44620  0.78330  Biso   1.000  V
  V9       1.0000 0.80770  0.41810  0.71950  Biso   1.000  V
  P5       1.0000 0.78420  0.62080  0.57470  Biso   1.000  P
  P6       1.0000 0.16230  0.66590  0.66670  Biso   1.000  P
  O19      1.0000 0.79040  0.57510  0.49710  Biso   1.000  O
  O20      1.0000 0.69710  0.70000  0.57340  Biso   1.000  O
  O21      1.0000 0.16620  0.59280  0.73860  Biso   1.000  O
  O22      1.0000 0.17150  0.57420  0.60290  Biso   1.000  O
  O23      1.0000 0.78520  0.49890  0.62110  Biso   1.000  O
  O24      1.0000 0.23490  0.77100  0.67150  Biso   1.000  O
  O25      1.0000 0.34320  0.50220  0.78800  Biso   1.000  O
  O26      1.0000 0.22230  0.37000  0.68530  Biso   1.000  O
  C7       1.0000 0.88120  0.72080  0.61030  Biso   1.000  C
  C8       1.0000 0.05220  0.74220  0.64440  Biso   1.000  C
  C9       1.0000 0.97170  0.64820  0.62420  Biso   1.000  C
  O27      1.0000 0.09370  0.35300  0.77360  Biso   1.000  O
  H13      1.0000 0.88440  0.79070  0.57570  Biso   1.000  H
  H14      1.0000 0.87220  0.75980  0.65610  Biso   1.000  H
  H15      1.0000 0.04310  0.79380  0.68630  Biso   1.000  H
  H16      1.0000 0.05200  0.80100  0.60350  Biso   1.000  H
  H17      1.0000 0.97780  0.60000  0.58040  Biso   1.000  H
  H18      1.0000 0.97260  0.58650  0.66390  Biso   1.000  H
  V10      1.0000 0.66740  0.88240  0.59290  Biso   1.000  V
  V11      1.0000 0.74230  0.94620  0.78330  Biso   1.000  V
  V12      1.0000 0.30770  0.91810  0.71950  Biso   1.000  V
  P7       1.0000 0.28420  0.12080  0.57470  Biso   1.000  P
  P8       1.0000 0.66230  0.16590  0.66670  Biso   1.000  P
  O28      1.0000 0.29040  0.07510  0.49710  Biso   1.000  O
  O29      1.0000 0.19710  0.20000  0.57340  Biso   1.000  O
  O30      1.0000 0.66620  0.09280  0.73860  Biso   1.000  O
  O31      1.0000 0.67150  0.07420  0.60290  Biso   1.000  O
  O32      1.0000 0.28520  0.99890  0.62110  Biso   1.000  O
  O33      1.0000 0.73490  0.27100  0.67150  Biso   1.000  O
  O34      1.0000 0.84320  0.00220  0.78800  Biso   1.000  O
  O35      1.0000 0.72230  0.87000  0.68530  Biso   1.000  O
  C10      1.0000 0.38120  0.22080  0.61030  Biso   1.000  C
  C11      1.0000 0.55220  0.24220  0.64440  Biso   1.000  C
  C12      1.0000 0.47170  0.14820  0.62420  Biso   1.000  C
  O36      1.0000 0.59370  0.85300  0.77360  Biso   1.000  O
  H19      1.0000 0.38440  0.29070  0.57570  Biso   1.000  H
  H20      1.0000 0.37220  0.25980  0.65610  Biso   1.000  H
  H21      1.0000 0.54310  0.29380  0.68630  Biso   1.000  H
  H22      1.0000 0.55200  0.30100  0.60350  Biso   1.000  H
  H23      1.0000 0.47780  0.10000  0.58040  Biso   1.000  H
  H24      1.0000 0.47260  0.08650  0.66390  Biso   1.000  H
  V13      1.0000 0.16740  0.61760  0.09290  Biso   1.000  V
  V14      1.0000 0.24230  0.55380  0.28330  Biso   1.000  V
  V15      1.0000 0.80770  0.58190  0.21950  Biso   1.000  V
  P9       1.0000 0.78420  0.37920  0.07470  Biso   1.000  P
  P10      1.0000 0.16230  0.33410  0.16670  Biso   1.000  P
  O37      1.0000 0.79040  0.42490  0.99710  Biso   1.000  O
  O38      1.0000 0.69710  0.30000  0.07340  Biso   1.000  O
  O39      1.0000 0.16620  0.40720  0.23860  Biso   1.000  O
  O40      1.0000 0.17150  0.42580  0.10290  Biso   1.000  O
  O41      1.0000 0.78520  0.50110  0.12110  Biso   1.000  O
  O42      1.0000 0.23490  0.22900  0.17150  Biso   1.000  O
  O43      1.0000 0.34320  0.49780  0.28800  Biso   1.000  O
  O44      1.0000 0.22230  0.63000  0.18530  Biso   1.000  O
  C13      1.0000 0.88120  0.27920  0.11030  Biso   1.000  C
  C14      1.0000 0.05220  0.25780  0.14440  Biso   1.000  C
  C15      1.0000 0.97170  0.35180  0.12420  Biso   1.000  C
  O45      1.0000 0.09370  0.64700  0.27360  Biso   1.000  O
  H25      1.0000 0.88440  0.20930  0.07570  Biso   1.000  H
  H26      1.0000 0.87220  0.24020  0.15610  Biso   1.000  H
  H27      1.0000 0.04310  0.20620  0.18630  Biso   1.000  H
  H28      1.0000 0.05200  0.19900  0.10350  Biso   1.000  H
  H29      1.0000 0.97780  0.40000  0.08040  Biso   1.000  H
  H30      1.0000 0.97260  0.41350  0.16390  Biso   1.000  H
  V16      1.0000 0.66740  0.11760  0.09290  Biso   1.000  V
  V17      1.0000 0.74230  0.05380  0.28330  Biso   1.000  V
  V18      1.0000 0.30770  0.08190  0.21950  Biso   1.000  V
  P11      1.0000 0.28420  0.87920  0.07470  Biso   1.000  P
  P12      1.0000 0.66230  0.83410  0.16670  Biso   1.000  P
  O46      1.0000 0.29040  0.92490  0.99710  Biso   1.000  O
  O47      1.0000 0.19710  0.80000  0.07340  Biso   1.000  O
  O48      1.0000 0.66620  0.90720  0.23860  Biso   1.000  O
  O49      1.0000 0.67150  0.92580  0.10290  Biso   1.000  O
  O50      1.0000 0.28520  0.00110  0.12110  Biso   1.000  O
  O51      1.0000 0.73490  0.72900  0.17150  Biso   1.000  O
  O52      1.0000 0.84320  0.99780  0.28800  Biso   1.000  O
  O53      1.0000 0.72230  0.13000  0.18530  Biso   1.000  O
  C16      1.0000 0.38120  0.77920  0.11030  Biso   1.000  C
  C17      1.0000 0.55220  0.75780  0.14440  Biso   1.000  C
  C18      1.0000 0.47170  0.85180  0.12420  Biso   1.000  C
  O54      1.0000 0.59370  0.14700  0.27360  Biso   1.000  O
  H31      1.0000 0.38440  0.70930  0.07570  Biso   1.000  H
  H32      1.0000 0.37220  0.74020  0.15610  Biso   1.000  H
  H33      1.0000 0.54310  0.70620  0.18630  Biso   1.000  H
  H34      1.0000 0.55200  0.69900  0.10350  Biso   1.000  H
  H35      1.0000 0.47780  0.90000  0.08040  Biso   1.000  H
  H36      1.0000 0.47260  0.91350  0.16390  Biso   1.000  H
  V19      1.0000 0.83260  0.61760  0.40710  Biso   1.000  V
  V20      1.0000 0.75770  0.55380  0.21670  Biso   1.000  V
  V21      1.0000 0.19230  0.58190  0.28050  Biso   1.000  V
  P13      1.0000 0.21580  0.37920  0.42530  Biso   1.000  P
  P14      1.0000 0.83770  0.33410  0.33330  Biso   1.000  P
  O55      1.0000 0.20960  0.42490  0.50290  Biso   1.000  O
  O56      1.0000 0.30290  0.30000  0.42660  Biso   1.000  O
  O57      1.0000 0.83380  0.40720  0.26140  Biso   1.000  O
  O58      1.0000 0.82850  0.42580  0.39710  Biso   1.000  O
  O59      1.0000 0.21480  0.50110  0.37890  Biso   1.000  O
  O60      1.0000 0.76510  0.22900  0.32850  Biso   1.000  O
  O61      1.0000 0.65680  0.49780  0.21200  Biso   1.000  O
  O62      1.0000 0.77770  0.63000  0.31470  Biso   1.000  O
  C19      1.0000 0.11880  0.27920  0.38970  Biso   1.000  C
  C20      1.0000 0.94780  0.25780  0.35560  Biso   1.000  C
  C21      1.0000 0.02830  0.35180  0.37580  Biso   1.000  C
  O63      1.0000 0.90630  0.64700  0.22640  Biso   1.000  O
  H37      1.0000 0.11560  0.20930  0.42430  Biso   1.000  H
  H38      1.0000 0.12780  0.24020  0.34390  Biso   1.000  H
  H39      1.0000 0.95690  0.20620  0.31370  Biso   1.000  H
  H40      1.0000 0.94800  0.19900  0.39650  Biso   1.000  H
  H41      1.0000 0.02220  0.40000  0.41960  Biso   1.000  H
  H42      1.0000 0.02740  0.41350  0.33610  Biso   1.000  H
  V22      1.0000 0.33260  0.11760  0.40710  Biso   1.000  V
  V23      1.0000 0.25770  0.05380  0.21670  Biso   1.000  V
  V24      1.0000 0.69230  0.08190  0.28050  Biso   1.000  V
  P15      1.0000 0.71580  0.87920  0.42530  Biso   1.000  P
  P16      1.0000 0.33770  0.83410  0.33330  Biso   1.000  P
  O64      1.0000 0.70960  0.92490  0.50290  Biso   1.000  O
  O65      1.0000 0.80290  0.80000  0.42660  Biso   1.000  O
  O66      1.0000 0.33380  0.90720  0.26140  Biso   1.000  O
  O67      1.0000 0.32850  0.92580  0.39710  Biso   1.000  O
  O68      1.0000 0.71480  0.00110  0.37890  Biso   1.000  O
  O69      1.0000 0.26510  0.72900  0.32850  Biso   1.000  O
  O70      1.0000 0.15680  0.99780  0.21200  Biso   1.000  O
  O71      1.0000 0.27770  0.13000  0.31470  Biso   1.000  O
  C22      1.0000 0.61880  0.77920  0.38970  Biso   1.000  C
  C23      1.0000 0.44780  0.75780  0.35560  Biso   1.000  C
  C24      1.0000 0.52830  0.85180  0.37580  Biso   1.000  C
  O72      1.0000 0.40630  0.14700  0.22640  Biso   1.000  O
  H43      1.0000 0.61560  0.70930  0.42430  Biso   1.000  H
  H44      1.0000 0.62780  0.74020  0.34390  Biso   1.000  H
  H45      1.0000 0.45690  0.70620  0.31370  Biso   1.000  H
  H46      1.0000 0.44800  0.69900  0.39650  Biso   1.000  H
  H47      1.0000 0.52220  0.90000  0.41960  Biso   1.000  H
  H48      1.0000 0.52740  0.91350  0.33610  Biso   1.000  H
