data_image0
_cell_length_a       41.381
_cell_length_b       41.381
_cell_length_c       17.548
_cell_angle_alpha    90
_cell_angle_beta     90
_cell_angle_gamma    120

_symmetry_space_group_name_H-M    "P 1"
_symmetry_int_tables_number       1

loop_
  _symmetry_equiv_pos_as_xyz
  'x, y, z'

loop_
  _atom_site_label
  _atom_site_occupancy
  _atom_site_fract_x
  _atom_site_fract_y
  _atom_site_fract_z
  _atom_site_thermal_displace_type
  _atom_site_B_iso_or_equiv
  _atom_site_type_symbol
  Zn1      1.0000 0.40082  0.02916  0.66023  Biso   1.000  Zn
  O1       1.0000 0.40381  0.11058  0.65717  Biso   1.000  O
  O2       1.0000 0.38717  0.05735  0.59399  Biso   1.000  O
  O3       1.0000 0.48827  0.04776  0.66302  Biso   1.000  O
  O4       1.0000 0.43309  0.01706  0.60144  Biso   1.000  O
  O5       1.0000 0.37277  0.35649  0.18624  Biso   1.000  O
  O6       1.0000 0.42930  0.98010  0.48180  Biso   1.000  O
  O7       1.0000 0.54220  0.04390  0.60750  Biso   1.000  O
  C1       1.0000 0.39281  0.09031  0.59916  Biso   1.000  C
  C2       1.0000 0.38673  0.10638  0.52820  Biso   1.000  C
  C3       1.0000 0.36972  0.08293  0.46532  Biso   1.000  C
  C4       1.0000 0.36682  0.09951  0.39727  Biso   1.000  C
  C5       1.0000 0.37898  0.13723  0.39234  Biso   1.000  C
  C6       1.0000 0.39489  0.16023  0.45728  Biso   1.000  C
  C7       1.0000 0.39804  0.14452  0.52720  Biso   1.000  C
  C8       1.0000 0.37701  0.15450  0.31898  Biso   1.000  C
  C9       1.0000 0.37407  0.18683  0.32073  Biso   1.000  C
  C10      1.0000 0.57481  0.19355  0.72180  Biso   1.000  C
  C11      1.0000 0.60567  0.22931  0.72380  Biso   1.000  C
  C12      1.0000 0.60260  0.25848  0.75160  Biso   1.000  C
  C13      1.0000 0.56864  0.25185  0.78490  Biso   1.000  C
  C14      1.0000 0.53779  0.21609  0.78290  Biso   1.000  C
  C15      1.0000 0.46736  0.02737  0.61021  Biso   1.000  C
  C16      1.0000 0.48417  0.01274  0.55203  Biso   1.000  C
  C17      1.0000 0.52011  0.02174  0.55760  Biso   1.000  C
  C18      1.0000 0.46441  0.99087  0.49400  Biso   1.000  C
  C19      1.0000 0.37114  0.28922  0.18600  Biso   1.000  C
  C20      1.0000 0.38580  0.26370  0.18820  Biso   1.000  C
  C21      1.0000 0.35880  0.24920  0.18490  Biso   1.000  C
  Zn2      1.0000 0.97084  0.37166  0.66023  Biso   1.000  Zn
  O8       1.0000 0.88942  0.29323  0.65717  Biso   1.000  O
  O9       1.0000 0.94265  0.32982  0.59399  Biso   1.000  O
  O10      1.0000 0.95224  0.44051  0.66302  Biso   1.000  O
  O11      1.0000 0.98294  0.41603  0.60144  Biso   1.000  O
  O12      1.0000 0.64351  0.01628  0.18624  Biso   1.000  O
  O13      1.0000 0.01990  0.44920  0.48180  Biso   1.000  O
  O14      1.0000 0.95610  0.49830  0.60750  Biso   1.000  O
  C22      1.0000 0.90969  0.30250  0.59916  Biso   1.000  C
  C23      1.0000 0.89362  0.28035  0.52820  Biso   1.000  C
  C24      1.0000 0.91707  0.28679  0.46532  Biso   1.000  C
  C25      1.0000 0.90049  0.26731  0.39727  Biso   1.000  C
  C26      1.0000 0.86277  0.24175  0.39234  Biso   1.000  C
  C27      1.0000 0.83977  0.23466  0.45728  Biso   1.000  C
  C28      1.0000 0.85548  0.25352  0.52720  Biso   1.000  C
  C29      1.0000 0.84550  0.22251  0.31898  Biso   1.000  C
  C30      1.0000 0.81317  0.18724  0.32073  Biso   1.000  C
  C31      1.0000 0.80645  0.38126  0.72180  Biso   1.000  C
  C32      1.0000 0.77069  0.37636  0.72380  Biso   1.000  C
  C33      1.0000 0.74152  0.34412  0.75160  Biso   1.000  C
  C34      1.0000 0.74815  0.31679  0.78490  Biso   1.000  C
  C35      1.0000 0.78391  0.32170  0.78290  Biso   1.000  C
  C36      1.0000 0.97263  0.43999  0.61021  Biso   1.000  C
  C37      1.0000 0.98726  0.47143  0.55203  Biso   1.000  C
  C38      1.0000 0.97826  0.49837  0.55760  Biso   1.000  C
  C39      1.0000 0.00913  0.47354  0.49400  Biso   1.000  C
  C40      1.0000 0.71078  0.08192  0.18600  Biso   1.000  C
  C41      1.0000 0.73630  0.12210  0.18820  Biso   1.000  C
  C42      1.0000 0.75080  0.10960  0.18490  Biso   1.000  C
  Zn3      1.0000 0.62834  0.59918  0.66023  Biso   1.000  Zn
  O15      1.0000 0.70677  0.59619  0.65717  Biso   1.000  O
  O16      1.0000 0.67018  0.61283  0.59399  Biso   1.000  O
  O17      1.0000 0.55949  0.51173  0.66302  Biso   1.000  O
  O18      1.0000 0.58397  0.56691  0.60144  Biso   1.000  O
  O19      1.0000 0.98372  0.62723  0.18624  Biso   1.000  O
  O20      1.0000 0.55080  0.57070  0.48180  Biso   1.000  O
  O21      1.0000 0.50170  0.45780  0.60750  Biso   1.000  O
  C43      1.0000 0.69750  0.60719  0.59916  Biso   1.000  C
  C44      1.0000 0.71965  0.61327  0.52820  Biso   1.000  C
  C45      1.0000 0.71321  0.63028  0.46532  Biso   1.000  C
  C46      1.0000 0.73269  0.63318  0.39727  Biso   1.000  C
  C47      1.0000 0.75825  0.62102  0.39234  Biso   1.000  C
  C48      1.0000 0.76534  0.60511  0.45728  Biso   1.000  C
  C49      1.0000 0.74648  0.60196  0.52720  Biso   1.000  C
  C50      1.0000 0.77749  0.62299  0.31898  Biso   1.000  C
  C51      1.0000 0.81276  0.62593  0.32073  Biso   1.000  C
  C52      1.0000 0.61874  0.42519  0.72180  Biso   1.000  C
  C53      1.0000 0.62364  0.39433  0.72380  Biso   1.000  C
  C54      1.0000 0.65588  0.39740  0.75160  Biso   1.000  C
  C55      1.0000 0.68321  0.43136  0.78490  Biso   1.000  C
  C56      1.0000 0.67830  0.46221  0.78290  Biso   1.000  C
  C57      1.0000 0.56001  0.53264  0.61021  Biso   1.000  C
  C58      1.0000 0.52857  0.51583  0.55203  Biso   1.000  C
  C59      1.0000 0.50163  0.47989  0.55760  Biso   1.000  C
  C60      1.0000 0.52646  0.53559  0.49400  Biso   1.000  C
  C61      1.0000 0.91808  0.62886  0.18600  Biso   1.000  C
  C62      1.0000 0.87790  0.61420  0.18820  Biso   1.000  C
  C63      1.0000 0.89040  0.64120  0.18490  Biso   1.000  C
  Zn4      1.0000 0.59918  0.97084  0.16023  Biso   1.000  Zn
  O22      1.0000 0.59619  0.88942  0.15717  Biso   1.000  O
  O23      1.0000 0.61283  0.94265  0.09399  Biso   1.000  O
  O24      1.0000 0.51173  0.95224  0.16302  Biso   1.000  O
  O25      1.0000 0.56691  0.98294  0.10144  Biso   1.000  O
  O26      1.0000 0.62723  0.64351  0.68624  Biso   1.000  O
  O27      1.0000 0.57070  0.01990  0.98180  Biso   1.000  O
  O28      1.0000 0.45780  0.95610  0.10750  Biso   1.000  O
  C64      1.0000 0.60719  0.90969  0.09916  Biso   1.000  C
  C65      1.0000 0.61327  0.89362  0.02820  Biso   1.000  C
  C66      1.0000 0.63028  0.91707  0.96532  Biso   1.000  C
  C67      1.0000 0.63318  0.90049  0.89727  Biso   1.000  C
  C68      1.0000 0.62102  0.86277  0.89234  Biso   1.000  C
  C69      1.0000 0.60511  0.83977  0.95728  Biso   1.000  C
  C70      1.0000 0.60196  0.85548  0.02720  Biso   1.000  C
  C71      1.0000 0.62299  0.84550  0.81898  Biso   1.000  C
  C72      1.0000 0.62593  0.81317  0.82073  Biso   1.000  C
  C73      1.0000 0.42519  0.80645  0.22180  Biso   1.000  C
  C74      1.0000 0.39433  0.77069  0.22380  Biso   1.000  C
  C75      1.0000 0.39740  0.74152  0.25160  Biso   1.000  C
  C76      1.0000 0.43136  0.74815  0.28490  Biso   1.000  C
  C77      1.0000 0.46221  0.78391  0.28290  Biso   1.000  C
  C78      1.0000 0.53264  0.97263  0.11021  Biso   1.000  C
  C79      1.0000 0.51583  0.98726  0.05203  Biso   1.000  C
  C80      1.0000 0.47989  0.97826  0.05760  Biso   1.000  C
  C81      1.0000 0.53559  0.00913  0.99400  Biso   1.000  C
  C82      1.0000 0.62886  0.71078  0.68600  Biso   1.000  C
  C83      1.0000 0.61420  0.73630  0.68820  Biso   1.000  C
  C84      1.0000 0.64120  0.75080  0.68490  Biso   1.000  C
  Zn5      1.0000 0.02916  0.62834  0.16023  Biso   1.000  Zn
  O29      1.0000 0.11058  0.70677  0.15717  Biso   1.000  O
  O30      1.0000 0.05735  0.67018  0.09399  Biso   1.000  O
  O31      1.0000 0.04776  0.55949  0.16302  Biso   1.000  O
  O32      1.0000 0.01706  0.58397  0.10144  Biso   1.000  O
  O33      1.0000 0.35649  0.98372  0.68624  Biso   1.000  O
  O34      1.0000 0.98010  0.55080  0.98180  Biso   1.000  O
  O35      1.0000 0.04390  0.50170  0.10750  Biso   1.000  O
  C85      1.0000 0.09031  0.69750  0.09916  Biso   1.000  C
  C86      1.0000 0.10638  0.71965  0.02820  Biso   1.000  C
  C87      1.0000 0.08293  0.71321  0.96532  Biso   1.000  C
  C88      1.0000 0.09951  0.73269  0.89727  Biso   1.000  C
  C89      1.0000 0.13723  0.75825  0.89234  Biso   1.000  C
  C90      1.0000 0.16023  0.76534  0.95728  Biso   1.000  C
  C91      1.0000 0.14452  0.74648  0.02720  Biso   1.000  C
  C92      1.0000 0.15450  0.77749  0.81898  Biso   1.000  C
  C93      1.0000 0.18683  0.81276  0.82073  Biso   1.000  C
  C94      1.0000 0.19355  0.61874  0.22180  Biso   1.000  C
  C95      1.0000 0.22931  0.62364  0.22380  Biso   1.000  C
  C96      1.0000 0.25848  0.65588  0.25160  Biso   1.000  C
  C97      1.0000 0.25185  0.68321  0.28490  Biso   1.000  C
  C98      1.0000 0.21609  0.67830  0.28290  Biso   1.000  C
  C99      1.0000 0.02737  0.56001  0.11021  Biso   1.000  C
  C100     1.0000 0.01274  0.52857  0.05203  Biso   1.000  C
  C101     1.0000 0.02174  0.50163  0.05760  Biso   1.000  C
  C102     1.0000 0.99087  0.52646  0.99400  Biso   1.000  C
  C103     1.0000 0.28922  0.91808  0.68600  Biso   1.000  C
  C104     1.0000 0.26370  0.87790  0.68820  Biso   1.000  C
  C105     1.0000 0.24920  0.89040  0.68490  Biso   1.000  C
  Zn6      1.0000 0.37166  0.40082  0.16023  Biso   1.000  Zn
  O36      1.0000 0.29323  0.40381  0.15717  Biso   1.000  O
  O37      1.0000 0.32982  0.38717  0.09399  Biso   1.000  O
  O38      1.0000 0.44051  0.48827  0.16302  Biso   1.000  O
  O39      1.0000 0.41603  0.43309  0.10144  Biso   1.000  O
  O40      1.0000 0.01628  0.37277  0.68624  Biso   1.000  O
  O41      1.0000 0.44920  0.42930  0.98180  Biso   1.000  O
  O42      1.0000 0.49830  0.54220  0.10750  Biso   1.000  O
  C106     1.0000 0.30250  0.39281  0.09916  Biso   1.000  C
  C107     1.0000 0.28035  0.38673  0.02820  Biso   1.000  C
  C108     1.0000 0.28679  0.36972  0.96532  Biso   1.000  C
  C109     1.0000 0.26731  0.36682  0.89727  Biso   1.000  C
  C110     1.0000 0.24175  0.37898  0.89234  Biso   1.000  C
  C111     1.0000 0.23466  0.39489  0.95728  Biso   1.000  C
  C112     1.0000 0.25352  0.39804  0.02720  Biso   1.000  C
  C113     1.0000 0.22251  0.37701  0.81898  Biso   1.000  C
  C114     1.0000 0.18724  0.37407  0.82073  Biso   1.000  C
  C115     1.0000 0.38126  0.57481  0.22180  Biso   1.000  C
  C116     1.0000 0.37636  0.60567  0.22380  Biso   1.000  C
  C117     1.0000 0.34412  0.60260  0.25160  Biso   1.000  C
  C118     1.0000 0.31679  0.56864  0.28490  Biso   1.000  C
  C119     1.0000 0.32170  0.53779  0.28290  Biso   1.000  C
  C120     1.0000 0.43999  0.46736  0.11021  Biso   1.000  C
  C121     1.0000 0.47143  0.48417  0.05203  Biso   1.000  C
  C122     1.0000 0.49837  0.52011  0.05760  Biso   1.000  C
  C123     1.0000 0.47354  0.46441  0.99400  Biso   1.000  C
  C124     1.0000 0.08192  0.37114  0.68600  Biso   1.000  C
  C125     1.0000 0.12210  0.38580  0.68820  Biso   1.000  C
  C126     1.0000 0.10960  0.35880  0.68490  Biso   1.000  C
  Zn7      1.0000 0.59918  0.97084  0.33977  Biso   1.000  Zn
  O43      1.0000 0.59619  0.88942  0.34283  Biso   1.000  O
  O44      1.0000 0.61283  0.94265  0.40601  Biso   1.000  O
  O45      1.0000 0.51173  0.95224  0.33698  Biso   1.000  O
  O46      1.0000 0.56691  0.98294  0.39856  Biso   1.000  O
  O47      1.0000 0.62723  0.64351  0.81376  Biso   1.000  O
  O48      1.0000 0.57070  0.01990  0.51820  Biso   1.000  O
  O49      1.0000 0.45780  0.95610  0.39250  Biso   1.000  O
  C127     1.0000 0.60719  0.90969  0.40084  Biso   1.000  C
  C128     1.0000 0.61327  0.89362  0.47180  Biso   1.000  C
  C129     1.0000 0.63028  0.91707  0.53468  Biso   1.000  C
  C130     1.0000 0.63318  0.90049  0.60273  Biso   1.000  C
  C131     1.0000 0.62102  0.86277  0.60766  Biso   1.000  C
  C132     1.0000 0.60511  0.83977  0.54272  Biso   1.000  C
  C133     1.0000 0.60196  0.85548  0.47280  Biso   1.000  C
  C134     1.0000 0.62299  0.84550  0.68102  Biso   1.000  C
  C135     1.0000 0.62593  0.81317  0.67927  Biso   1.000  C
  C136     1.0000 0.42519  0.80645  0.27820  Biso   1.000  C
  C137     1.0000 0.39433  0.77069  0.27620  Biso   1.000  C
  C138     1.0000 0.39740  0.74152  0.24840  Biso   1.000  C
  C139     1.0000 0.43136  0.74815  0.21510  Biso   1.000  C
  C140     1.0000 0.46221  0.78391  0.21710  Biso   1.000  C
  C141     1.0000 0.53264  0.97263  0.38979  Biso   1.000  C
  C142     1.0000 0.51583  0.98726  0.44797  Biso   1.000  C
  C143     1.0000 0.47989  0.97826  0.44240  Biso   1.000  C
  C144     1.0000 0.53559  0.00913  0.50600  Biso   1.000  C
  C145     1.0000 0.62886  0.71078  0.81400  Biso   1.000  C
  C146     1.0000 0.61420  0.73630  0.81180  Biso   1.000  C
  C147     1.0000 0.64120  0.75080  0.81510  Biso   1.000  C
  Zn8      1.0000 0.02916  0.62834  0.33977  Biso   1.000  Zn
  O50      1.0000 0.11058  0.70677  0.34283  Biso   1.000  O
  O51      1.0000 0.05735  0.67018  0.40601  Biso   1.000  O
  O52      1.0000 0.04776  0.55949  0.33698  Biso   1.000  O
  O53      1.0000 0.01706  0.58397  0.39856  Biso   1.000  O
  O54      1.0000 0.35649  0.98372  0.81376  Biso   1.000  O
  O55      1.0000 0.98010  0.55080  0.51820  Biso   1.000  O
  O56      1.0000 0.04390  0.50170  0.39250  Biso   1.000  O
  C148     1.0000 0.09031  0.69750  0.40084  Biso   1.000  C
  C149     1.0000 0.10638  0.71965  0.47180  Biso   1.000  C
  C150     1.0000 0.08293  0.71321  0.53468  Biso   1.000  C
  C151     1.0000 0.09951  0.73269  0.60273  Biso   1.000  C
  C152     1.0000 0.13723  0.75825  0.60766  Biso   1.000  C
  C153     1.0000 0.16023  0.76534  0.54272  Biso   1.000  C
  C154     1.0000 0.14452  0.74648  0.47280  Biso   1.000  C
  C155     1.0000 0.15450  0.77749  0.68102  Biso   1.000  C
  C156     1.0000 0.18683  0.81276  0.67927  Biso   1.000  C
  C157     1.0000 0.19355  0.61874  0.27820  Biso   1.000  C
  C158     1.0000 0.22931  0.62364  0.27620  Biso   1.000  C
  C159     1.0000 0.25848  0.65588  0.24840  Biso   1.000  C
  C160     1.0000 0.25185  0.68321  0.21510  Biso   1.000  C
  C161     1.0000 0.21609  0.67830  0.21710  Biso   1.000  C
  C162     1.0000 0.02737  0.56001  0.38979  Biso   1.000  C
  C163     1.0000 0.01274  0.52857  0.44797  Biso   1.000  C
  C164     1.0000 0.02174  0.50163  0.44240  Biso   1.000  C
  C165     1.0000 0.99087  0.52646  0.50600  Biso   1.000  C
  C166     1.0000 0.28922  0.91808  0.81400  Biso   1.000  C
  C167     1.0000 0.26370  0.87790  0.81180  Biso   1.000  C
  C168     1.0000 0.24920  0.89040  0.81510  Biso   1.000  C
  Zn9      1.0000 0.37166  0.40082  0.33977  Biso   1.000  Zn
  O57      1.0000 0.29323  0.40381  0.34283  Biso   1.000  O
  O58      1.0000 0.32982  0.38717  0.40601  Biso   1.000  O
  O59      1.0000 0.44051  0.48827  0.33698  Biso   1.000  O
  O60      1.0000 0.41603  0.43309  0.39856  Biso   1.000  O
  O61      1.0000 0.01628  0.37277  0.81376  Biso   1.000  O
  O62      1.0000 0.44920  0.42930  0.51820  Biso   1.000  O
  O63      1.0000 0.49830  0.54220  0.39250  Biso   1.000  O
  C169     1.0000 0.30250  0.39281  0.40084  Biso   1.000  C
  C170     1.0000 0.28035  0.38673  0.47180  Biso   1.000  C
  C171     1.0000 0.28679  0.36972  0.53468  Biso   1.000  C
  C172     1.0000 0.26731  0.36682  0.60273  Biso   1.000  C
  C173     1.0000 0.24175  0.37898  0.60766  Biso   1.000  C
  C174     1.0000 0.23466  0.39489  0.54272  Biso   1.000  C
  C175     1.0000 0.25352  0.39804  0.47280  Biso   1.000  C
  C176     1.0000 0.22251  0.37701  0.68102  Biso   1.000  C
  C177     1.0000 0.18724  0.37407  0.67927  Biso   1.000  C
  C178     1.0000 0.38126  0.57481  0.27820  Biso   1.000  C
  C179     1.0000 0.37636  0.60567  0.27620  Biso   1.000  C
  C180     1.0000 0.34412  0.60260  0.24840  Biso   1.000  C
  C181     1.0000 0.31679  0.56864  0.21510  Biso   1.000  C
  C182     1.0000 0.32170  0.53779  0.21710  Biso   1.000  C
  C183     1.0000 0.43999  0.46736  0.38979  Biso   1.000  C
  C184     1.0000 0.47143  0.48417  0.44797  Biso   1.000  C
  C185     1.0000 0.49837  0.52011  0.44240  Biso   1.000  C
  C186     1.0000 0.47354  0.46441  0.50600  Biso   1.000  C
  C187     1.0000 0.08192  0.37114  0.81400  Biso   1.000  C
  C188     1.0000 0.12210  0.38580  0.81180  Biso   1.000  C
  C189     1.0000 0.10960  0.35880  0.81510  Biso   1.000  C
  Zn10     1.0000 0.40082  0.02916  0.83977  Biso   1.000  Zn
  O64      1.0000 0.40381  0.11058  0.84283  Biso   1.000  O
  O65      1.0000 0.38717  0.05735  0.90601  Biso   1.000  O
  O66      1.0000 0.48827  0.04776  0.83698  Biso   1.000  O
  O67      1.0000 0.43309  0.01706  0.89856  Biso   1.000  O
  O68      1.0000 0.37277  0.35649  0.31376  Biso   1.000  O
  O69      1.0000 0.42930  0.98010  0.01820  Biso   1.000  O
  O70      1.0000 0.54220  0.04390  0.89250  Biso   1.000  O
  C190     1.0000 0.39281  0.09031  0.90084  Biso   1.000  C
  C191     1.0000 0.38673  0.10638  0.97180  Biso   1.000  C
  C192     1.0000 0.36972  0.08293  0.03468  Biso   1.000  C
  C193     1.0000 0.36682  0.09951  0.10273  Biso   1.000  C
  C194     1.0000 0.37898  0.13723  0.10766  Biso   1.000  C
  C195     1.0000 0.39489  0.16023  0.04272  Biso   1.000  C
  C196     1.0000 0.39804  0.14452  0.97280  Biso   1.000  C
  C197     1.0000 0.37701  0.15450  0.18102  Biso   1.000  C
  C198     1.0000 0.37407  0.18683  0.17927  Biso   1.000  C
  C199     1.0000 0.57481  0.19355  0.77820  Biso   1.000  C
  C200     1.0000 0.60567  0.22931  0.77620  Biso   1.000  C
  C201     1.0000 0.60260  0.25848  0.74840  Biso   1.000  C
  C202     1.0000 0.56864  0.25185  0.71510  Biso   1.000  C
  C203     1.0000 0.53779  0.21609  0.71710  Biso   1.000  C
  C204     1.0000 0.46736  0.02737  0.88979  Biso   1.000  C
  C205     1.0000 0.48417  0.01274  0.94797  Biso   1.000  C
  C206     1.0000 0.52011  0.02174  0.94240  Biso   1.000  C
  C207     1.0000 0.46441  0.99087  0.00600  Biso   1.000  C
  C208     1.0000 0.37114  0.28922  0.31400  Biso   1.000  C
  C209     1.0000 0.38580  0.26370  0.31180  Biso   1.000  C
  C210     1.0000 0.35880  0.24920  0.31510  Biso   1.000  C
  Zn11     1.0000 0.97084  0.37166  0.83977  Biso   1.000  Zn
  O71      1.0000 0.88942  0.29323  0.84283  Biso   1.000  O
  O72      1.0000 0.94265  0.32982  0.90601  Biso   1.000  O
  O73      1.0000 0.95224  0.44051  0.83698  Biso   1.000  O
  O74      1.0000 0.98294  0.41603  0.89856  Biso   1.000  O
  O75      1.0000 0.64351  0.01628  0.31376  Biso   1.000  O
  O76      1.0000 0.01990  0.44920  0.01820  Biso   1.000  O
  O77      1.0000 0.95610  0.49830  0.89250  Biso   1.000  O
  C211     1.0000 0.90969  0.30250  0.90084  Biso   1.000  C
  C212     1.0000 0.89362  0.28035  0.97180  Biso   1.000  C
  C213     1.0000 0.91707  0.28679  0.03468  Biso   1.000  C
  C214     1.0000 0.90049  0.26731  0.10273  Biso   1.000  C
  C215     1.0000 0.86277  0.24175  0.10766  Biso   1.000  C
  C216     1.0000 0.83977  0.23466  0.04272  Biso   1.000  C
  C217     1.0000 0.85548  0.25352  0.97280  Biso   1.000  C
  C218     1.0000 0.84550  0.22251  0.18102  Biso   1.000  C
  C219     1.0000 0.81317  0.18724  0.17927  Biso   1.000  C
  C220     1.0000 0.80645  0.38126  0.77820  Biso   1.000  C
  C221     1.0000 0.77069  0.37636  0.77620  Biso   1.000  C
  C222     1.0000 0.74152  0.34412  0.74840  Biso   1.000  C
  C223     1.0000 0.74815  0.31679  0.71510  Biso   1.000  C
  C224     1.0000 0.78391  0.32170  0.71710  Biso   1.000  C
  C225     1.0000 0.97263  0.43999  0.88979  Biso   1.000  C
  C226     1.0000 0.98726  0.47143  0.94797  Biso   1.000  C
  C227     1.0000 0.97826  0.49837  0.94240  Biso   1.000  C
  C228     1.0000 0.00913  0.47354  0.00600  Biso   1.000  C
  C229     1.0000 0.71078  0.08192  0.31400  Biso   1.000  C
  C230     1.0000 0.73630  0.12210  0.31180  Biso   1.000  C
  C231     1.0000 0.75080  0.10960  0.31510  Biso   1.000  C
  Zn12     1.0000 0.62834  0.59918  0.83977  Biso   1.000  Zn
  O78      1.0000 0.70677  0.59619  0.84283  Biso   1.000  O
  O79      1.0000 0.67018  0.61283  0.90601  Biso   1.000  O
  O80      1.0000 0.55949  0.51173  0.83698  Biso   1.000  O
  O81      1.0000 0.58397  0.56691  0.89856  Biso   1.000  O
  O82      1.0000 0.98372  0.62723  0.31376  Biso   1.000  O
  O83      1.0000 0.55080  0.57070  0.01820  Biso   1.000  O
  O84      1.0000 0.50170  0.45780  0.89250  Biso   1.000  O
  C232     1.0000 0.69750  0.60719  0.90084  Biso   1.000  C
  C233     1.0000 0.71965  0.61327  0.97180  Biso   1.000  C
  C234     1.0000 0.71321  0.63028  0.03468  Biso   1.000  C
  C235     1.0000 0.73269  0.63318  0.10273  Biso   1.000  C
  C236     1.0000 0.75825  0.62102  0.10766  Biso   1.000  C
  C237     1.0000 0.76534  0.60511  0.04272  Biso   1.000  C
  C238     1.0000 0.74648  0.60196  0.97280  Biso   1.000  C
  C239     1.0000 0.77749  0.62299  0.18102  Biso   1.000  C
  C240     1.0000 0.81276  0.62593  0.17927  Biso   1.000  C
  C241     1.0000 0.61874  0.42519  0.77820  Biso   1.000  C
  C242     1.0000 0.62364  0.39433  0.77620  Biso   1.000  C
  C243     1.0000 0.65588  0.39740  0.74840  Biso   1.000  C
  C244     1.0000 0.68321  0.43136  0.71510  Biso   1.000  C
  C245     1.0000 0.67830  0.46221  0.71710  Biso   1.000  C
  C246     1.0000 0.56001  0.53264  0.88979  Biso   1.000  C
  C247     1.0000 0.52857  0.51583  0.94797  Biso   1.000  C
  C248     1.0000 0.50163  0.47989  0.94240  Biso   1.000  C
  C249     1.0000 0.52646  0.53559  0.00600  Biso   1.000  C
  C250     1.0000 0.91808  0.62886  0.31400  Biso   1.000  C
  C251     1.0000 0.87790  0.61420  0.31180  Biso   1.000  C
  C252     1.0000 0.89040  0.64120  0.31510  Biso   1.000  C
  Zn13     1.0000 0.47779  0.06944  0.75000  Biso   1.000  Zn
  Zn14     1.0000 0.42543  0.10484  0.75000  Biso   1.000  Zn
  O85      1.0000 0.42657  0.05822  0.75000  Biso   1.000  O
  O86      1.0000 0.51310  0.12259  0.75000  Biso   1.000  O
  O87      1.0000 0.47593  0.14609  0.75000  Biso   1.000  O
  C253     1.0000 0.50711  0.14944  0.75000  Biso   1.000  C
  C254     1.0000 0.54088  0.18695  0.75000  Biso   1.000  C
  C255     1.0000 0.63549  0.29761  0.75000  Biso   1.000  C
  C256     1.0000 0.67165  0.30242  0.75000  Biso   1.000  C
  Zn15     1.0000 0.93056  0.40835  0.75000  Biso   1.000  Zn
  Zn16     1.0000 0.89516  0.32059  0.75000  Biso   1.000  Zn
  O88      1.0000 0.94178  0.36835  0.75000  Biso   1.000  O
  O89      1.0000 0.87741  0.39051  0.75000  Biso   1.000  O
  O90      1.0000 0.85391  0.32984  0.75000  Biso   1.000  O
  C257     1.0000 0.85056  0.35767  0.75000  Biso   1.000  C
  C258     1.0000 0.81305  0.35393  0.75000  Biso   1.000  C
  C259     1.0000 0.70239  0.33788  0.75000  Biso   1.000  C
  C260     1.0000 0.69758  0.36923  0.75000  Biso   1.000  C
  Zn17     1.0000 0.59165  0.52221  0.75000  Biso   1.000  Zn
  Zn18     1.0000 0.67941  0.57457  0.75000  Biso   1.000  Zn
  O91      1.0000 0.63165  0.57343  0.75000  Biso   1.000  O
  O92      1.0000 0.60949  0.48690  0.75000  Biso   1.000  O
  O93      1.0000 0.67016  0.52407  0.75000  Biso   1.000  O
  C261     1.0000 0.64233  0.49289  0.75000  Biso   1.000  C
  C262     1.0000 0.64607  0.45912  0.75000  Biso   1.000  C
  C263     1.0000 0.66212  0.36451  0.75000  Biso   1.000  C
  C264     1.0000 0.63077  0.32835  0.75000  Biso   1.000  C
  Zn19     1.0000 0.52221  0.93056  0.25000  Biso   1.000  Zn
  Zn20     1.0000 0.57457  0.89516  0.25000  Biso   1.000  Zn
  O94      1.0000 0.57343  0.94178  0.25000  Biso   1.000  O
  O95      1.0000 0.48690  0.87741  0.25000  Biso   1.000  O
  O96      1.0000 0.52407  0.85391  0.25000  Biso   1.000  O
  C265     1.0000 0.49289  0.85056  0.25000  Biso   1.000  C
  C266     1.0000 0.45912  0.81305  0.25000  Biso   1.000  C
  C267     1.0000 0.36451  0.70239  0.25000  Biso   1.000  C
  C268     1.0000 0.32835  0.69758  0.25000  Biso   1.000  C
  Zn21     1.0000 0.06944  0.59165  0.25000  Biso   1.000  Zn
  Zn22     1.0000 0.10484  0.67941  0.25000  Biso   1.000  Zn
  O97      1.0000 0.05822  0.63165  0.25000  Biso   1.000  O
  O98      1.0000 0.12259  0.60949  0.25000  Biso   1.000  O
  O99      1.0000 0.14609  0.67016  0.25000  Biso   1.000  O
  C269     1.0000 0.14944  0.64233  0.25000  Biso   1.000  C
  C270     1.0000 0.18695  0.64607  0.25000  Biso   1.000  C
  C271     1.0000 0.29761  0.66212  0.25000  Biso   1.000  C
  C272     1.0000 0.30242  0.63077  0.25000  Biso   1.000  C
  Zn23     1.0000 0.40835  0.47779  0.25000  Biso   1.000  Zn
  Zn24     1.0000 0.32059  0.42543  0.25000  Biso   1.000  Zn
  O100     1.0000 0.36835  0.42657  0.25000  Biso   1.000  O
  O101     1.0000 0.39051  0.51310  0.25000  Biso   1.000  O
  O102     1.0000 0.32984  0.47593  0.25000  Biso   1.000  O
  C273     1.0000 0.35767  0.50711  0.25000  Biso   1.000  C
  C274     1.0000 0.35393  0.54088  0.25000  Biso   1.000  C
  C275     1.0000 0.33788  0.63549  0.25000  Biso   1.000  C
  C276     1.0000 0.36923  0.67165  0.25000  Biso   1.000  C
  C277     1.0000 0.37271  0.20276  0.25000  Biso   1.000  C
  C278     1.0000 0.37844  0.13862  0.25000  Biso   1.000  C
  C279     1.0000 0.37249  0.34243  0.25000  Biso   1.000  C
  C280     1.0000 0.37156  0.30607  0.25000  Biso   1.000  C
  C281     1.0000 0.37217  0.23864  0.25000  Biso   1.000  C
  C282     1.0000 0.79724  0.16995  0.25000  Biso   1.000  C
  C283     1.0000 0.86138  0.23982  0.25000  Biso   1.000  C
  C284     1.0000 0.65757  0.03006  0.25000  Biso   1.000  C
  C285     1.0000 0.69393  0.06549  0.25000  Biso   1.000  C
  C286     1.0000 0.76136  0.13353  0.25000  Biso   1.000  C
  C287     1.0000 0.83005  0.62729  0.25000  Biso   1.000  C
  C288     1.0000 0.76018  0.62156  0.25000  Biso   1.000  C
  C289     1.0000 0.96994  0.62751  0.25000  Biso   1.000  C
  C290     1.0000 0.93451  0.62844  0.25000  Biso   1.000  C
  C291     1.0000 0.86647  0.62783  0.25000  Biso   1.000  C
  C292     1.0000 0.62729  0.79724  0.75000  Biso   1.000  C
  C293     1.0000 0.62156  0.86138  0.75000  Biso   1.000  C
  C294     1.0000 0.62751  0.65757  0.75000  Biso   1.000  C
  C295     1.0000 0.62844  0.69393  0.75000  Biso   1.000  C
  C296     1.0000 0.62783  0.76136  0.75000  Biso   1.000  C
  C297     1.0000 0.20276  0.83005  0.75000  Biso   1.000  C
  C298     1.0000 0.13862  0.76018  0.75000  Biso   1.000  C
  C299     1.0000 0.34243  0.96994  0.75000  Biso   1.000  C
  C300     1.0000 0.30607  0.93451  0.75000  Biso   1.000  C
  C301     1.0000 0.23864  0.86647  0.75000  Biso   1.000  C
  C302     1.0000 0.16995  0.37271  0.75000  Biso   1.000  C
  C303     1.0000 0.23982  0.37844  0.75000  Biso   1.000  C
  C304     1.0000 0.03006  0.37249  0.75000  Biso   1.000  C
  C305     1.0000 0.06549  0.37156  0.75000  Biso   1.000  C
  C306     1.0000 0.13353  0.37217  0.75000  Biso   1.000  C
