data_image0
_cell_length_a       41.288
_cell_length_b       41.288
_cell_length_c       17.5402
_cell_angle_alpha    90
_cell_angle_beta     90
_cell_angle_gamma    120

_symmetry_space_group_name_H-M    "P 1"
_symmetry_int_tables_number       1

loop_
  _symmetry_equiv_pos_as_xyz
  'x, y, z'

loop_
  _atom_site_label
  _atom_site_occupancy
  _atom_site_fract_x
  _atom_site_fract_y
  _atom_site_fract_z
  _atom_site_thermal_displace_type
  _atom_site_B_iso_or_equiv
  _atom_site_type_symbol
  Zn1      1.0000 0.37192  0.40083  0.33952  Biso   1.000  Zn
  O1       1.0000 0.29345  0.40343  0.15747  Biso   1.000  O
  O2       1.0000 0.33008  0.38716  0.09355  Biso   1.000  O
  O3       1.0000 0.01710  0.37344  0.68648  Biso   1.000  O
  O4       1.0000 0.41707  0.43327  0.39620  Biso   1.000  O
  O5       1.0000 0.43983  0.48791  0.33840  Biso   1.000  O
  C1       1.0000 0.30262  0.39241  0.09961  Biso   1.000  C
  C2       1.0000 0.28082  0.38738  0.02766  Biso   1.000  C
  C3       1.0000 0.28678  0.37039  0.96460  Biso   1.000  C
  C4       1.0000 0.26682  0.36715  0.89670  Biso   1.000  C
  C5       1.0000 0.24268  0.38030  0.89244  Biso   1.000  C
  C6       1.0000 0.23655  0.39614  0.95640  Biso   1.000  C
  C7       1.0000 0.25451  0.39862  0.02380  Biso   1.000  C
  C8       1.0000 0.22318  0.37755  0.81905  Biso   1.000  C
  C9       1.0000 0.18839  0.37533  0.82020  Biso   1.000  C
  C10      1.0000 0.12330  0.38660  0.68560  Biso   1.000  C
  C11      1.0000 0.08920  0.38730  0.68640  Biso   1.000  C
  C12      1.0000 0.11070  0.35790  0.81210  Biso   1.000  C
  C13      1.0000 0.07740  0.36010  0.81310  Biso   1.000  C
  C14      1.0000 0.32251  0.53734  0.28859  Biso   1.000  C
  C15      1.0000 0.31823  0.56853  0.29560  Biso   1.000  C
  C16      1.0000 0.34463  0.60246  0.26390  Biso   1.000  C
  C17      1.0000 0.37531  0.60521  0.22530  Biso   1.000  C
  C18      1.0000 0.37959  0.57402  0.21836  Biso   1.000  C
  C19      1.0000 0.43980  0.46676  0.38940  Biso   1.000  C
  C20      1.0000 0.47180  0.48443  0.44760  Biso   1.000  C
  C21      1.0000 0.47410  0.46640  0.49850  Biso   1.000  C
  C22      1.0000 0.49730  0.51870  0.43870  Biso   1.000  C
  Zn2      1.0000 0.59917  0.97109  0.33952  Biso   1.000  Zn
  O6       1.0000 0.59657  0.89002  0.15747  Biso   1.000  O
  O7       1.0000 0.61284  0.94292  0.09355  Biso   1.000  O
  O8       1.0000 0.62656  0.64366  0.68648  Biso   1.000  O
  O9       1.0000 0.56673  0.98380  0.39620  Biso   1.000  O
  O10      1.0000 0.51209  0.95192  0.33840  Biso   1.000  O
  C23      1.0000 0.60759  0.91021  0.09961  Biso   1.000  C
  C24      1.0000 0.61262  0.89344  0.02766  Biso   1.000  C
  C25      1.0000 0.62961  0.91639  0.96460  Biso   1.000  C
  C26      1.0000 0.63285  0.89967  0.89670  Biso   1.000  C
  C27      1.0000 0.61970  0.86238  0.89244  Biso   1.000  C
  C28      1.0000 0.60386  0.84041  0.95640  Biso   1.000  C
  C29      1.0000 0.60138  0.85589  0.02380  Biso   1.000  C
  C30      1.0000 0.62245  0.84563  0.81905  Biso   1.000  C
  C31      1.0000 0.62467  0.81306  0.82020  Biso   1.000  C
  C32      1.0000 0.61340  0.73670  0.68560  Biso   1.000  C
  C33      1.0000 0.61270  0.70190  0.68640  Biso   1.000  C
  C34      1.0000 0.64210  0.75280  0.81210  Biso   1.000  C
  C35      1.0000 0.63990  0.71730  0.81310  Biso   1.000  C
  C36      1.0000 0.46266  0.78517  0.28859  Biso   1.000  C
  C37      1.0000 0.43147  0.74970  0.29560  Biso   1.000  C
  C38      1.0000 0.39754  0.74217  0.26390  Biso   1.000  C
  C39      1.0000 0.39479  0.77010  0.22530  Biso   1.000  C
  C40      1.0000 0.42598  0.80557  0.21836  Biso   1.000  C
  C41      1.0000 0.53324  0.97304  0.38940  Biso   1.000  C
  C42      1.0000 0.51557  0.98737  0.44760  Biso   1.000  C
  C43      1.0000 0.53360  0.00770  0.49850  Biso   1.000  C
  C44      1.0000 0.48130  0.97860  0.43870  Biso   1.000  C
  Zn3      1.0000 0.02891  0.62808  0.33952  Biso   1.000  Zn
  O11      1.0000 0.10998  0.70655  0.15747  Biso   1.000  O
  O12      1.0000 0.05708  0.66992  0.09355  Biso   1.000  O
  O13      1.0000 0.35634  0.98290  0.68648  Biso   1.000  O
  O14      1.0000 0.01620  0.58293  0.39620  Biso   1.000  O
  O15      1.0000 0.04808  0.56017  0.33840  Biso   1.000  O
  C45      1.0000 0.08979  0.69738  0.09961  Biso   1.000  C
  C46      1.0000 0.10656  0.71918  0.02766  Biso   1.000  C
  C47      1.0000 0.08361  0.71322  0.96460  Biso   1.000  C
  C48      1.0000 0.10033  0.73318  0.89670  Biso   1.000  C
  C49      1.0000 0.13762  0.75732  0.89244  Biso   1.000  C
  C50      1.0000 0.15959  0.76345  0.95640  Biso   1.000  C
  C51      1.0000 0.14411  0.74549  0.02380  Biso   1.000  C
  C52      1.0000 0.15437  0.77682  0.81905  Biso   1.000  C
  C53      1.0000 0.18694  0.81161  0.82020  Biso   1.000  C
  C54      1.0000 0.26330  0.87670  0.68560  Biso   1.000  C
  C55      1.0000 0.29810  0.91080  0.68640  Biso   1.000  C
  C56      1.0000 0.24720  0.88930  0.81210  Biso   1.000  C
  C57      1.0000 0.28270  0.92260  0.81310  Biso   1.000  C
  C58      1.0000 0.21483  0.67749  0.28859  Biso   1.000  C
  C59      1.0000 0.25030  0.68177  0.29560  Biso   1.000  C
  C60      1.0000 0.25783  0.65537  0.26390  Biso   1.000  C
  C61      1.0000 0.22990  0.62469  0.22530  Biso   1.000  C
  C62      1.0000 0.19443  0.62041  0.21836  Biso   1.000  C
  C63      1.0000 0.02696  0.56020  0.38940  Biso   1.000  C
  C64      1.0000 0.01263  0.52820  0.44760  Biso   1.000  C
  C65      1.0000 0.99230  0.52590  0.49850  Biso   1.000  C
  C66      1.0000 0.02140  0.50270  0.43870  Biso   1.000  C
  Zn4      1.0000 0.62808  0.59917  0.83952  Biso   1.000  Zn
  O16      1.0000 0.70655  0.59657  0.65747  Biso   1.000  O
  O17      1.0000 0.66992  0.61284  0.59355  Biso   1.000  O
  O18      1.0000 0.98290  0.62656  0.18648  Biso   1.000  O
  O19      1.0000 0.58293  0.56673  0.89620  Biso   1.000  O
  O20      1.0000 0.56017  0.51209  0.83840  Biso   1.000  O
  C67      1.0000 0.69738  0.60759  0.59961  Biso   1.000  C
  C68      1.0000 0.71918  0.61262  0.52766  Biso   1.000  C
  C69      1.0000 0.71322  0.62961  0.46460  Biso   1.000  C
  C70      1.0000 0.73318  0.63285  0.39670  Biso   1.000  C
  C71      1.0000 0.75732  0.61970  0.39244  Biso   1.000  C
  C72      1.0000 0.76345  0.60386  0.45640  Biso   1.000  C
  C73      1.0000 0.74549  0.60138  0.52380  Biso   1.000  C
  C74      1.0000 0.77682  0.62245  0.31905  Biso   1.000  C
  C75      1.0000 0.81161  0.62467  0.32020  Biso   1.000  C
  C76      1.0000 0.87670  0.61340  0.18560  Biso   1.000  C
  C77      1.0000 0.91080  0.61270  0.18640  Biso   1.000  C
  C78      1.0000 0.88930  0.64210  0.31210  Biso   1.000  C
  C79      1.0000 0.92260  0.63990  0.31310  Biso   1.000  C
  C80      1.0000 0.67749  0.46266  0.78859  Biso   1.000  C
  C81      1.0000 0.68177  0.43147  0.79560  Biso   1.000  C
  C82      1.0000 0.65537  0.39754  0.76390  Biso   1.000  C
  C83      1.0000 0.62469  0.39479  0.72530  Biso   1.000  C
  C84      1.0000 0.62041  0.42598  0.71836  Biso   1.000  C
  C85      1.0000 0.56020  0.53324  0.88940  Biso   1.000  C
  C86      1.0000 0.52820  0.51557  0.94760  Biso   1.000  C
  C87      1.0000 0.52590  0.53360  0.99850  Biso   1.000  C
  C88      1.0000 0.50270  0.48130  0.93870  Biso   1.000  C
  Zn5      1.0000 0.40083  0.02891  0.83952  Biso   1.000  Zn
  O21      1.0000 0.40343  0.10998  0.65747  Biso   1.000  O
  O22      1.0000 0.38716  0.05708  0.59355  Biso   1.000  O
  O23      1.0000 0.37344  0.35634  0.18648  Biso   1.000  O
  O24      1.0000 0.43327  0.01620  0.89620  Biso   1.000  O
  O25      1.0000 0.48791  0.04808  0.83840  Biso   1.000  O
  C89      1.0000 0.39241  0.08979  0.59961  Biso   1.000  C
  C90      1.0000 0.38738  0.10656  0.52766  Biso   1.000  C
  C91      1.0000 0.37039  0.08361  0.46460  Biso   1.000  C
  C92      1.0000 0.36715  0.10033  0.39670  Biso   1.000  C
  C93      1.0000 0.38030  0.13762  0.39244  Biso   1.000  C
  C94      1.0000 0.39614  0.15959  0.45640  Biso   1.000  C
  C95      1.0000 0.39862  0.14411  0.52380  Biso   1.000  C
  C96      1.0000 0.37755  0.15437  0.31905  Biso   1.000  C
  C97      1.0000 0.37533  0.18694  0.32020  Biso   1.000  C
  C98      1.0000 0.38660  0.26330  0.18560  Biso   1.000  C
  C99      1.0000 0.38730  0.29810  0.18640  Biso   1.000  C
  C100     1.0000 0.35790  0.24720  0.31210  Biso   1.000  C
  C101     1.0000 0.36010  0.28270  0.31310  Biso   1.000  C
  C102     1.0000 0.53734  0.21483  0.78859  Biso   1.000  C
  C103     1.0000 0.56853  0.25030  0.79560  Biso   1.000  C
  C104     1.0000 0.60246  0.25783  0.76390  Biso   1.000  C
  C105     1.0000 0.60521  0.22990  0.72530  Biso   1.000  C
  C106     1.0000 0.57402  0.19443  0.71836  Biso   1.000  C
  C107     1.0000 0.46676  0.02696  0.88940  Biso   1.000  C
  C108     1.0000 0.48443  0.01263  0.94760  Biso   1.000  C
  C109     1.0000 0.46640  0.99230  0.99850  Biso   1.000  C
  C110     1.0000 0.51870  0.02140  0.93870  Biso   1.000  C
  Zn6      1.0000 0.97109  0.37192  0.83952  Biso   1.000  Zn
  O26      1.0000 0.89002  0.29345  0.65747  Biso   1.000  O
  O27      1.0000 0.94292  0.33008  0.59355  Biso   1.000  O
  O28      1.0000 0.64366  0.01710  0.18648  Biso   1.000  O
  O29      1.0000 0.98380  0.41707  0.89620  Biso   1.000  O
  O30      1.0000 0.95192  0.43983  0.83840  Biso   1.000  O
  C111     1.0000 0.91021  0.30262  0.59961  Biso   1.000  C
  C112     1.0000 0.89344  0.28082  0.52766  Biso   1.000  C
  C113     1.0000 0.91639  0.28678  0.46460  Biso   1.000  C
  C114     1.0000 0.89967  0.26682  0.39670  Biso   1.000  C
  C115     1.0000 0.86238  0.24268  0.39244  Biso   1.000  C
  C116     1.0000 0.84041  0.23655  0.45640  Biso   1.000  C
  C117     1.0000 0.85589  0.25451  0.52380  Biso   1.000  C
  C118     1.0000 0.84563  0.22318  0.31905  Biso   1.000  C
  C119     1.0000 0.81306  0.18839  0.32020  Biso   1.000  C
  C120     1.0000 0.73670  0.12330  0.18560  Biso   1.000  C
  C121     1.0000 0.70190  0.08920  0.18640  Biso   1.000  C
  C122     1.0000 0.75280  0.11070  0.31210  Biso   1.000  C
  C123     1.0000 0.71730  0.07740  0.31310  Biso   1.000  C
  C124     1.0000 0.78517  0.32251  0.78859  Biso   1.000  C
  C125     1.0000 0.74970  0.31823  0.79560  Biso   1.000  C
  C126     1.0000 0.74217  0.34463  0.76390  Biso   1.000  C
  C127     1.0000 0.77010  0.37531  0.72530  Biso   1.000  C
  C128     1.0000 0.80557  0.37959  0.71836  Biso   1.000  C
  C129     1.0000 0.97304  0.43980  0.88940  Biso   1.000  C
  C130     1.0000 0.98737  0.47180  0.94760  Biso   1.000  C
  C131     1.0000 0.00770  0.47410  0.99850  Biso   1.000  C
  C132     1.0000 0.97860  0.49730  0.93870  Biso   1.000  C
  Zn7      1.0000 0.62808  0.59917  0.66048  Biso   1.000  Zn
  O31      1.0000 0.70655  0.59657  0.84253  Biso   1.000  O
  O32      1.0000 0.66992  0.61284  0.90645  Biso   1.000  O
  O33      1.0000 0.98290  0.62656  0.31352  Biso   1.000  O
  O34      1.0000 0.58293  0.56673  0.60380  Biso   1.000  O
  O35      1.0000 0.56017  0.51209  0.66160  Biso   1.000  O
  C133     1.0000 0.69738  0.60759  0.90039  Biso   1.000  C
  C134     1.0000 0.71918  0.61262  0.97234  Biso   1.000  C
  C135     1.0000 0.71322  0.62961  0.03540  Biso   1.000  C
  C136     1.0000 0.73318  0.63285  0.10330  Biso   1.000  C
  C137     1.0000 0.75732  0.61970  0.10756  Biso   1.000  C
  C138     1.0000 0.76345  0.60386  0.04360  Biso   1.000  C
  C139     1.0000 0.74549  0.60138  0.97620  Biso   1.000  C
  C140     1.0000 0.77682  0.62245  0.18095  Biso   1.000  C
  C141     1.0000 0.81161  0.62467  0.17980  Biso   1.000  C
  C142     1.0000 0.87670  0.61340  0.31440  Biso   1.000  C
  C143     1.0000 0.91080  0.61270  0.31360  Biso   1.000  C
  C144     1.0000 0.88930  0.64210  0.18790  Biso   1.000  C
  C145     1.0000 0.92260  0.63990  0.18690  Biso   1.000  C
  C146     1.0000 0.67749  0.46266  0.71141  Biso   1.000  C
  C147     1.0000 0.68177  0.43147  0.70440  Biso   1.000  C
  C148     1.0000 0.65537  0.39754  0.73610  Biso   1.000  C
  C149     1.0000 0.62469  0.39479  0.77470  Biso   1.000  C
  C150     1.0000 0.62041  0.42598  0.78164  Biso   1.000  C
  C151     1.0000 0.56020  0.53324  0.61060  Biso   1.000  C
  C152     1.0000 0.52820  0.51557  0.55240  Biso   1.000  C
  C153     1.0000 0.52590  0.53360  0.50150  Biso   1.000  C
  C154     1.0000 0.50270  0.48130  0.56130  Biso   1.000  C
  Zn8      1.0000 0.40083  0.02891  0.66048  Biso   1.000  Zn
  O36      1.0000 0.40343  0.10998  0.84253  Biso   1.000  O
  O37      1.0000 0.38716  0.05708  0.90645  Biso   1.000  O
  O38      1.0000 0.37344  0.35634  0.31352  Biso   1.000  O
  O39      1.0000 0.43327  0.01620  0.60380  Biso   1.000  O
  O40      1.0000 0.48791  0.04808  0.66160  Biso   1.000  O
  C155     1.0000 0.39241  0.08979  0.90039  Biso   1.000  C
  C156     1.0000 0.38738  0.10656  0.97234  Biso   1.000  C
  C157     1.0000 0.37039  0.08361  0.03540  Biso   1.000  C
  C158     1.0000 0.36715  0.10033  0.10330  Biso   1.000  C
  C159     1.0000 0.38030  0.13762  0.10756  Biso   1.000  C
  C160     1.0000 0.39614  0.15959  0.04360  Biso   1.000  C
  C161     1.0000 0.39862  0.14411  0.97620  Biso   1.000  C
  C162     1.0000 0.37755  0.15437  0.18095  Biso   1.000  C
  C163     1.0000 0.37533  0.18694  0.17980  Biso   1.000  C
  C164     1.0000 0.38660  0.26330  0.31440  Biso   1.000  C
  C165     1.0000 0.38730  0.29810  0.31360  Biso   1.000  C
  C166     1.0000 0.35790  0.24720  0.18790  Biso   1.000  C
  C167     1.0000 0.36010  0.28270  0.18690  Biso   1.000  C
  C168     1.0000 0.53734  0.21483  0.71141  Biso   1.000  C
  C169     1.0000 0.56853  0.25030  0.70440  Biso   1.000  C
  C170     1.0000 0.60246  0.25783  0.73610  Biso   1.000  C
  C171     1.0000 0.60521  0.22990  0.77470  Biso   1.000  C
  C172     1.0000 0.57402  0.19443  0.78164  Biso   1.000  C
  C173     1.0000 0.46676  0.02696  0.61060  Biso   1.000  C
  C174     1.0000 0.48443  0.01263  0.55240  Biso   1.000  C
  C175     1.0000 0.46640  0.99230  0.50150  Biso   1.000  C
  C176     1.0000 0.51870  0.02140  0.56130  Biso   1.000  C
  Zn9      1.0000 0.97109  0.37192  0.66048  Biso   1.000  Zn
  O41      1.0000 0.89002  0.29345  0.84253  Biso   1.000  O
  O42      1.0000 0.94292  0.33008  0.90645  Biso   1.000  O
  O43      1.0000 0.64366  0.01710  0.31352  Biso   1.000  O
  O44      1.0000 0.98380  0.41707  0.60380  Biso   1.000  O
  O45      1.0000 0.95192  0.43983  0.66160  Biso   1.000  O
  C177     1.0000 0.91021  0.30262  0.90039  Biso   1.000  C
  C178     1.0000 0.89344  0.28082  0.97234  Biso   1.000  C
  C179     1.0000 0.91639  0.28678  0.03540  Biso   1.000  C
  C180     1.0000 0.89967  0.26682  0.10330  Biso   1.000  C
  C181     1.0000 0.86238  0.24268  0.10756  Biso   1.000  C
  C182     1.0000 0.84041  0.23655  0.04360  Biso   1.000  C
  C183     1.0000 0.85589  0.25451  0.97620  Biso   1.000  C
  C184     1.0000 0.84563  0.22318  0.18095  Biso   1.000  C
  C185     1.0000 0.81306  0.18839  0.17980  Biso   1.000  C
  C186     1.0000 0.73670  0.12330  0.31440  Biso   1.000  C
  C187     1.0000 0.70190  0.08920  0.31360  Biso   1.000  C
  C188     1.0000 0.75280  0.11070  0.18790  Biso   1.000  C
  C189     1.0000 0.71730  0.07740  0.18690  Biso   1.000  C
  C190     1.0000 0.78517  0.32251  0.71141  Biso   1.000  C
  C191     1.0000 0.74970  0.31823  0.70440  Biso   1.000  C
  C192     1.0000 0.74217  0.34463  0.73610  Biso   1.000  C
  C193     1.0000 0.77010  0.37531  0.77470  Biso   1.000  C
  C194     1.0000 0.80557  0.37959  0.78164  Biso   1.000  C
  C195     1.0000 0.97304  0.43980  0.61060  Biso   1.000  C
  C196     1.0000 0.98737  0.47180  0.55240  Biso   1.000  C
  C197     1.0000 0.00770  0.47410  0.50150  Biso   1.000  C
  C198     1.0000 0.97860  0.49730  0.56130  Biso   1.000  C
  Zn10     1.0000 0.37192  0.40083  0.16048  Biso   1.000  Zn
  O46      1.0000 0.29345  0.40343  0.34253  Biso   1.000  O
  O47      1.0000 0.33008  0.38716  0.40645  Biso   1.000  O
  O48      1.0000 0.01710  0.37344  0.81352  Biso   1.000  O
  O49      1.0000 0.41707  0.43327  0.10380  Biso   1.000  O
  O50      1.0000 0.43983  0.48791  0.16160  Biso   1.000  O
  C199     1.0000 0.30262  0.39241  0.40039  Biso   1.000  C
  C200     1.0000 0.28082  0.38738  0.47234  Biso   1.000  C
  C201     1.0000 0.28678  0.37039  0.53540  Biso   1.000  C
  C202     1.0000 0.26682  0.36715  0.60330  Biso   1.000  C
  C203     1.0000 0.24268  0.38030  0.60756  Biso   1.000  C
  C204     1.0000 0.23655  0.39614  0.54360  Biso   1.000  C
  C205     1.0000 0.25451  0.39862  0.47620  Biso   1.000  C
  C206     1.0000 0.22318  0.37755  0.68095  Biso   1.000  C
  C207     1.0000 0.18839  0.37533  0.67980  Biso   1.000  C
  C208     1.0000 0.12330  0.38660  0.81440  Biso   1.000  C
  C209     1.0000 0.08920  0.38730  0.81360  Biso   1.000  C
  C210     1.0000 0.11070  0.35790  0.68790  Biso   1.000  C
  C211     1.0000 0.07740  0.36010  0.68690  Biso   1.000  C
  C212     1.0000 0.32251  0.53734  0.21141  Biso   1.000  C
  C213     1.0000 0.31823  0.56853  0.20440  Biso   1.000  C
  C214     1.0000 0.34463  0.60246  0.23610  Biso   1.000  C
  C215     1.0000 0.37531  0.60521  0.27470  Biso   1.000  C
  C216     1.0000 0.37959  0.57402  0.28164  Biso   1.000  C
  C217     1.0000 0.43980  0.46676  0.11060  Biso   1.000  C
  C218     1.0000 0.47180  0.48443  0.05240  Biso   1.000  C
  C219     1.0000 0.47410  0.46640  0.00150  Biso   1.000  C
  C220     1.0000 0.49730  0.51870  0.06130  Biso   1.000  C
  Zn11     1.0000 0.59917  0.97109  0.16048  Biso   1.000  Zn
  O51      1.0000 0.59657  0.89002  0.34253  Biso   1.000  O
  O52      1.0000 0.61284  0.94292  0.40645  Biso   1.000  O
  O53      1.0000 0.62656  0.64366  0.81352  Biso   1.000  O
  O54      1.0000 0.56673  0.98380  0.10380  Biso   1.000  O
  O55      1.0000 0.51209  0.95192  0.16160  Biso   1.000  O
  C221     1.0000 0.60759  0.91021  0.40039  Biso   1.000  C
  C222     1.0000 0.61262  0.89344  0.47234  Biso   1.000  C
  C223     1.0000 0.62961  0.91639  0.53540  Biso   1.000  C
  C224     1.0000 0.63285  0.89967  0.60330  Biso   1.000  C
  C225     1.0000 0.61970  0.86238  0.60756  Biso   1.000  C
  C226     1.0000 0.60386  0.84041  0.54360  Biso   1.000  C
  C227     1.0000 0.60138  0.85589  0.47620  Biso   1.000  C
  C228     1.0000 0.62245  0.84563  0.68095  Biso   1.000  C
  C229     1.0000 0.62467  0.81306  0.67980  Biso   1.000  C
  C230     1.0000 0.61340  0.73670  0.81440  Biso   1.000  C
  C231     1.0000 0.61270  0.70190  0.81360  Biso   1.000  C
  C232     1.0000 0.64210  0.75280  0.68790  Biso   1.000  C
  C233     1.0000 0.63990  0.71730  0.68690  Biso   1.000  C
  C234     1.0000 0.46266  0.78517  0.21141  Biso   1.000  C
  C235     1.0000 0.43147  0.74970  0.20440  Biso   1.000  C
  C236     1.0000 0.39754  0.74217  0.23610  Biso   1.000  C
  C237     1.0000 0.39479  0.77010  0.27470  Biso   1.000  C
  C238     1.0000 0.42598  0.80557  0.28164  Biso   1.000  C
  C239     1.0000 0.53324  0.97304  0.11060  Biso   1.000  C
  C240     1.0000 0.51557  0.98737  0.05240  Biso   1.000  C
  C241     1.0000 0.53360  0.00770  0.00150  Biso   1.000  C
  C242     1.0000 0.48130  0.97860  0.06130  Biso   1.000  C
  Zn12     1.0000 0.02891  0.62808  0.16048  Biso   1.000  Zn
  O56      1.0000 0.10998  0.70655  0.34253  Biso   1.000  O
  O57      1.0000 0.05708  0.66992  0.40645  Biso   1.000  O
  O58      1.0000 0.35634  0.98290  0.81352  Biso   1.000  O
  O59      1.0000 0.01620  0.58293  0.10380  Biso   1.000  O
  O60      1.0000 0.04808  0.56017  0.16160  Biso   1.000  O
  C243     1.0000 0.08979  0.69738  0.40039  Biso   1.000  C
  C244     1.0000 0.10656  0.71918  0.47234  Biso   1.000  C
  C245     1.0000 0.08361  0.71322  0.53540  Biso   1.000  C
  C246     1.0000 0.10033  0.73318  0.60330  Biso   1.000  C
  C247     1.0000 0.13762  0.75732  0.60756  Biso   1.000  C
  C248     1.0000 0.15959  0.76345  0.54360  Biso   1.000  C
  C249     1.0000 0.14411  0.74549  0.47620  Biso   1.000  C
  C250     1.0000 0.15437  0.77682  0.68095  Biso   1.000  C
  C251     1.0000 0.18694  0.81161  0.67980  Biso   1.000  C
  C252     1.0000 0.26330  0.87670  0.81440  Biso   1.000  C
  C253     1.0000 0.29810  0.91080  0.81360  Biso   1.000  C
  C254     1.0000 0.24720  0.88930  0.68790  Biso   1.000  C
  C255     1.0000 0.28270  0.92260  0.68690  Biso   1.000  C
  C256     1.0000 0.21483  0.67749  0.21141  Biso   1.000  C
  C257     1.0000 0.25030  0.68177  0.20440  Biso   1.000  C
  C258     1.0000 0.25783  0.65537  0.23610  Biso   1.000  C
  C259     1.0000 0.22990  0.62469  0.27470  Biso   1.000  C
  C260     1.0000 0.19443  0.62041  0.28164  Biso   1.000  C
  C261     1.0000 0.02696  0.56020  0.11060  Biso   1.000  C
  C262     1.0000 0.01263  0.52820  0.05240  Biso   1.000  C
  C263     1.0000 0.99230  0.52590  0.00150  Biso   1.000  C
  C264     1.0000 0.02140  0.50270  0.06130  Biso   1.000  C
  Zn13     1.0000 0.32064  0.42520  0.25000  Biso   1.000  Zn
  Zn14     1.0000 0.40834  0.47783  0.25000  Biso   1.000  Zn
  O61      1.0000 0.36846  0.42670  0.25000  Biso   1.000  O
  O62      1.0000 0.38963  0.51209  0.25000  Biso   1.000  O
  O63      1.0000 0.32935  0.47526  0.25000  Biso   1.000  O
  C265     1.0000 0.35736  0.50678  0.25000  Biso   1.000  C
  C266     1.0000 0.35319  0.54008  0.25000  Biso   1.000  C
  C267     1.0000 0.33820  0.63564  0.25000  Biso   1.000  C
  C268     1.0000 0.36833  0.67092  0.25000  Biso   1.000  C
  Zn15     1.0000 0.57480  0.89544  0.25000  Biso   1.000  Zn
  Zn16     1.0000 0.52217  0.93051  0.25000  Biso   1.000  Zn
  O64      1.0000 0.57330  0.94176  0.25000  Biso   1.000  O
  O65      1.0000 0.48791  0.87754  0.25000  Biso   1.000  O
  O66      1.0000 0.52474  0.85409  0.25000  Biso   1.000  O
  C269     1.0000 0.49322  0.85058  0.25000  Biso   1.000  C
  C270     1.0000 0.45992  0.81311  0.25000  Biso   1.000  C
  C271     1.0000 0.36436  0.70256  0.25000  Biso   1.000  C
  C272     1.0000 0.32908  0.69741  0.25000  Biso   1.000  C
  Zn17     1.0000 0.10456  0.67936  0.25000  Biso   1.000  Zn
  Zn18     1.0000 0.06949  0.59166  0.25000  Biso   1.000  Zn
  O67      1.0000 0.05824  0.63154  0.25000  Biso   1.000  O
  O68      1.0000 0.12246  0.61037  0.25000  Biso   1.000  O
  O69      1.0000 0.14591  0.67065  0.25000  Biso   1.000  O
  C273     1.0000 0.14942  0.64264  0.25000  Biso   1.000  C
  C274     1.0000 0.18689  0.64681  0.25000  Biso   1.000  C
  C275     1.0000 0.29744  0.66180  0.25000  Biso   1.000  C
  C276     1.0000 0.30259  0.63167  0.25000  Biso   1.000  C
  Zn19     1.0000 0.67936  0.57480  0.75000  Biso   1.000  Zn
  Zn20     1.0000 0.59166  0.52217  0.75000  Biso   1.000  Zn
  O70      1.0000 0.63154  0.57330  0.75000  Biso   1.000  O
  O71      1.0000 0.61037  0.48791  0.75000  Biso   1.000  O
  O72      1.0000 0.67065  0.52474  0.75000  Biso   1.000  O
  C277     1.0000 0.64264  0.49322  0.75000  Biso   1.000  C
  C278     1.0000 0.64681  0.45992  0.75000  Biso   1.000  C
  C279     1.0000 0.66180  0.36436  0.75000  Biso   1.000  C
  C280     1.0000 0.63167  0.32908  0.75000  Biso   1.000  C
  Zn21     1.0000 0.42520  0.10456  0.75000  Biso   1.000  Zn
  Zn22     1.0000 0.47783  0.06949  0.75000  Biso   1.000  Zn
  O73      1.0000 0.42670  0.05824  0.75000  Biso   1.000  O
  O74      1.0000 0.51209  0.12246  0.75000  Biso   1.000  O
  O75      1.0000 0.47526  0.14591  0.75000  Biso   1.000  O
  C281     1.0000 0.50678  0.14942  0.75000  Biso   1.000  C
  C282     1.0000 0.54008  0.18689  0.75000  Biso   1.000  C
  C283     1.0000 0.63564  0.29744  0.75000  Biso   1.000  C
  C284     1.0000 0.67092  0.30259  0.75000  Biso   1.000  C
  Zn23     1.0000 0.89544  0.32064  0.75000  Biso   1.000  Zn
  Zn24     1.0000 0.93051  0.40834  0.75000  Biso   1.000  Zn
  O76      1.0000 0.94176  0.36846  0.75000  Biso   1.000  O
  O77      1.0000 0.87754  0.38963  0.75000  Biso   1.000  O
  O78      1.0000 0.85409  0.32935  0.75000  Biso   1.000  O
  C285     1.0000 0.85058  0.35736  0.75000  Biso   1.000  C
  C286     1.0000 0.81311  0.35319  0.75000  Biso   1.000  C
  C287     1.0000 0.70256  0.33820  0.75000  Biso   1.000  C
  C288     1.0000 0.69741  0.36833  0.75000  Biso   1.000  C
  C289     1.0000 0.23994  0.37760  0.75000  Biso   1.000  C
  C290     1.0000 0.17087  0.37470  0.75000  Biso   1.000  C
  C291     1.0000 0.13424  0.37300  0.75000  Biso   1.000  C
  C292     1.0000 0.06619  0.37285  0.75000  Biso   1.000  C
  C293     1.0000 0.03139  0.37381  0.75000  Biso   1.000  C
  C294     1.0000 0.62240  0.86234  0.75000  Biso   1.000  C
  C295     1.0000 0.62530  0.79617  0.75000  Biso   1.000  C
  C296     1.0000 0.62700  0.76124  0.75000  Biso   1.000  C
  C297     1.0000 0.62715  0.69334  0.75000  Biso   1.000  C
  C298     1.0000 0.62619  0.65758  0.75000  Biso   1.000  C
  C299     1.0000 0.13766  0.76006  0.75000  Biso   1.000  C
  C300     1.0000 0.20383  0.82913  0.75000  Biso   1.000  C
  C301     1.0000 0.23876  0.86576  0.75000  Biso   1.000  C
  C302     1.0000 0.30666  0.93381  0.75000  Biso   1.000  C
  C303     1.0000 0.34242  0.96861  0.75000  Biso   1.000  C
  C304     1.0000 0.76006  0.62240  0.25000  Biso   1.000  C
  C305     1.0000 0.82913  0.62530  0.25000  Biso   1.000  C
  C306     1.0000 0.86576  0.62700  0.25000  Biso   1.000  C
  C307     1.0000 0.93381  0.62715  0.25000  Biso   1.000  C
  C308     1.0000 0.96861  0.62619  0.25000  Biso   1.000  C
  C309     1.0000 0.37760  0.13766  0.25000  Biso   1.000  C
  C310     1.0000 0.37470  0.20383  0.25000  Biso   1.000  C
  C311     1.0000 0.37300  0.23876  0.25000  Biso   1.000  C
  C312     1.0000 0.37285  0.30666  0.25000  Biso   1.000  C
  C313     1.0000 0.37381  0.34242  0.25000  Biso   1.000  C
  C314     1.0000 0.86234  0.23994  0.25000  Biso   1.000  C
  C315     1.0000 0.79617  0.17087  0.25000  Biso   1.000  C
  C316     1.0000 0.76124  0.13424  0.25000  Biso   1.000  C
  C317     1.0000 0.69334  0.06619  0.25000  Biso   1.000  C
  C318     1.0000 0.65758  0.03139  0.25000  Biso   1.000  C
