data_image0
_cell_length_a       16.235
_cell_length_b       9.365
_cell_length_c       16.264
_cell_angle_alpha    90
_cell_angle_beta     116.786
_cell_angle_gamma    90

_symmetry_space_group_name_H-M    "P 1"
_symmetry_int_tables_number       1

loop_
  _symmetry_equiv_pos_as_xyz
  'x, y, z'

loop_
  _atom_site_label
  _atom_site_occupancy
  _atom_site_fract_x
  _atom_site_fract_y
  _atom_site_fract_z
  _atom_site_thermal_displace_type
  _atom_site_B_iso_or_equiv
  _atom_site_type_symbol
  Zn1      1.0000 0.29943  0.42944  0.70058  Biso   1.000  Zn
  O1       1.0000 0.42350  0.36550  0.76720  Biso   1.000  O
  C1       1.0000 0.13450  0.37500  0.86670  Biso   1.000  C
  H1       1.0000 0.15110  0.46150  0.85030  Biso   1.000  H
  C2       1.0000 0.08510  0.37470  0.91720  Biso   1.000  C
  H2       1.0000 0.06940  0.46130  0.93430  Biso   1.000  H
  C3       1.0000 0.71260  0.36240  0.88490  Biso   1.000  C
  H3       1.0000 0.74730  0.43090  0.87310  Biso   1.000  H
  C4       1.0000 0.11330  0.36890  0.28810  Biso   1.000  C
  H4       1.0000 0.12320  0.43730  0.25200  Biso   1.000  H
  C5       1.0000 0.61430  0.36630  0.83950  Biso   1.000  C
  H5       1.0000 0.58330  0.44610  0.80570  Biso   1.000  H
  C6       1.0000 0.16050  0.37930  0.38430  Biso   1.000  C
  H6       1.0000 0.19250  0.46090  0.41440  Biso   1.000  H
  O2       1.0000 0.32200  0.63620  0.83560  Biso   1.000  O
  N1       1.0000 0.30590  0.62990  0.68270  Biso   1.000  N
  O3       1.0000 0.23430  0.36950  0.76640  Biso   1.000  O
  O4       1.0000 0.23190  0.36520  0.57710  Biso   1.000  O
  O5       1.0000 0.17010  0.63050  0.68150  Biso   1.000  O
  C7       1.0000 0.60770  0.34560  0.90740  Biso   1.000  C
  C8       1.0000 0.70210  0.33760  0.95990  Biso   1.000  C
  H7       1.0000 0.01550  0.44480  0.26920  Biso   1.000  H
  C9       1.0000 0.04750  0.36100  0.29550  Biso   1.000  C
  C10      1.0000 0.09670  0.34640  0.39030  Biso   1.000  C
  H8       1.0000 0.79890  0.21180  0.81060  Biso   1.000  H
  H9       1.0000 0.89100  0.19750  0.81270  Biso   1.000  H
  Zn2      1.0000 0.29943  0.07056  0.70058  Biso   1.000  Zn
  O6       1.0000 0.42350  0.13450  0.76720  Biso   1.000  O
  C11      1.0000 0.13450  0.12500  0.86670  Biso   1.000  C
  H10      1.0000 0.15110  0.03850  0.85030  Biso   1.000  H
  C12      1.0000 0.08510  0.12530  0.91720  Biso   1.000  C
  H11      1.0000 0.06940  0.03870  0.93430  Biso   1.000  H
  C13      1.0000 0.71260  0.13760  0.88490  Biso   1.000  C
  H12      1.0000 0.74730  0.06910  0.87310  Biso   1.000  H
  C14      1.0000 0.11330  0.13110  0.28810  Biso   1.000  C
  H13      1.0000 0.12320  0.06270  0.25200  Biso   1.000  H
  C15      1.0000 0.61430  0.13370  0.83950  Biso   1.000  C
  H14      1.0000 0.58330  0.05390  0.80570  Biso   1.000  H
  C16      1.0000 0.16050  0.12070  0.38430  Biso   1.000  C
  H15      1.0000 0.19250  0.03910  0.41440  Biso   1.000  H
  O7       1.0000 0.32200  0.86380  0.83560  Biso   1.000  O
  N2       1.0000 0.30590  0.87010  0.68270  Biso   1.000  N
  O8       1.0000 0.23430  0.13050  0.76640  Biso   1.000  O
  O9       1.0000 0.23190  0.13480  0.57710  Biso   1.000  O
  O10      1.0000 0.17010  0.86950  0.68150  Biso   1.000  O
  C17      1.0000 0.60770  0.15440  0.90740  Biso   1.000  C
  C18      1.0000 0.70210  0.16240  0.95990  Biso   1.000  C
  H16      1.0000 0.01550  0.05520  0.26920  Biso   1.000  H
  C19      1.0000 0.04750  0.13900  0.29550  Biso   1.000  C
  C20      1.0000 0.09670  0.15360  0.39030  Biso   1.000  C
  H17      1.0000 0.79890  0.28820  0.81060  Biso   1.000  H
  H18      1.0000 0.89100  0.30250  0.81270  Biso   1.000  H
  C21      1.0000 0.90490  0.25000  0.09690  Biso   1.000  C
  C22      1.0000 0.99850  0.25000  0.14240  Biso   1.000  C
  C23      1.0000 0.85790  0.25000  0.99930  Biso   1.000  C
  C24      1.0000 0.05880  0.25000  0.94260  Biso   1.000  C
  C25      1.0000 0.04840  0.25000  0.09130  Biso   1.000  C
  C26      1.0000 0.75570  0.25000  0.94900  Biso   1.000  C
  C27      1.0000 0.04790  0.25000  0.24310  Biso   1.000  C
  C28      1.0000 0.00450  0.25000  0.99510  Biso   1.000  C
  C29      1.0000 0.90940  0.25000  0.95020  Biso   1.000  C
  C30      1.0000 0.56600  0.25000  0.84660  Biso   1.000  C
  C31      1.0000 0.15520  0.25000  0.43430  Biso   1.000  C
  C32      1.0000 0.46330  0.25000  0.78900  Biso   1.000  C
  C33      1.0000 0.20940  0.25000  0.53740  Biso   1.000  C
  C34      1.0000 0.15920  0.25000  0.84050  Biso   1.000  C
  C35      1.0000 0.21420  0.25000  0.78540  Biso   1.000  C
  N3       1.0000 0.86660  0.25000  0.85490  Biso   1.000  N
  N4       1.0000 0.14200  0.25000  0.13410  Biso   1.000  N
  H19      1.0000 0.17150  0.25000  0.19330  Biso   1.000  H
  H20      1.0000 0.17230  0.25000  0.10210  Biso   1.000  H
  H21      1.0000 0.88530  0.25000  0.19520  Biso   1.000  H
  N5       1.0000 0.85950  0.25000  0.13600  Biso   1.000  N
  H22      1.0000 0.80030  0.25000  0.10550  Biso   1.000  H
  C36      1.0000 0.29940  0.75000  0.70020  Biso   1.000  C
  N6       1.0000 0.31370  0.75000  0.80360  Biso   1.000  N
  N7       1.0000 0.19300  0.75000  0.68880  Biso   1.000  N
  Zn3      1.0000 0.70057  0.92944  0.29942  Biso   1.000  Zn
  O11      1.0000 0.57650  0.86550  0.23280  Biso   1.000  O
  C37      1.0000 0.86550  0.87500  0.13330  Biso   1.000  C
  H23      1.0000 0.84890  0.96150  0.14970  Biso   1.000  H
  C38      1.0000 0.91490  0.87470  0.08280  Biso   1.000  C
  H24      1.0000 0.93060  0.96130  0.06570  Biso   1.000  H
  C39      1.0000 0.28740  0.86240  0.11510  Biso   1.000  C
  H25      1.0000 0.25270  0.93090  0.12690  Biso   1.000  H
  C40      1.0000 0.88670  0.86890  0.71190  Biso   1.000  C
  H26      1.0000 0.87680  0.93730  0.74800  Biso   1.000  H
  C41      1.0000 0.38570  0.86630  0.16050  Biso   1.000  C
  H27      1.0000 0.41670  0.94610  0.19430  Biso   1.000  H
  C42      1.0000 0.83950  0.87930  0.61570  Biso   1.000  C
  H28      1.0000 0.80750  0.96090  0.58560  Biso   1.000  H
  O12      1.0000 0.67800  0.13620  0.16440  Biso   1.000  O
  N8       1.0000 0.69410  0.12990  0.31730  Biso   1.000  N
  O13      1.0000 0.76570  0.86950  0.23360  Biso   1.000  O
  O14      1.0000 0.76810  0.86520  0.42290  Biso   1.000  O
  O15      1.0000 0.82990  0.13050  0.31850  Biso   1.000  O
  C43      1.0000 0.39230  0.84560  0.09260  Biso   1.000  C
  C44      1.0000 0.29790  0.83760  0.04010  Biso   1.000  C
  H29      1.0000 0.98450  0.94480  0.73080  Biso   1.000  H
  C45      1.0000 0.95250  0.86100  0.70450  Biso   1.000  C
  C46      1.0000 0.90330  0.84640  0.60970  Biso   1.000  C
  H30      1.0000 0.20110  0.71180  0.18940  Biso   1.000  H
  H31      1.0000 0.10900  0.69750  0.18730  Biso   1.000  H
  Zn4      1.0000 0.70057  0.57056  0.29942  Biso   1.000  Zn
  O16      1.0000 0.57650  0.63450  0.23280  Biso   1.000  O
  C47      1.0000 0.86550  0.62500  0.13330  Biso   1.000  C
  H32      1.0000 0.84890  0.53850  0.14970  Biso   1.000  H
  C48      1.0000 0.91490  0.62530  0.08280  Biso   1.000  C
  H33      1.0000 0.93060  0.53870  0.06570  Biso   1.000  H
  C49      1.0000 0.28740  0.63760  0.11510  Biso   1.000  C
  H34      1.0000 0.25270  0.56910  0.12690  Biso   1.000  H
  C50      1.0000 0.88670  0.63110  0.71190  Biso   1.000  C
  H35      1.0000 0.87680  0.56270  0.74800  Biso   1.000  H
  C51      1.0000 0.38570  0.63370  0.16050  Biso   1.000  C
  H36      1.0000 0.41670  0.55390  0.19430  Biso   1.000  H
  C52      1.0000 0.83950  0.62070  0.61570  Biso   1.000  C
  H37      1.0000 0.80750  0.53910  0.58560  Biso   1.000  H
  O17      1.0000 0.67800  0.36380  0.16440  Biso   1.000  O
  N9       1.0000 0.69410  0.37010  0.31730  Biso   1.000  N
  O18      1.0000 0.76570  0.63050  0.23360  Biso   1.000  O
  O19      1.0000 0.76810  0.63480  0.42290  Biso   1.000  O
  O20      1.0000 0.82990  0.36950  0.31850  Biso   1.000  O
  C53      1.0000 0.39230  0.65440  0.09260  Biso   1.000  C
  C54      1.0000 0.29790  0.66240  0.04010  Biso   1.000  C
  H38      1.0000 0.98450  0.55520  0.73080  Biso   1.000  H
  C55      1.0000 0.95250  0.63900  0.70450  Biso   1.000  C
  C56      1.0000 0.90330  0.65360  0.60970  Biso   1.000  C
  H39      1.0000 0.20110  0.78820  0.18940  Biso   1.000  H
  H40      1.0000 0.10900  0.80250  0.18730  Biso   1.000  H
  C57      1.0000 0.09510  0.75000  0.90310  Biso   1.000  C
  C58      1.0000 0.00150  0.75000  0.85760  Biso   1.000  C
  C59      1.0000 0.14210  0.75000  0.00070  Biso   1.000  C
  C60      1.0000 0.94120  0.75000  0.05740  Biso   1.000  C
  C61      1.0000 0.95160  0.75000  0.90870  Biso   1.000  C
  C62      1.0000 0.24430  0.75000  0.05100  Biso   1.000  C
  C63      1.0000 0.95210  0.75000  0.75690  Biso   1.000  C
  C64      1.0000 0.99550  0.75000  0.00490  Biso   1.000  C
  C65      1.0000 0.09060  0.75000  0.04980  Biso   1.000  C
  C66      1.0000 0.43400  0.75000  0.15340  Biso   1.000  C
  C67      1.0000 0.84480  0.75000  0.56570  Biso   1.000  C
  C68      1.0000 0.53670  0.75000  0.21100  Biso   1.000  C
  C69      1.0000 0.79060  0.75000  0.46260  Biso   1.000  C
  C70      1.0000 0.84080  0.75000  0.15950  Biso   1.000  C
  C71      1.0000 0.78580  0.75000  0.21460  Biso   1.000  C
  N10      1.0000 0.13340  0.75000  0.14510  Biso   1.000  N
  N11      1.0000 0.85800  0.75000  0.86590  Biso   1.000  N
  H41      1.0000 0.82850  0.75000  0.80670  Biso   1.000  H
  H42      1.0000 0.82770  0.75000  0.89790  Biso   1.000  H
  H43      1.0000 0.11470  0.75000  0.80480  Biso   1.000  H
  N12      1.0000 0.14050  0.75000  0.86400  Biso   1.000  N
  H44      1.0000 0.19970  0.75000  0.89450  Biso   1.000  H
  C72      1.0000 0.70060  0.25000  0.29980  Biso   1.000  C
  N13      1.0000 0.68630  0.25000  0.19640  Biso   1.000  N
  N14      1.0000 0.80700  0.25000  0.31120  Biso   1.000  N
