data_image0
_cell_length_a       16.8431
_cell_length_b       16.8431
_cell_length_c       30.288
_cell_angle_alpha    90
_cell_angle_beta     90
_cell_angle_gamma    120

_symmetry_space_group_name_H-M    "P 1"
_symmetry_int_tables_number       1

loop_
  _symmetry_equiv_pos_as_xyz
  'x, y, z'

loop_
  _atom_site_label
  _atom_site_occupancy
  _atom_site_fract_x
  _atom_site_fract_y
  _atom_site_fract_z
  _atom_site_thermal_displace_type
  _atom_site_B_iso_or_equiv
  _atom_site_type_symbol
  O1       1.0000 0.34740  0.51780  0.69980  Biso   1.000  O
  N1       1.0000 0.46660  0.47440  0.51160  Biso   1.000  N
  C1       1.0000 0.38170  0.47520  0.61760  Biso   1.000  C
  H1       1.0000 0.32950  0.43280  0.63270  Biso   1.000  H
  C2       1.0000 0.39740  0.45480  0.57430  Biso   1.000  C
  H2       1.0000 0.35730  0.40040  0.56000  Biso   1.000  H
  O2       1.0000 0.48220  0.82960  0.69980  Biso   1.000  O
  N2       1.0000 0.52560  0.99220  0.51160  Biso   1.000  N
  C3       1.0000 0.52480  0.90650  0.61760  Biso   1.000  C
  H3       1.0000 0.56720  0.89670  0.63270  Biso   1.000  H
  C4       1.0000 0.54520  0.94260  0.57430  Biso   1.000  C
  H4       1.0000 0.59960  0.95690  0.56000  Biso   1.000  H
  O3       1.0000 0.17040  0.65260  0.69980  Biso   1.000  O
  N3       1.0000 0.00780  0.53340  0.51160  Biso   1.000  N
  C5       1.0000 0.09350  0.61830  0.61760  Biso   1.000  C
  H5       1.0000 0.10330  0.67050  0.63270  Biso   1.000  H
  C6       1.0000 0.05740  0.60260  0.57430  Biso   1.000  C
  H6       1.0000 0.04310  0.64270  0.56000  Biso   1.000  H
  O4       1.0000 0.65260  0.48220  0.19980  Biso   1.000  O
  N4       1.0000 0.53340  0.52560  0.01160  Biso   1.000  N
  C7       1.0000 0.61830  0.52480  0.11760  Biso   1.000  C
  H7       1.0000 0.67050  0.56720  0.13270  Biso   1.000  H
  C8       1.0000 0.60260  0.54520  0.07430  Biso   1.000  C
  H8       1.0000 0.64270  0.59960  0.06000  Biso   1.000  H
  O5       1.0000 0.51780  0.17040  0.19980  Biso   1.000  O
  N5       1.0000 0.47440  0.00780  0.01160  Biso   1.000  N
  C9       1.0000 0.47520  0.09350  0.11760  Biso   1.000  C
  H9       1.0000 0.43280  0.10330  0.13270  Biso   1.000  H
  C10      1.0000 0.45480  0.05740  0.07430  Biso   1.000  C
  H10      1.0000 0.40040  0.04310  0.06000  Biso   1.000  H
  O6       1.0000 0.82960  0.34740  0.19980  Biso   1.000  O
  N6       1.0000 0.99220  0.46660  0.01160  Biso   1.000  N
  C11      1.0000 0.90650  0.38170  0.11760  Biso   1.000  C
  H11      1.0000 0.89670  0.32950  0.13270  Biso   1.000  H
  C12      1.0000 0.94260  0.39740  0.07430  Biso   1.000  C
  H12      1.0000 0.95690  0.35730  0.06000  Biso   1.000  H
  O7       1.0000 0.51780  0.34740  0.30020  Biso   1.000  O
  N7       1.0000 0.47440  0.46660  0.48840  Biso   1.000  N
  C13      1.0000 0.47520  0.38170  0.38240  Biso   1.000  C
  H13      1.0000 0.43280  0.32950  0.36730  Biso   1.000  H
  C14      1.0000 0.45480  0.39740  0.42570  Biso   1.000  C
  H14      1.0000 0.40040  0.35730  0.44000  Biso   1.000  H
  O8       1.0000 0.82960  0.48220  0.30020  Biso   1.000  O
  N8       1.0000 0.99220  0.52560  0.48840  Biso   1.000  N
  C15      1.0000 0.90650  0.52480  0.38240  Biso   1.000  C
  H15      1.0000 0.89670  0.56720  0.36730  Biso   1.000  H
  C16      1.0000 0.94260  0.54520  0.42570  Biso   1.000  C
  H16      1.0000 0.95690  0.59960  0.44000  Biso   1.000  H
  O9       1.0000 0.65260  0.17040  0.30020  Biso   1.000  O
  N9       1.0000 0.53340  0.00780  0.48840  Biso   1.000  N
  C17      1.0000 0.61830  0.09350  0.38240  Biso   1.000  C
  H17      1.0000 0.67050  0.10330  0.36730  Biso   1.000  H
  C18      1.0000 0.60260  0.05740  0.42570  Biso   1.000  C
  H18      1.0000 0.64270  0.04310  0.44000  Biso   1.000  H
  O10      1.0000 0.48220  0.65260  0.80020  Biso   1.000  O
  N10      1.0000 0.52560  0.53340  0.98840  Biso   1.000  N
  C19      1.0000 0.52480  0.61830  0.88240  Biso   1.000  C
  H19      1.0000 0.56720  0.67050  0.86730  Biso   1.000  H
  C20      1.0000 0.54520  0.60260  0.92570  Biso   1.000  C
  H20      1.0000 0.59960  0.64270  0.94000  Biso   1.000  H
  O11      1.0000 0.17040  0.51780  0.80020  Biso   1.000  O
  N11      1.0000 0.00780  0.47440  0.98840  Biso   1.000  N
  C21      1.0000 0.09350  0.47520  0.88240  Biso   1.000  C
  H21      1.0000 0.10330  0.43280  0.86730  Biso   1.000  H
  C22      1.0000 0.05740  0.45480  0.92570  Biso   1.000  C
  H22      1.0000 0.04310  0.40040  0.94000  Biso   1.000  H
  O12      1.0000 0.34740  0.82960  0.80020  Biso   1.000  O
  N12      1.0000 0.46660  0.99220  0.98840  Biso   1.000  N
  C23      1.0000 0.38170  0.90650  0.88240  Biso   1.000  C
  H23      1.0000 0.32950  0.89670  0.86730  Biso   1.000  H
  C24      1.0000 0.39740  0.94260  0.92570  Biso   1.000  C
  H24      1.0000 0.35730  0.95690  0.94000  Biso   1.000  H
  O13      1.0000 0.65260  0.48220  0.30020  Biso   1.000  O
  N13      1.0000 0.53340  0.52560  0.48840  Biso   1.000  N
  C25      1.0000 0.61830  0.52480  0.38240  Biso   1.000  C
  H25      1.0000 0.67050  0.56720  0.36730  Biso   1.000  H
  C26      1.0000 0.60260  0.54520  0.42570  Biso   1.000  C
  H26      1.0000 0.64270  0.59960  0.44000  Biso   1.000  H
  O14      1.0000 0.51780  0.17040  0.30020  Biso   1.000  O
  N14      1.0000 0.47440  0.00780  0.48840  Biso   1.000  N
  C27      1.0000 0.47520  0.09350  0.38240  Biso   1.000  C
  H27      1.0000 0.43280  0.10330  0.36730  Biso   1.000  H
  C28      1.0000 0.45480  0.05740  0.42570  Biso   1.000  C
  H28      1.0000 0.40040  0.04310  0.44000  Biso   1.000  H
  O15      1.0000 0.82960  0.34740  0.30020  Biso   1.000  O
  N15      1.0000 0.99220  0.46660  0.48840  Biso   1.000  N
  C29      1.0000 0.90650  0.38170  0.38240  Biso   1.000  C
  H29      1.0000 0.89670  0.32950  0.36730  Biso   1.000  H
  C30      1.0000 0.94260  0.39740  0.42570  Biso   1.000  C
  H30      1.0000 0.95690  0.35730  0.44000  Biso   1.000  H
  O16      1.0000 0.34740  0.51780  0.80020  Biso   1.000  O
  N16      1.0000 0.46660  0.47440  0.98840  Biso   1.000  N
  C31      1.0000 0.38170  0.47520  0.88240  Biso   1.000  C
  H31      1.0000 0.32950  0.43280  0.86730  Biso   1.000  H
  C32      1.0000 0.39740  0.45480  0.92570  Biso   1.000  C
  H32      1.0000 0.35730  0.40040  0.94000  Biso   1.000  H
  O17      1.0000 0.48220  0.82960  0.80020  Biso   1.000  O
  N17      1.0000 0.52560  0.99220  0.98840  Biso   1.000  N
  C33      1.0000 0.52480  0.90650  0.88240  Biso   1.000  C
  H33      1.0000 0.56720  0.89670  0.86730  Biso   1.000  H
  C34      1.0000 0.54520  0.94260  0.92570  Biso   1.000  C
  H34      1.0000 0.59960  0.95690  0.94000  Biso   1.000  H
  O18      1.0000 0.17040  0.65260  0.80020  Biso   1.000  O
  N18      1.0000 0.00780  0.53340  0.98840  Biso   1.000  N
  C35      1.0000 0.09350  0.61830  0.88240  Biso   1.000  C
  H35      1.0000 0.10330  0.67050  0.86730  Biso   1.000  H
  C36      1.0000 0.05740  0.60260  0.92570  Biso   1.000  C
  H36      1.0000 0.04310  0.64270  0.94000  Biso   1.000  H
  O19      1.0000 0.48220  0.65260  0.69980  Biso   1.000  O
  N19      1.0000 0.52560  0.53340  0.51160  Biso   1.000  N
  C37      1.0000 0.52480  0.61830  0.61760  Biso   1.000  C
  H37      1.0000 0.56720  0.67050  0.63270  Biso   1.000  H
  C38      1.0000 0.54520  0.60260  0.57430  Biso   1.000  C
  H38      1.0000 0.59960  0.64270  0.56000  Biso   1.000  H
  O20      1.0000 0.17040  0.51780  0.69980  Biso   1.000  O
  N20      1.0000 0.00780  0.47440  0.51160  Biso   1.000  N
  C39      1.0000 0.09350  0.47520  0.61760  Biso   1.000  C
  H39      1.0000 0.10330  0.43280  0.63270  Biso   1.000  H
  C40      1.0000 0.05740  0.45480  0.57430  Biso   1.000  C
  H40      1.0000 0.04310  0.40040  0.56000  Biso   1.000  H
  O21      1.0000 0.34740  0.82960  0.69980  Biso   1.000  O
  N21      1.0000 0.46660  0.99220  0.51160  Biso   1.000  N
  C41      1.0000 0.38170  0.90650  0.61760  Biso   1.000  C
  H41      1.0000 0.32950  0.89670  0.63270  Biso   1.000  H
  C42      1.0000 0.39740  0.94260  0.57430  Biso   1.000  C
  H42      1.0000 0.35730  0.95690  0.56000  Biso   1.000  H
  O22      1.0000 0.51780  0.34740  0.19980  Biso   1.000  O
  N22      1.0000 0.47440  0.46660  0.01160  Biso   1.000  N
  C43      1.0000 0.47520  0.38170  0.11760  Biso   1.000  C
  H43      1.0000 0.43280  0.32950  0.13270  Biso   1.000  H
  C44      1.0000 0.45480  0.39740  0.07430  Biso   1.000  C
  H44      1.0000 0.40040  0.35730  0.06000  Biso   1.000  H
  O23      1.0000 0.82960  0.48220  0.19980  Biso   1.000  O
  N23      1.0000 0.99220  0.52560  0.01160  Biso   1.000  N
  C45      1.0000 0.90650  0.52480  0.11760  Biso   1.000  C
  H45      1.0000 0.89670  0.56720  0.13270  Biso   1.000  H
  C46      1.0000 0.94260  0.54520  0.07430  Biso   1.000  C
  H46      1.0000 0.95690  0.59960  0.06000  Biso   1.000  H
  O24      1.0000 0.65260  0.17040  0.19980  Biso   1.000  O
  N24      1.0000 0.53340  0.00780  0.01160  Biso   1.000  N
  C47      1.0000 0.61830  0.09350  0.11760  Biso   1.000  C
  H47      1.0000 0.67050  0.10330  0.13270  Biso   1.000  H
  C48      1.0000 0.60260  0.05740  0.07430  Biso   1.000  C
  H48      1.0000 0.64270  0.04310  0.06000  Biso   1.000  H
  In1      1.0000 0.26407  0.52813  0.75000  Biso   1.000  In
  N25      1.0000 0.19000  0.38000  0.75000  Biso   1.000  N
  C49      1.0000 0.09515  0.19030  0.75000  Biso   1.000  C
  C50      1.0000 0.04470  0.08940  0.75000  Biso   1.000  C
  In2      1.0000 0.47187  0.73593  0.75000  Biso   1.000  In
  N26      1.0000 0.62000  0.81000  0.75000  Biso   1.000  N
  C51      1.0000 0.80970  0.90485  0.75000  Biso   1.000  C
  C52      1.0000 0.91060  0.95530  0.75000  Biso   1.000  C
  In3      1.0000 0.26407  0.73593  0.75000  Biso   1.000  In
  N27      1.0000 0.19000  0.81000  0.75000  Biso   1.000  N
  C53      1.0000 0.09515  0.90485  0.75000  Biso   1.000  C
  C54      1.0000 0.04470  0.95530  0.75000  Biso   1.000  C
  In4      1.0000 0.73593  0.47187  0.25000  Biso   1.000  In
  N28      1.0000 0.81000  0.62000  0.25000  Biso   1.000  N
  C55      1.0000 0.90485  0.80970  0.25000  Biso   1.000  C
  C56      1.0000 0.95530  0.91060  0.25000  Biso   1.000  C
  In5      1.0000 0.52813  0.26407  0.25000  Biso   1.000  In
  N29      1.0000 0.38000  0.19000  0.25000  Biso   1.000  N
  C57      1.0000 0.19030  0.09515  0.25000  Biso   1.000  C
  C58      1.0000 0.08940  0.04470  0.25000  Biso   1.000  C
  In6      1.0000 0.73593  0.26407  0.25000  Biso   1.000  In
  N30      1.0000 0.81000  0.19000  0.25000  Biso   1.000  N
  C59      1.0000 0.90485  0.09515  0.25000  Biso   1.000  C
  C60      1.0000 0.95530  0.04470  0.25000  Biso   1.000  C
  O25      1.0000 0.33333  0.66667  0.75000  Biso   1.000  O
  O26      1.0000 0.66667  0.33333  0.25000  Biso   1.000  O
  N31      1.0000 0.09430  0.04715  0.75000  Biso   1.000  N
  N32      1.0000 0.95285  0.04715  0.75000  Biso   1.000  N
  N33      1.0000 0.95285  0.90570  0.75000  Biso   1.000  N
  N34      1.0000 0.90570  0.95285  0.25000  Biso   1.000  N
  N35      1.0000 0.04715  0.95285  0.25000  Biso   1.000  N
  N36      1.0000 0.04715  0.09430  0.25000  Biso   1.000  N
  C61      1.0000 0.09720  0.33140  0.75000  Biso   1.000  C
  H49      1.0000 0.06540  0.36330  0.75000  Biso   1.000  H
  C62      1.0000 0.04690  0.23550  0.75000  Biso   1.000  C
  H50      1.0000 0.98310  0.20390  0.75000  Biso   1.000  H
  C63      1.0000 0.66860  0.76580  0.75000  Biso   1.000  C
  H51      1.0000 0.63670  0.70210  0.75000  Biso   1.000  H
  C64      1.0000 0.76450  0.81140  0.75000  Biso   1.000  C
  H52      1.0000 0.79610  0.77920  0.75000  Biso   1.000  H
  C65      1.0000 0.23420  0.90280  0.75000  Biso   1.000  C
  H53      1.0000 0.29790  0.93460  0.75000  Biso   1.000  H
  C66      1.0000 0.18860  0.95310  0.75000  Biso   1.000  C
  H54      1.0000 0.22080  0.01690  0.75000  Biso   1.000  H
  C67      1.0000 0.90280  0.66860  0.25000  Biso   1.000  C
  H55      1.0000 0.93460  0.63670  0.25000  Biso   1.000  H
  C68      1.0000 0.95310  0.76450  0.25000  Biso   1.000  C
  H56      1.0000 0.01690  0.79610  0.25000  Biso   1.000  H
  C69      1.0000 0.33140  0.23420  0.25000  Biso   1.000  C
  H57      1.0000 0.36330  0.29790  0.25000  Biso   1.000  H
  C70      1.0000 0.23550  0.18860  0.25000  Biso   1.000  C
  H58      1.0000 0.20390  0.22080  0.25000  Biso   1.000  H
  C71      1.0000 0.76580  0.09720  0.25000  Biso   1.000  C
  H59      1.0000 0.70210  0.06540  0.25000  Biso   1.000  H
  C72      1.0000 0.81140  0.04690  0.25000  Biso   1.000  C
  H60      1.0000 0.77920  0.98310  0.25000  Biso   1.000  H
  C73      1.0000 0.33140  0.09720  0.25000  Biso   1.000  C
  H61      1.0000 0.36330  0.06540  0.25000  Biso   1.000  H
  C74      1.0000 0.23550  0.04690  0.25000  Biso   1.000  C
  H62      1.0000 0.20390  0.98310  0.25000  Biso   1.000  H
  C75      1.0000 0.76580  0.66860  0.25000  Biso   1.000  C
  H63      1.0000 0.70210  0.63670  0.25000  Biso   1.000  H
  C76      1.0000 0.81140  0.76450  0.25000  Biso   1.000  C
  H64      1.0000 0.77920  0.79610  0.25000  Biso   1.000  H
  C77      1.0000 0.90280  0.23420  0.25000  Biso   1.000  C
  H65      1.0000 0.93460  0.29790  0.25000  Biso   1.000  H
  C78      1.0000 0.95310  0.18860  0.25000  Biso   1.000  C
  H66      1.0000 0.01690  0.22080  0.25000  Biso   1.000  H
  C79      1.0000 0.66860  0.90280  0.75000  Biso   1.000  C
  H67      1.0000 0.63670  0.93460  0.75000  Biso   1.000  H
  C80      1.0000 0.76450  0.95310  0.75000  Biso   1.000  C
  H68      1.0000 0.79610  0.01690  0.75000  Biso   1.000  H
  C81      1.0000 0.23420  0.33140  0.75000  Biso   1.000  C
  H69      1.0000 0.29790  0.36330  0.75000  Biso   1.000  H
  C82      1.0000 0.18860  0.23550  0.75000  Biso   1.000  C
  H70      1.0000 0.22080  0.20390  0.75000  Biso   1.000  H
  C83      1.0000 0.09720  0.76580  0.75000  Biso   1.000  C
  H71      1.0000 0.06540  0.70210  0.75000  Biso   1.000  H
  C84      1.0000 0.04690  0.81140  0.75000  Biso   1.000  C
  H72      1.0000 0.98310  0.77920  0.75000  Biso   1.000  H
  C85      1.0000 0.44280  0.55720  0.63800  Biso   1.000  C
  C86      1.0000 0.47740  0.52260  0.55480  Biso   1.000  C
  C87      1.0000 0.42270  0.57730  0.68350  Biso   1.000  C
  C88      1.0000 0.44280  0.88560  0.63800  Biso   1.000  C
  C89      1.0000 0.47740  0.95480  0.55480  Biso   1.000  C
  C90      1.0000 0.42270  0.84540  0.68350  Biso   1.000  C
  C91      1.0000 0.11440  0.55720  0.63800  Biso   1.000  C
  C92      1.0000 0.04520  0.52260  0.55480  Biso   1.000  C
  C93      1.0000 0.15460  0.57730  0.68350  Biso   1.000  C
  C94      1.0000 0.55720  0.44280  0.13800  Biso   1.000  C
  C95      1.0000 0.52260  0.47740  0.05480  Biso   1.000  C
  C96      1.0000 0.57730  0.42270  0.18350  Biso   1.000  C
  C97      1.0000 0.55720  0.11440  0.13800  Biso   1.000  C
  C98      1.0000 0.52260  0.04520  0.05480  Biso   1.000  C
  C99      1.0000 0.57730  0.15460  0.18350  Biso   1.000  C
  C100     1.0000 0.88560  0.44280  0.13800  Biso   1.000  C
  C101     1.0000 0.95480  0.47740  0.05480  Biso   1.000  C
  C102     1.0000 0.84540  0.42270  0.18350  Biso   1.000  C
  C103     1.0000 0.55720  0.44280  0.36200  Biso   1.000  C
  C104     1.0000 0.52260  0.47740  0.44520  Biso   1.000  C
  C105     1.0000 0.57730  0.42270  0.31650  Biso   1.000  C
  C106     1.0000 0.88560  0.44280  0.36200  Biso   1.000  C
  C107     1.0000 0.95480  0.47740  0.44520  Biso   1.000  C
  C108     1.0000 0.84540  0.42270  0.31650  Biso   1.000  C
  C109     1.0000 0.55720  0.11440  0.36200  Biso   1.000  C
  C110     1.0000 0.52260  0.04520  0.44520  Biso   1.000  C
  C111     1.0000 0.57730  0.15460  0.31650  Biso   1.000  C
  C112     1.0000 0.44280  0.55720  0.86200  Biso   1.000  C
  C113     1.0000 0.47740  0.52260  0.94520  Biso   1.000  C
  C114     1.0000 0.42270  0.57730  0.81650  Biso   1.000  C
  C115     1.0000 0.11440  0.55720  0.86200  Biso   1.000  C
  C116     1.0000 0.04520  0.52260  0.94520  Biso   1.000  C
  C117     1.0000 0.15460  0.57730  0.81650  Biso   1.000  C
  C118     1.0000 0.44280  0.88560  0.86200  Biso   1.000  C
  C119     1.0000 0.47740  0.95480  0.94520  Biso   1.000  C
  C120     1.0000 0.42270  0.84540  0.81650  Biso   1.000  C
