data_image0
_cell_length_a       10.4641
_cell_length_b       15.6701
_cell_length_c       31.1907
_cell_angle_alpha    90
_cell_angle_beta     94.884
_cell_angle_gamma    90

_symmetry_space_group_name_H-M    "P 1"
_symmetry_int_tables_number       1

loop_
  _symmetry_equiv_pos_as_xyz
  'x, y, z'

loop_
  _atom_site_label
  _atom_site_occupancy
  _atom_site_fract_x
  _atom_site_fract_y
  _atom_site_fract_z
  _atom_site_thermal_displace_type
  _atom_site_B_iso_or_equiv
  _atom_site_type_symbol
  Ag1      1.0000 0.48654  0.57476  0.66455  Biso   1.000  Ag
  C1       1.0000 0.47700  0.86020  0.57098  Biso   1.000  C
  H1       1.0000 0.47580  0.91930  0.57790  Biso   1.000  H
  C2       1.0000 0.57590  0.81080  0.58985  Biso   1.000  C
  H2       1.0000 0.64160  0.83560  0.60880  Biso   1.000  H
  C3       1.0000 0.57710  0.72480  0.58051  Biso   1.000  C
  C4       1.0000 0.48000  0.69100  0.55264  Biso   1.000  C
  H3       1.0000 0.47760  0.63190  0.54580  Biso   1.000  H
  C5       1.0000 0.38670  0.74640  0.53516  Biso   1.000  C
  H4       1.0000 0.32040  0.72360  0.51580  Biso   1.000  H
  C6       1.0000 0.67920  0.66970  0.60092  Biso   1.000  C
  C7       1.0000 0.86930  0.62460  0.62389  Biso   1.000  C
  C8       1.0000 0.22130  0.60830  0.61082  Biso   1.000  C
  H5       1.0000 0.27660  0.60540  0.58820  Biso   1.000  H
  C9       1.0000 0.09050  0.61460  0.59958  Biso   1.000  C
  H6       1.0000 0.05730  0.61620  0.57030  Biso   1.000  H
  C10      1.0000 0.00970  0.61860  0.63271  Biso   1.000  C
  C11      1.0000 0.06310  0.61598  0.67482  Biso   1.000  C
  H7       1.0000 0.01020  0.61810  0.69810  Biso   1.000  H
  C12      1.0000 0.19550  0.61020  0.68246  Biso   1.000  C
  H8       1.0000 0.23150  0.60900  0.71150  Biso   1.000  H
  C13      1.0000 0.09260  0.40620  0.72102  Biso   1.000  C
  H9       1.0000 0.04230  0.40970  0.74490  Biso   1.000  H
  C14      1.0000 0.22380  0.39650  0.72928  Biso   1.000  C
  H10      1.0000 0.26240  0.39240  0.75790  Biso   1.000  H
  C15      1.0000 0.29710  0.39278  0.69415  Biso   1.000  C
  C16      1.0000 0.23700  0.39916  0.65306  Biso   1.000  C
  H11      1.0000 0.28550  0.39770  0.62870  Biso   1.000  H
  C17      1.0000 0.10440  0.40770  0.64807  Biso   1.000  C
  H12      1.0000 0.06300  0.41130  0.61980  Biso   1.000  H
  C18      1.0000 0.43800  0.38195  0.70078  Biso   1.000  C
  C19      1.0000 0.62540  0.32943  0.72181  Biso   1.000  C
  C20      1.0000 0.82160  0.13660  0.75401  Biso   1.000  C
  H13      1.0000 0.82140  0.07710  0.74820  Biso   1.000  H
  C21      1.0000 0.72610  0.18622  0.73338  Biso   1.000  C
  H14      1.0000 0.66180  0.16140  0.71390  Biso   1.000  H
  C22      1.0000 0.72620  0.27351  0.74187  Biso   1.000  C
  C23      1.0000 0.82300  0.30718  0.77014  Biso   1.000  C
  H15      1.0000 0.82630  0.36650  0.77640  Biso   1.000  H
  C24      1.0000 0.91460  0.25210  0.78899  Biso   1.000  C
  H16      1.0000 0.98110  0.27530  0.80820  Biso   1.000  H
  N1       1.0000 0.38370  0.82958  0.54370  Biso   1.000  N
  N2       1.0000 0.66390  0.60525  0.62643  Biso   1.000  N
  N3       1.0000 0.78530  0.57651  0.64154  Biso   1.000  N
  N4       1.0000 0.80680  0.68309  0.59791  Biso   1.000  N
  N5       1.0000 0.85520  0.74550  0.57128  Biso   1.000  N
  H17      1.0000 0.90700  0.77200  0.58850  Biso   1.000  H
  H18      1.0000 0.88400  0.72200  0.55040  Biso   1.000  H
  N6       1.0000 0.27480  0.60605  0.65118  Biso   1.000  N
  N7       1.0000 0.03230  0.41106  0.68179  Biso   1.000  N
  N8       1.0000 0.52390  0.43585  0.68878  Biso   1.000  N
  N9       1.0000 0.64380  0.40253  0.70253  Biso   1.000  N
  N10      1.0000 0.49680  0.31433  0.72105  Biso   1.000  N
  N11      1.0000 0.44080  0.24406  0.74019  Biso   1.000  N
  H19      1.0000 0.39100  0.22000  0.72300  Biso   1.000  H
  H20      1.0000 0.41200  0.25900  0.76150  Biso   1.000  H
  N12      1.0000 0.91460  0.16801  0.78171  Biso   1.000  N
  Ag2      1.0000 0.01346  0.07476  0.83545  Biso   1.000  Ag
  C25      1.0000 0.02300  0.36020  0.92902  Biso   1.000  C
  H21      1.0000 0.02420  0.41930  0.92210  Biso   1.000  H
  C26      1.0000 0.92410  0.31080  0.91015  Biso   1.000  C
  H22      1.0000 0.85840  0.33560  0.89120  Biso   1.000  H
  C27      1.0000 0.92290  0.22480  0.91949  Biso   1.000  C
  C28      1.0000 0.02000  0.19100  0.94736  Biso   1.000  C
  H23      1.0000 0.02240  0.13190  0.95420  Biso   1.000  H
  C29      1.0000 0.11330  0.24640  0.96484  Biso   1.000  C
  H24      1.0000 0.17960  0.22360  0.98420  Biso   1.000  H
  C30      1.0000 0.82080  0.16970  0.89908  Biso   1.000  C
  C31      1.0000 0.63070  0.12460  0.87611  Biso   1.000  C
  C32      1.0000 0.27870  0.10830  0.88918  Biso   1.000  C
  H25      1.0000 0.22340  0.10540  0.91180  Biso   1.000  H
  C33      1.0000 0.40950  0.11460  0.90042  Biso   1.000  C
  H26      1.0000 0.44270  0.11620  0.92970  Biso   1.000  H
  C34      1.0000 0.49030  0.11860  0.86729  Biso   1.000  C
  C35      1.0000 0.43690  0.11598  0.82518  Biso   1.000  C
  H27      1.0000 0.48980  0.11810  0.80190  Biso   1.000  H
  C36      1.0000 0.30450  0.11020  0.81754  Biso   1.000  C
  H28      1.0000 0.26850  0.10900  0.78850  Biso   1.000  H
  C37      1.0000 0.40740  0.90620  0.77898  Biso   1.000  C
  H29      1.0000 0.45770  0.90970  0.75510  Biso   1.000  H
  C38      1.0000 0.27620  0.89650  0.77072  Biso   1.000  C
  H30      1.0000 0.23760  0.89240  0.74210  Biso   1.000  H
  C39      1.0000 0.20290  0.89278  0.80585  Biso   1.000  C
  C40      1.0000 0.26300  0.89916  0.84694  Biso   1.000  C
  H31      1.0000 0.21450  0.89770  0.87130  Biso   1.000  H
  C41      1.0000 0.39560  0.90770  0.85193  Biso   1.000  C
  H32      1.0000 0.43700  0.91130  0.88020  Biso   1.000  H
  C42      1.0000 0.06200  0.88195  0.79922  Biso   1.000  C
  C43      1.0000 0.87460  0.82943  0.77819  Biso   1.000  C
  C44      1.0000 0.67840  0.63660  0.74599  Biso   1.000  C
  H33      1.0000 0.67860  0.57710  0.75180  Biso   1.000  H
  C45      1.0000 0.77390  0.68622  0.76662  Biso   1.000  C
  H34      1.0000 0.83820  0.66140  0.78610  Biso   1.000  H
  C46      1.0000 0.77380  0.77351  0.75813  Biso   1.000  C
  C47      1.0000 0.67700  0.80718  0.72986  Biso   1.000  C
  H35      1.0000 0.67370  0.86650  0.72360  Biso   1.000  H
  C48      1.0000 0.58540  0.75210  0.71101  Biso   1.000  C
  H36      1.0000 0.51890  0.77530  0.69180  Biso   1.000  H
  N13      1.0000 0.11630  0.32958  0.95630  Biso   1.000  N
  N14      1.0000 0.83610  0.10525  0.87357  Biso   1.000  N
  N15      1.0000 0.71470  0.07651  0.85846  Biso   1.000  N
  N16      1.0000 0.69320  0.18309  0.90209  Biso   1.000  N
  N17      1.0000 0.64480  0.24550  0.92872  Biso   1.000  N
  H37      1.0000 0.59300  0.27200  0.91150  Biso   1.000  H
  H38      1.0000 0.61600  0.22200  0.94960  Biso   1.000  H
  N18      1.0000 0.22520  0.10605  0.84882  Biso   1.000  N
  N19      1.0000 0.46770  0.91106  0.81821  Biso   1.000  N
  N20      1.0000 0.97610  0.93585  0.81122  Biso   1.000  N
  N21      1.0000 0.85620  0.90253  0.79747  Biso   1.000  N
  N22      1.0000 0.00320  0.81433  0.77895  Biso   1.000  N
  N23      1.0000 0.05920  0.74406  0.75981  Biso   1.000  N
  H39      1.0000 0.10900  0.72000  0.77700  Biso   1.000  H
  H40      1.0000 0.08800  0.75900  0.73850  Biso   1.000  H
  N24      1.0000 0.58540  0.66801  0.71829  Biso   1.000  N
  Ag3      1.0000 0.82285  0.44354  0.67167  Biso   1.000  Ag
  Ag4      1.0000 0.67715  0.94354  0.82833  Biso   1.000  Ag
  Ag5      1.0000 0.17715  0.55646  0.32833  Biso   1.000  Ag
  Ag6      1.0000 0.32285  0.05646  0.17167  Biso   1.000  Ag
  Ag7      1.0000 0.51346  0.42524  0.33545  Biso   1.000  Ag
  C49      1.0000 0.52300  0.13980  0.42902  Biso   1.000  C
  H41      1.0000 0.52420  0.08070  0.42210  Biso   1.000  H
  C50      1.0000 0.42410  0.18920  0.41015  Biso   1.000  C
  H42      1.0000 0.35840  0.16440  0.39120  Biso   1.000  H
  C51      1.0000 0.42290  0.27520  0.41949  Biso   1.000  C
  C52      1.0000 0.52000  0.30900  0.44736  Biso   1.000  C
  H43      1.0000 0.52240  0.36810  0.45420  Biso   1.000  H
  C53      1.0000 0.61330  0.25360  0.46484  Biso   1.000  C
  H44      1.0000 0.67960  0.27640  0.48420  Biso   1.000  H
  C54      1.0000 0.32080  0.33030  0.39908  Biso   1.000  C
  C55      1.0000 0.13070  0.37540  0.37611  Biso   1.000  C
  C56      1.0000 0.77870  0.39170  0.38918  Biso   1.000  C
  H45      1.0000 0.72340  0.39460  0.41180  Biso   1.000  H
  C57      1.0000 0.90950  0.38540  0.40042  Biso   1.000  C
  H46      1.0000 0.94270  0.38380  0.42970  Biso   1.000  H
  C58      1.0000 0.99030  0.38140  0.36729  Biso   1.000  C
  C59      1.0000 0.93690  0.38402  0.32518  Biso   1.000  C
  H47      1.0000 0.98980  0.38190  0.30190  Biso   1.000  H
  C60      1.0000 0.80450  0.38980  0.31754  Biso   1.000  C
  H48      1.0000 0.76850  0.39100  0.28850  Biso   1.000  H
  C61      1.0000 0.90740  0.59380  0.27898  Biso   1.000  C
  H49      1.0000 0.95770  0.59030  0.25510  Biso   1.000  H
  C62      1.0000 0.77620  0.60350  0.27072  Biso   1.000  C
  H50      1.0000 0.73760  0.60760  0.24210  Biso   1.000  H
  C63      1.0000 0.70290  0.60722  0.30585  Biso   1.000  C
  C64      1.0000 0.76300  0.60084  0.34694  Biso   1.000  C
  H51      1.0000 0.71450  0.60230  0.37130  Biso   1.000  H
  C65      1.0000 0.89560  0.59230  0.35193  Biso   1.000  C
  H52      1.0000 0.93700  0.58870  0.38020  Biso   1.000  H
  C66      1.0000 0.56200  0.61805  0.29922  Biso   1.000  C
  C67      1.0000 0.37460  0.67057  0.27819  Biso   1.000  C
  C68      1.0000 0.17840  0.86340  0.24599  Biso   1.000  C
  H53      1.0000 0.17860  0.92290  0.25180  Biso   1.000  H
  C69      1.0000 0.27390  0.81378  0.26662  Biso   1.000  C
  H54      1.0000 0.33820  0.83860  0.28610  Biso   1.000  H
  C70      1.0000 0.27380  0.72649  0.25813  Biso   1.000  C
  C71      1.0000 0.17700  0.69282  0.22986  Biso   1.000  C
  H55      1.0000 0.17370  0.63350  0.22360  Biso   1.000  H
  C72      1.0000 0.08540  0.74790  0.21101  Biso   1.000  C
  H56      1.0000 0.01890  0.72470  0.19180  Biso   1.000  H
  N25      1.0000 0.61630  0.17042  0.45630  Biso   1.000  N
  N26      1.0000 0.33610  0.39475  0.37357  Biso   1.000  N
  N27      1.0000 0.21470  0.42349  0.35846  Biso   1.000  N
  N28      1.0000 0.19320  0.31691  0.40209  Biso   1.000  N
  N29      1.0000 0.14480  0.25450  0.42872  Biso   1.000  N
  H57      1.0000 0.09300  0.22800  0.41150  Biso   1.000  H
  H58      1.0000 0.11600  0.27800  0.44960  Biso   1.000  H
  N30      1.0000 0.72520  0.39395  0.34882  Biso   1.000  N
  N31      1.0000 0.96770  0.58894  0.31821  Biso   1.000  N
  N32      1.0000 0.47610  0.56415  0.31122  Biso   1.000  N
  N33      1.0000 0.35620  0.59747  0.29747  Biso   1.000  N
  N34      1.0000 0.50320  0.68567  0.27895  Biso   1.000  N
  N35      1.0000 0.55920  0.75594  0.25981  Biso   1.000  N
  H59      1.0000 0.60900  0.78000  0.27700  Biso   1.000  H
  H60      1.0000 0.58800  0.74100  0.23850  Biso   1.000  H
  N36      1.0000 0.08540  0.83199  0.21829  Biso   1.000  N
  Ag8      1.0000 0.98654  0.92524  0.16455  Biso   1.000  Ag
  C73      1.0000 0.97700  0.63980  0.07098  Biso   1.000  C
  H61      1.0000 0.97580  0.58070  0.07790  Biso   1.000  H
  C74      1.0000 0.07590  0.68920  0.08985  Biso   1.000  C
  H62      1.0000 0.14160  0.66440  0.10880  Biso   1.000  H
  C75      1.0000 0.07710  0.77520  0.08051  Biso   1.000  C
  C76      1.0000 0.98000  0.80900  0.05264  Biso   1.000  C
  H63      1.0000 0.97760  0.86810  0.04580  Biso   1.000  H
  C77      1.0000 0.88670  0.75360  0.03516  Biso   1.000  C
  H64      1.0000 0.82040  0.77640  0.01580  Biso   1.000  H
  C78      1.0000 0.17920  0.83030  0.10092  Biso   1.000  C
  C79      1.0000 0.36930  0.87540  0.12389  Biso   1.000  C
  C80      1.0000 0.72130  0.89170  0.11082  Biso   1.000  C
  H65      1.0000 0.77660  0.89460  0.08820  Biso   1.000  H
  C81      1.0000 0.59050  0.88540  0.09958  Biso   1.000  C
  H66      1.0000 0.55730  0.88380  0.07030  Biso   1.000  H
  C82      1.0000 0.50970  0.88140  0.13271  Biso   1.000  C
  C83      1.0000 0.56310  0.88402  0.17482  Biso   1.000  C
  H67      1.0000 0.51020  0.88190  0.19810  Biso   1.000  H
  C84      1.0000 0.69550  0.88980  0.18246  Biso   1.000  C
  H68      1.0000 0.73150  0.89100  0.21150  Biso   1.000  H
  C85      1.0000 0.59260  0.09380  0.22102  Biso   1.000  C
  H69      1.0000 0.54230  0.09030  0.24490  Biso   1.000  H
  C86      1.0000 0.72380  0.10350  0.22928  Biso   1.000  C
  H70      1.0000 0.76240  0.10760  0.25790  Biso   1.000  H
  C87      1.0000 0.79710  0.10722  0.19415  Biso   1.000  C
  C88      1.0000 0.73700  0.10084  0.15306  Biso   1.000  C
  H71      1.0000 0.78550  0.10230  0.12870  Biso   1.000  H
  C89      1.0000 0.60440  0.09230  0.14807  Biso   1.000  C
  H72      1.0000 0.56300  0.08870  0.11980  Biso   1.000  H
  C90      1.0000 0.93800  0.11805  0.20078  Biso   1.000  C
  C91      1.0000 0.12540  0.17057  0.22181  Biso   1.000  C
  C92      1.0000 0.32160  0.36340  0.25401  Biso   1.000  C
  H73      1.0000 0.32140  0.42290  0.24820  Biso   1.000  H
  C93      1.0000 0.22610  0.31378  0.23338  Biso   1.000  C
  H74      1.0000 0.16180  0.33860  0.21390  Biso   1.000  H
  C94      1.0000 0.22620  0.22649  0.24187  Biso   1.000  C
  C95      1.0000 0.32300  0.19282  0.27014  Biso   1.000  C
  H75      1.0000 0.32630  0.13350  0.27640  Biso   1.000  H
  C96      1.0000 0.41460  0.24790  0.28899  Biso   1.000  C
  H76      1.0000 0.48110  0.22470  0.30820  Biso   1.000  H
  N37      1.0000 0.88370  0.67042  0.04370  Biso   1.000  N
  N38      1.0000 0.16390  0.89475  0.12643  Biso   1.000  N
  N39      1.0000 0.28530  0.92349  0.14154  Biso   1.000  N
  N40      1.0000 0.30680  0.81691  0.09791  Biso   1.000  N
  N41      1.0000 0.35520  0.75450  0.07128  Biso   1.000  N
  H77      1.0000 0.40700  0.72800  0.08850  Biso   1.000  H
  H78      1.0000 0.38400  0.77800  0.05040  Biso   1.000  H
  N42      1.0000 0.77480  0.89395  0.15118  Biso   1.000  N
  N43      1.0000 0.53230  0.08894  0.18179  Biso   1.000  N
  N44      1.0000 0.02390  0.06415  0.18878  Biso   1.000  N
  N45      1.0000 0.14380  0.09747  0.20253  Biso   1.000  N
  N46      1.0000 0.99680  0.18567  0.22105  Biso   1.000  N
  N47      1.0000 0.94080  0.25594  0.24019  Biso   1.000  N
  H79      1.0000 0.89100  0.28000  0.22300  Biso   1.000  H
  H80      1.0000 0.91200  0.24100  0.26150  Biso   1.000  H
  N48      1.0000 0.41460  0.33199  0.28171  Biso   1.000  N
  Ag9      1.0000 0.33358  0.94210  0.48851  Biso   1.000  Ag
  C97      1.0000 0.34790  0.63110  0.40946  Biso   1.000  C
  H81      1.0000 0.35720  0.57150  0.41460  Biso   1.000  H
  C98      1.0000 0.44400  0.68460  0.42595  Biso   1.000  C
  H82      1.0000 0.51790  0.66240  0.44190  Biso   1.000  H
  C99      1.0000 0.43090  0.77210  0.41885  Biso   1.000  C
  C100     1.0000 0.32110  0.80210  0.39618  Biso   1.000  C
  H83      1.0000 0.30840  0.86150  0.39140  Biso   1.000  H
  C101     1.0000 0.23010  0.74330  0.38054  Biso   1.000  C
  H84      1.0000 0.15490  0.76390  0.36470  Biso   1.000  H
  C102     1.0000 0.53070  0.83090  0.43661  Biso   1.000  C
  C103     1.0000 0.71870  0.88490  0.45565  Biso   1.000  C
  C104     1.0000 0.06080  0.92050  0.43615  Biso   1.000  C
  H85      1.0000 0.10700  0.93120  0.41180  Biso   1.000  H
  C105     1.0000 0.92970  0.91170  0.42893  Biso   1.000  C
  H86      1.0000 0.88990  0.91690  0.40050  Biso   1.000  H
  C106     1.0000 0.85950  0.89630  0.46071  Biso   1.000  C
  C107     1.0000 0.92540  0.88980  0.50504  Biso   1.000  C
  H87      1.0000 0.87860  0.88120  0.52950  Biso   1.000  H
  C108     1.0000 0.05710  0.89680  0.50875  Biso   1.000  C
  H88      1.0000 0.10360  0.88920  0.53600  Biso   1.000  H
  N49      1.0000 0.12420  0.91568  0.47159  Biso   1.000  N
  C109     1.0000 0.04350  0.98210  0.44930  Biso   1.000  C
  H89      1.0000 0.08310  0.03160  0.43890  Biso   1.000  H
  C110     1.0000 0.91120  0.97400  0.44330  Biso   1.000  C
  H90      1.0000 0.85810  0.01610  0.42880  Biso   1.000  H
  C111     1.0000 0.93550  0.83270  0.47070  Biso   1.000  C
  H91      1.0000 0.90170  0.77710  0.47430  Biso   1.000  H
  C112     1.0000 0.06700  0.84670  0.47590  Biso   1.000  C
  H92      1.0000 0.11910  0.79860  0.48360  Biso   1.000  H
  N50      1.0000 0.24210  0.65870  0.38656  Biso   1.000  N
  N51      1.0000 0.51360  0.89965  0.45918  Biso   1.000  N
  N52      1.0000 0.63360  0.93404  0.47186  Biso   1.000  N
  N53      1.0000 0.65920  0.81982  0.43359  Biso   1.000  N
  N54      1.0000 0.71130  0.75500  0.40904  Biso   1.000  N
  H93      1.0000 0.74600  0.78000  0.38900  Biso   1.000  H
  H94      1.0000 0.76200  0.73200  0.42460  Biso   1.000  H
  Ag10     1.0000 0.66642  0.05790  0.51149  Biso   1.000  Ag
  C113     1.0000 0.65210  0.36890  0.59054  Biso   1.000  C
  H95      1.0000 0.64280  0.42850  0.58540  Biso   1.000  H
  C114     1.0000 0.55600  0.31540  0.57405  Biso   1.000  C
  H96      1.0000 0.48210  0.33760  0.55810  Biso   1.000  H
  C115     1.0000 0.56910  0.22790  0.58115  Biso   1.000  C
  C116     1.0000 0.67890  0.19790  0.60382  Biso   1.000  C
  H97      1.0000 0.69160  0.13850  0.60860  Biso   1.000  H
  C117     1.0000 0.76990  0.25670  0.61946  Biso   1.000  C
  H98      1.0000 0.84510  0.23610  0.63530  Biso   1.000  H
  C118     1.0000 0.46930  0.16910  0.56339  Biso   1.000  C
  C119     1.0000 0.28130  0.11510  0.54435  Biso   1.000  C
  C120     1.0000 0.93920  0.07950  0.56385  Biso   1.000  C
  H99      1.0000 0.89300  0.06880  0.58820  Biso   1.000  H
  C121     1.0000 0.07030  0.08830  0.57107  Biso   1.000  C
  H100     1.0000 0.11010  0.08310  0.59950  Biso   1.000  H
  C122     1.0000 0.14050  0.10370  0.53929  Biso   1.000  C
  C123     1.0000 0.07460  0.11020  0.49496  Biso   1.000  C
  H101     1.0000 0.12140  0.11880  0.47050  Biso   1.000  H
  C124     1.0000 0.94290  0.10320  0.49125  Biso   1.000  C
  H102     1.0000 0.89640  0.11080  0.46400  Biso   1.000  H
  N55      1.0000 0.87580  0.08432  0.52841  Biso   1.000  N
  C125     1.0000 0.95650  0.01790  0.55070  Biso   1.000  C
  H103     1.0000 0.91690  0.96840  0.56110  Biso   1.000  H
  C126     1.0000 0.08880  0.02600  0.55670  Biso   1.000  C
  H104     1.0000 0.14190  0.98390  0.57120  Biso   1.000  H
  C127     1.0000 0.06450  0.16730  0.52930  Biso   1.000  C
  H105     1.0000 0.09830  0.22290  0.52570  Biso   1.000  H
  C128     1.0000 0.93300  0.15330  0.52410  Biso   1.000  C
  H106     1.0000 0.88090  0.20140  0.51640  Biso   1.000  H
  N56      1.0000 0.75790  0.34130  0.61344  Biso   1.000  N
  N57      1.0000 0.48640  0.10035  0.54082  Biso   1.000  N
  N58      1.0000 0.36640  0.06596  0.52814  Biso   1.000  N
  N59      1.0000 0.34080  0.18018  0.56641  Biso   1.000  N
  N60      1.0000 0.28870  0.24500  0.59096  Biso   1.000  N
  H107     1.0000 0.25400  0.22000  0.61100  Biso   1.000  H
  H108     1.0000 0.23800  0.26800  0.57540  Biso   1.000  H
  Ag11     1.0000 0.16642  0.44210  0.01149  Biso   1.000  Ag
  C129     1.0000 0.15210  0.13110  0.09054  Biso   1.000  C
  H109     1.0000 0.14280  0.07150  0.08540  Biso   1.000  H
  C130     1.0000 0.05600  0.18460  0.07405  Biso   1.000  C
  H110     1.0000 0.98210  0.16240  0.05810  Biso   1.000  H
  C131     1.0000 0.06910  0.27210  0.08115  Biso   1.000  C
  C132     1.0000 0.17890  0.30210  0.10382  Biso   1.000  C
  H111     1.0000 0.19160  0.36150  0.10860  Biso   1.000  H
  C133     1.0000 0.26990  0.24330  0.11946  Biso   1.000  C
  H112     1.0000 0.34510  0.26390  0.13530  Biso   1.000  H
  C134     1.0000 0.96930  0.33090  0.06339  Biso   1.000  C
  C135     1.0000 0.78130  0.38490  0.04435  Biso   1.000  C
  C136     1.0000 0.43920  0.42050  0.06385  Biso   1.000  C
  H113     1.0000 0.39300  0.43120  0.08820  Biso   1.000  H
  C137     1.0000 0.57030  0.41170  0.07107  Biso   1.000  C
  H114     1.0000 0.61010  0.41690  0.09950  Biso   1.000  H
  C138     1.0000 0.64050  0.39630  0.03929  Biso   1.000  C
  C139     1.0000 0.57460  0.38980  0.99496  Biso   1.000  C
  H115     1.0000 0.62140  0.38120  0.97050  Biso   1.000  H
  C140     1.0000 0.44290  0.39680  0.99125  Biso   1.000  C
  H116     1.0000 0.39640  0.38920  0.96400  Biso   1.000  H
  N61      1.0000 0.37580  0.41568  0.02841  Biso   1.000  N
  C141     1.0000 0.45650  0.48210  0.05070  Biso   1.000  C
  H117     1.0000 0.41690  0.53160  0.06110  Biso   1.000  H
  C142     1.0000 0.58880  0.47400  0.05670  Biso   1.000  C
  H118     1.0000 0.64190  0.51610  0.07120  Biso   1.000  H
  C143     1.0000 0.56450  0.33270  0.02930  Biso   1.000  C
  H119     1.0000 0.59830  0.27710  0.02570  Biso   1.000  H
  C144     1.0000 0.43300  0.34670  0.02410  Biso   1.000  C
  H120     1.0000 0.38090  0.29860  0.01640  Biso   1.000  H
  N62      1.0000 0.25790  0.15870  0.11344  Biso   1.000  N
  N63      1.0000 0.98640  0.39965  0.04082  Biso   1.000  N
  N64      1.0000 0.86640  0.43404  0.02814  Biso   1.000  N
  N65      1.0000 0.84080  0.31982  0.06641  Biso   1.000  N
  N66      1.0000 0.78870  0.25500  0.09096  Biso   1.000  N
  H121     1.0000 0.75400  0.28000  0.11100  Biso   1.000  H
  H122     1.0000 0.73800  0.23200  0.07540  Biso   1.000  H
  Ag12     1.0000 0.83358  0.55790  0.98851  Biso   1.000  Ag
  C145     1.0000 0.84790  0.86890  0.90946  Biso   1.000  C
  H123     1.0000 0.85720  0.92850  0.91460  Biso   1.000  H
  C146     1.0000 0.94400  0.81540  0.92595  Biso   1.000  C
  H124     1.0000 0.01790  0.83760  0.94190  Biso   1.000  H
  C147     1.0000 0.93090  0.72790  0.91885  Biso   1.000  C
  C148     1.0000 0.82110  0.69790  0.89618  Biso   1.000  C
  H125     1.0000 0.80840  0.63850  0.89140  Biso   1.000  H
  C149     1.0000 0.73010  0.75670  0.88054  Biso   1.000  C
  H126     1.0000 0.65490  0.73610  0.86470  Biso   1.000  H
  C150     1.0000 0.03070  0.66910  0.93661  Biso   1.000  C
  C151     1.0000 0.21870  0.61510  0.95565  Biso   1.000  C
  C152     1.0000 0.56080  0.57950  0.93615  Biso   1.000  C
  H127     1.0000 0.60700  0.56880  0.91180  Biso   1.000  H
  C153     1.0000 0.42970  0.58830  0.92893  Biso   1.000  C
  H128     1.0000 0.38990  0.58310  0.90050  Biso   1.000  H
  C154     1.0000 0.35950  0.60370  0.96071  Biso   1.000  C
  C155     1.0000 0.42540  0.61020  0.00504  Biso   1.000  C
  H129     1.0000 0.37860  0.61880  0.02950  Biso   1.000  H
  C156     1.0000 0.55710  0.60320  0.00875  Biso   1.000  C
  H130     1.0000 0.60360  0.61080  0.03600  Biso   1.000  H
  N67      1.0000 0.62420  0.58432  0.97159  Biso   1.000  N
  C157     1.0000 0.54350  0.51790  0.94930  Biso   1.000  C
  H131     1.0000 0.58310  0.46840  0.93890  Biso   1.000  H
  C158     1.0000 0.41120  0.52600  0.94330  Biso   1.000  C
  H132     1.0000 0.35810  0.48390  0.92880  Biso   1.000  H
  C159     1.0000 0.43550  0.66730  0.97070  Biso   1.000  C
  H133     1.0000 0.40170  0.72290  0.97430  Biso   1.000  H
  C160     1.0000 0.56700  0.65330  0.97590  Biso   1.000  C
  H134     1.0000 0.61910  0.70140  0.98360  Biso   1.000  H
  N68      1.0000 0.74210  0.84130  0.88656  Biso   1.000  N
  N69      1.0000 0.01360  0.60035  0.95918  Biso   1.000  N
  N70      1.0000 0.13360  0.56596  0.97186  Biso   1.000  N
  N71      1.0000 0.15920  0.68018  0.93359  Biso   1.000  N
  N72      1.0000 0.21130  0.74500  0.90904  Biso   1.000  N
  H135     1.0000 0.24600  0.72000  0.88900  Biso   1.000  H
  H136     1.0000 0.26200  0.76800  0.92460  Biso   1.000  H
