data_image0
_cell_length_a       18.425
_cell_length_b       24.573
_cell_length_c       10.236
_cell_angle_alpha    90
_cell_angle_beta     90
_cell_angle_gamma    90

_symmetry_space_group_name_H-M    "P 1"
_symmetry_int_tables_number       1

loop_
  _symmetry_equiv_pos_as_xyz
  'x, y, z'

loop_
  _atom_site_label
  _atom_site_occupancy
  _atom_site_fract_x
  _atom_site_fract_y
  _atom_site_fract_z
  _atom_site_thermal_displace_type
  _atom_site_B_iso_or_equiv
  _atom_site_type_symbol
  F1       1.0000 0.32403  0.73614  0.83244  Biso   1.000  F
  F2       1.0000 0.72177  0.74790  0.66966  Biso   1.000  F
  F3       1.0000 0.70045  0.81059  0.08160  Biso   1.000  F
  F4       1.0000 0.84400  0.70127  0.58990  Biso   1.000  F
  Ga1      1.0000 0.68301  0.84851  0.90985  Biso   1.000  Ga
  Ga2      1.0000 0.61784  0.74213  0.60406  Biso   1.000  Ga
  Ga3      1.0000 0.42793  0.73399  0.89796  Biso   1.000  Ga
  Ga4      1.0000 0.43752  0.94124  0.11700  Biso   1.000  Ga
  Ga5      1.0000 0.59041  0.93205  0.38503  Biso   1.000  Ga
  Ga6      1.0000 0.73865  0.73441  0.07847  Biso   1.000  Ga
  Ga7      1.0000 0.80815  0.77790  0.58217  Biso   1.000  Ga
  Ga8      1.0000 0.85860  0.65747  0.39099  Biso   1.000  Ga
  Ga9      1.0000 0.35705  0.83584  0.55185  Biso   1.000  Ga
  P1       1.0000 0.83098  0.80193  0.87822  Biso   1.000  P
  P2       1.0000 0.36453  0.85337  0.91651  Biso   1.000  P
  P3       1.0000 0.60026  0.73544  0.89586  Biso   1.000  P
  P4       1.0000 0.44601  0.73160  0.60423  Biso   1.000  P
  P5       1.0000 0.67844  0.86282  0.59791  Biso   1.000  P
  P6       1.0000 0.41924  0.93701  0.41643  Biso   1.000  P
  P7       1.0000 0.60103  0.94001  0.08184  Biso   1.000  P
  P8       1.0000 0.71550  0.71201  0.37503  Biso   1.000  P
  O1       1.0000 0.52600  0.72784  0.95940  Biso   1.000  O
  O2       1.0000 0.44620  0.70206  0.73710  Biso   1.000  O
  O3       1.0000 0.41963  0.80757  0.93830  Biso   1.000  O
  O4       1.0000 0.89744  0.81110  0.96650  Biso   1.000  O
  O5       1.0000 0.28563  0.83643  0.92200  Biso   1.000  O
  O6       1.0000 0.78913  0.75123  0.91770  Biso   1.000  O
  O7       1.0000 0.65658  0.70801  0.98250  Biso   1.000  O
  O8       1.0000 0.65450  0.91166  0.99250  Biso   1.000  O
  O9       1.0000 0.85934  0.79530  0.73740  Biso   1.000  O
  O10      1.0000 0.78165  0.85263  0.88910  Biso   1.000  O
  O11      1.0000 0.66631  0.88300  0.73750  Biso   1.000  O
  O12      1.0000 0.61455  0.79689  0.87180  Biso   1.000  O
  O13      1.0000 0.60183  0.70765  0.76040  Biso   1.000  O
  O14      1.0000 0.62457  0.81589  0.56590  Biso   1.000  O
  O15      1.0000 0.52145  0.73135  0.54120  Biso   1.000  O
  O16      1.0000 0.75804  0.84810  0.57320  Biso   1.000  O
  O17      1.0000 0.65971  0.90992  0.50330  Biso   1.000  O
  O18      1.0000 0.39271  0.70151  0.51500  Biso   1.000  O
  O19      1.0000 0.75968  0.76103  0.42090  Biso   1.000  O
  O20      1.0000 0.42475  0.79149  0.63240  Biso   1.000  O
  O21      1.0000 0.37115  0.90474  0.50880  Biso   1.000  O
  O22      1.0000 0.76252  0.66033  0.37700  Biso   1.000  O
  O23      1.0000 0.40632  0.99604  0.44960  Biso   1.000  O
  O24      1.0000 0.49758  0.91873  0.43630  Biso   1.000  O
  O25      1.0000 0.63140  0.94136  0.22040  Biso   1.000  O
  O26      1.0000 0.52676  0.91130  0.07800  Biso   1.000  O
  O27      1.0000 0.39563  0.92422  0.27660  Biso   1.000  O
  O28      1.0000 0.59603  0.99808  0.02810  Biso   1.000  O
  O29      1.0000 0.68573  0.72151  0.23780  Biso   1.000  O
  O30      1.0000 0.37962  0.88013  0.78210  Biso   1.000  O
  O31      1.0000 0.37569  0.89434  0.02490  Biso   1.000  O
  O32      1.0000 0.65020  0.70132  0.46400  Biso   1.000  O
  F5       1.0000 0.67597  0.26386  0.83244  Biso   1.000  F
  F6       1.0000 0.27823  0.25210  0.66966  Biso   1.000  F
  F7       1.0000 0.29955  0.18941  0.08160  Biso   1.000  F
  F8       1.0000 0.15600  0.29873  0.58990  Biso   1.000  F
  Ga10     1.0000 0.31699  0.15149  0.90985  Biso   1.000  Ga
  Ga11     1.0000 0.38216  0.25787  0.60406  Biso   1.000  Ga
  Ga12     1.0000 0.57207  0.26601  0.89796  Biso   1.000  Ga
  Ga13     1.0000 0.56248  0.05876  0.11700  Biso   1.000  Ga
  Ga14     1.0000 0.40959  0.06795  0.38503  Biso   1.000  Ga
  Ga15     1.0000 0.26135  0.26559  0.07847  Biso   1.000  Ga
  Ga16     1.0000 0.19185  0.22210  0.58217  Biso   1.000  Ga
  Ga17     1.0000 0.14140  0.34253  0.39099  Biso   1.000  Ga
  Ga18     1.0000 0.64295  0.16416  0.55185  Biso   1.000  Ga
  P9       1.0000 0.16902  0.19807  0.87822  Biso   1.000  P
  P10      1.0000 0.63547  0.14663  0.91651  Biso   1.000  P
  P11      1.0000 0.39974  0.26456  0.89586  Biso   1.000  P
  P12      1.0000 0.55399  0.26840  0.60423  Biso   1.000  P
  P13      1.0000 0.32156  0.13718  0.59791  Biso   1.000  P
  P14      1.0000 0.58076  0.06299  0.41643  Biso   1.000  P
  P15      1.0000 0.39897  0.05999  0.08184  Biso   1.000  P
  P16      1.0000 0.28450  0.28799  0.37503  Biso   1.000  P
  O33      1.0000 0.47400  0.27216  0.95940  Biso   1.000  O
  O34      1.0000 0.55380  0.29794  0.73710  Biso   1.000  O
  O35      1.0000 0.58037  0.19243  0.93830  Biso   1.000  O
  O36      1.0000 0.10256  0.18890  0.96650  Biso   1.000  O
  O37      1.0000 0.71437  0.16357  0.92200  Biso   1.000  O
  O38      1.0000 0.21087  0.24877  0.91770  Biso   1.000  O
  O39      1.0000 0.34342  0.29199  0.98250  Biso   1.000  O
  O40      1.0000 0.34550  0.08834  0.99250  Biso   1.000  O
  O41      1.0000 0.14066  0.20470  0.73740  Biso   1.000  O
  O42      1.0000 0.21835  0.14737  0.88910  Biso   1.000  O
  O43      1.0000 0.33369  0.11700  0.73750  Biso   1.000  O
  O44      1.0000 0.38545  0.20311  0.87180  Biso   1.000  O
  O45      1.0000 0.39817  0.29235  0.76040  Biso   1.000  O
  O46      1.0000 0.37543  0.18411  0.56590  Biso   1.000  O
  O47      1.0000 0.47855  0.26865  0.54120  Biso   1.000  O
  O48      1.0000 0.24196  0.15190  0.57320  Biso   1.000  O
  O49      1.0000 0.34029  0.09008  0.50330  Biso   1.000  O
  O50      1.0000 0.60729  0.29849  0.51500  Biso   1.000  O
  O51      1.0000 0.24032  0.23897  0.42090  Biso   1.000  O
  O52      1.0000 0.57525  0.20851  0.63240  Biso   1.000  O
  O53      1.0000 0.62885  0.09526  0.50880  Biso   1.000  O
  O54      1.0000 0.23748  0.33967  0.37700  Biso   1.000  O
  O55      1.0000 0.59368  0.00396  0.44960  Biso   1.000  O
  O56      1.0000 0.50242  0.08127  0.43630  Biso   1.000  O
  O57      1.0000 0.36860  0.05864  0.22040  Biso   1.000  O
  O58      1.0000 0.47324  0.08870  0.07800  Biso   1.000  O
  O59      1.0000 0.60437  0.07578  0.27660  Biso   1.000  O
  O60      1.0000 0.40397  0.00192  0.02810  Biso   1.000  O
  O61      1.0000 0.31427  0.27849  0.23780  Biso   1.000  O
  O62      1.0000 0.62038  0.11987  0.78210  Biso   1.000  O
  O63      1.0000 0.62431  0.10566  0.02490  Biso   1.000  O
  O64      1.0000 0.34980  0.29868  0.46400  Biso   1.000  O
  F9       1.0000 0.17597  0.23614  0.16756  Biso   1.000  F
  F10      1.0000 0.77823  0.24790  0.33034  Biso   1.000  F
  F11      1.0000 0.79955  0.31059  0.91840  Biso   1.000  F
  F12      1.0000 0.65600  0.20127  0.41010  Biso   1.000  F
  Ga19     1.0000 0.81699  0.34851  0.09015  Biso   1.000  Ga
  Ga20     1.0000 0.88216  0.24213  0.39594  Biso   1.000  Ga
  Ga21     1.0000 0.07207  0.23399  0.10204  Biso   1.000  Ga
  Ga22     1.0000 0.06248  0.44124  0.88300  Biso   1.000  Ga
  Ga23     1.0000 0.90959  0.43205  0.61497  Biso   1.000  Ga
  Ga24     1.0000 0.76135  0.23441  0.92153  Biso   1.000  Ga
  Ga25     1.0000 0.69185  0.27790  0.41783  Biso   1.000  Ga
  Ga26     1.0000 0.64140  0.15747  0.60901  Biso   1.000  Ga
  Ga27     1.0000 0.14295  0.33584  0.44815  Biso   1.000  Ga
  P17      1.0000 0.66902  0.30193  0.12178  Biso   1.000  P
  P18      1.0000 0.13547  0.35337  0.08349  Biso   1.000  P
  P19      1.0000 0.89974  0.23544  0.10414  Biso   1.000  P
  P20      1.0000 0.05399  0.23160  0.39577  Biso   1.000  P
  P21      1.0000 0.82156  0.36282  0.40209  Biso   1.000  P
  P22      1.0000 0.08076  0.43701  0.58357  Biso   1.000  P
  P23      1.0000 0.89897  0.44001  0.91816  Biso   1.000  P
  P24      1.0000 0.78450  0.21201  0.62497  Biso   1.000  P
  O65      1.0000 0.97400  0.22784  0.04060  Biso   1.000  O
  O66      1.0000 0.05380  0.20206  0.26290  Biso   1.000  O
  O67      1.0000 0.08037  0.30757  0.06170  Biso   1.000  O
  O68      1.0000 0.60256  0.31110  0.03350  Biso   1.000  O
  O69      1.0000 0.21437  0.33643  0.07800  Biso   1.000  O
  O70      1.0000 0.71087  0.25123  0.08230  Biso   1.000  O
  O71      1.0000 0.84342  0.20801  0.01750  Biso   1.000  O
  O72      1.0000 0.84550  0.41166  0.00750  Biso   1.000  O
  O73      1.0000 0.64066  0.29530  0.26260  Biso   1.000  O
  O74      1.0000 0.71835  0.35263  0.11090  Biso   1.000  O
  O75      1.0000 0.83369  0.38300  0.26250  Biso   1.000  O
  O76      1.0000 0.88545  0.29689  0.12820  Biso   1.000  O
  O77      1.0000 0.89817  0.20765  0.23960  Biso   1.000  O
  O78      1.0000 0.87543  0.31589  0.43410  Biso   1.000  O
  O79      1.0000 0.97855  0.23135  0.45880  Biso   1.000  O
  O80      1.0000 0.74196  0.34810  0.42680  Biso   1.000  O
  O81      1.0000 0.84029  0.40992  0.49670  Biso   1.000  O
  O82      1.0000 0.10729  0.20151  0.48500  Biso   1.000  O
  O83      1.0000 0.74032  0.26103  0.57910  Biso   1.000  O
  O84      1.0000 0.07525  0.29149  0.36760  Biso   1.000  O
  O85      1.0000 0.12885  0.40474  0.49120  Biso   1.000  O
  O86      1.0000 0.73748  0.16033  0.62300  Biso   1.000  O
  O87      1.0000 0.09368  0.49604  0.55040  Biso   1.000  O
  O88      1.0000 0.00242  0.41873  0.56370  Biso   1.000  O
  O89      1.0000 0.86860  0.44136  0.77960  Biso   1.000  O
  O90      1.0000 0.97324  0.41130  0.92200  Biso   1.000  O
  O91      1.0000 0.10437  0.42422  0.72340  Biso   1.000  O
  O92      1.0000 0.90397  0.49808  0.97190  Biso   1.000  O
  O93      1.0000 0.81427  0.22151  0.76220  Biso   1.000  O
  O94      1.0000 0.12038  0.38013  0.21790  Biso   1.000  O
  O95      1.0000 0.12431  0.39434  0.97510  Biso   1.000  O
  O96      1.0000 0.84980  0.20132  0.53600  Biso   1.000  O
  F13      1.0000 0.82403  0.76386  0.16756  Biso   1.000  F
  F14      1.0000 0.22177  0.75210  0.33034  Biso   1.000  F
  F15      1.0000 0.20045  0.68941  0.91840  Biso   1.000  F
  F16      1.0000 0.34400  0.79873  0.41010  Biso   1.000  F
  Ga28     1.0000 0.18301  0.65149  0.09015  Biso   1.000  Ga
  Ga29     1.0000 0.11784  0.75787  0.39594  Biso   1.000  Ga
  Ga30     1.0000 0.92793  0.76601  0.10204  Biso   1.000  Ga
  Ga31     1.0000 0.93752  0.55876  0.88300  Biso   1.000  Ga
  Ga32     1.0000 0.09041  0.56795  0.61497  Biso   1.000  Ga
  Ga33     1.0000 0.23865  0.76559  0.92153  Biso   1.000  Ga
  Ga34     1.0000 0.30815  0.72210  0.41783  Biso   1.000  Ga
  Ga35     1.0000 0.35860  0.84253  0.60901  Biso   1.000  Ga
  Ga36     1.0000 0.85705  0.66416  0.44815  Biso   1.000  Ga
  P25      1.0000 0.33098  0.69807  0.12178  Biso   1.000  P
  P26      1.0000 0.86453  0.64663  0.08349  Biso   1.000  P
  P27      1.0000 0.10026  0.76456  0.10414  Biso   1.000  P
  P28      1.0000 0.94601  0.76840  0.39577  Biso   1.000  P
  P29      1.0000 0.17844  0.63718  0.40209  Biso   1.000  P
  P30      1.0000 0.91924  0.56299  0.58357  Biso   1.000  P
  P31      1.0000 0.10103  0.55999  0.91816  Biso   1.000  P
  P32      1.0000 0.21550  0.78799  0.62497  Biso   1.000  P
  O97      1.0000 0.02600  0.77216  0.04060  Biso   1.000  O
  O98      1.0000 0.94620  0.79794  0.26290  Biso   1.000  O
  O99      1.0000 0.91963  0.69243  0.06170  Biso   1.000  O
  O100     1.0000 0.39744  0.68890  0.03350  Biso   1.000  O
  O101     1.0000 0.78563  0.66357  0.07800  Biso   1.000  O
  O102     1.0000 0.28913  0.74877  0.08230  Biso   1.000  O
  O103     1.0000 0.15658  0.79199  0.01750  Biso   1.000  O
  O104     1.0000 0.15450  0.58834  0.00750  Biso   1.000  O
  O105     1.0000 0.35934  0.70470  0.26260  Biso   1.000  O
  O106     1.0000 0.28165  0.64737  0.11090  Biso   1.000  O
  O107     1.0000 0.16631  0.61700  0.26250  Biso   1.000  O
  O108     1.0000 0.11455  0.70311  0.12820  Biso   1.000  O
  O109     1.0000 0.10183  0.79235  0.23960  Biso   1.000  O
  O110     1.0000 0.12457  0.68411  0.43410  Biso   1.000  O
  O111     1.0000 0.02145  0.76865  0.45880  Biso   1.000  O
  O112     1.0000 0.25804  0.65190  0.42680  Biso   1.000  O
  O113     1.0000 0.15971  0.59008  0.49670  Biso   1.000  O
  O114     1.0000 0.89271  0.79849  0.48500  Biso   1.000  O
  O115     1.0000 0.25968  0.73897  0.57910  Biso   1.000  O
  O116     1.0000 0.92475  0.70851  0.36760  Biso   1.000  O
  O117     1.0000 0.87115  0.59526  0.49120  Biso   1.000  O
  O118     1.0000 0.26252  0.83967  0.62300  Biso   1.000  O
  O119     1.0000 0.90632  0.50396  0.55040  Biso   1.000  O
  O120     1.0000 0.99758  0.58127  0.56370  Biso   1.000  O
  O121     1.0000 0.13140  0.55864  0.77960  Biso   1.000  O
  O122     1.0000 0.02676  0.58870  0.92200  Biso   1.000  O
  O123     1.0000 0.89563  0.57578  0.72340  Biso   1.000  O
  O124     1.0000 0.09603  0.50192  0.97190  Biso   1.000  O
  O125     1.0000 0.18573  0.77849  0.76220  Biso   1.000  O
  O126     1.0000 0.87962  0.61987  0.21790  Biso   1.000  O
  O127     1.0000 0.87569  0.60566  0.97510  Biso   1.000  O
  O128     1.0000 0.15020  0.79868  0.53600  Biso   1.000  O
