data_image0
_cell_length_a       15.168
_cell_length_b       18.972
_cell_length_c       6.628
_cell_angle_alpha    90
_cell_angle_beta     90
_cell_angle_gamma    90

_symmetry_space_group_name_H-M    "P 1"
_symmetry_int_tables_number       1

loop_
  _symmetry_equiv_pos_as_xyz
  'x, y, z'

loop_
  _atom_site_label
  _atom_site_occupancy
  _atom_site_fract_x
  _atom_site_fract_y
  _atom_site_fract_z
  _atom_site_thermal_displace_type
  _atom_site_B_iso_or_equiv
  _atom_site_type_symbol
  P1       1.0000 0.12050  0.05980  0.07550  Biso   1.000  P
  O1       1.0000 0.90170  0.11160  0.68690  Biso   1.000  O
  O2       1.0000 0.99350  0.32380  0.18700  Biso   1.000  O
  O3       1.0000 0.73620  0.27590  0.18910  Biso   1.000  O
  O4       1.0000 0.12320  0.06430  0.30770  Biso   1.000  O
  P2       1.0000 0.87950  0.94020  0.07550  Biso   1.000  P
  O5       1.0000 0.09830  0.88840  0.68690  Biso   1.000  O
  O6       1.0000 0.00650  0.67620  0.18700  Biso   1.000  O
  O7       1.0000 0.26380  0.72410  0.18910  Biso   1.000  O
  O8       1.0000 0.87680  0.93570  0.30770  Biso   1.000  O
  P3       1.0000 0.37950  0.55980  0.42450  Biso   1.000  P
  O9       1.0000 0.59830  0.61160  0.81310  Biso   1.000  O
  O10      1.0000 0.50650  0.82380  0.31300  Biso   1.000  O
  O11      1.0000 0.76380  0.77590  0.31090  Biso   1.000  O
  O12      1.0000 0.37680  0.56430  0.19230  Biso   1.000  O
  P4       1.0000 0.62050  0.44020  0.42450  Biso   1.000  P
  O13      1.0000 0.40170  0.38840  0.81310  Biso   1.000  O
  O14      1.0000 0.49350  0.17620  0.31300  Biso   1.000  O
  O15      1.0000 0.23620  0.22410  0.31090  Biso   1.000  O
  O16      1.0000 0.62320  0.43570  0.19230  Biso   1.000  O
  P5       1.0000 0.87950  0.94020  0.92450  Biso   1.000  P
  O17      1.0000 0.09830  0.88840  0.31310  Biso   1.000  O
  O18      1.0000 0.00650  0.67620  0.81300  Biso   1.000  O
  O19      1.0000 0.26380  0.72410  0.81090  Biso   1.000  O
  O20      1.0000 0.87680  0.93570  0.69230  Biso   1.000  O
  P6       1.0000 0.12050  0.05980  0.92450  Biso   1.000  P
  O21      1.0000 0.90170  0.11160  0.31310  Biso   1.000  O
  O22      1.0000 0.99350  0.32380  0.81300  Biso   1.000  O
  O23      1.0000 0.73620  0.27590  0.81090  Biso   1.000  O
  O24      1.0000 0.12320  0.06430  0.69230  Biso   1.000  O
  P7       1.0000 0.62050  0.44020  0.57550  Biso   1.000  P
  O25      1.0000 0.40170  0.38840  0.18690  Biso   1.000  O
  O26      1.0000 0.49350  0.17620  0.68700  Biso   1.000  O
  O27      1.0000 0.23620  0.22410  0.68910  Biso   1.000  O
  O28      1.0000 0.62320  0.43570  0.80770  Biso   1.000  O
  P8       1.0000 0.37950  0.55980  0.57550  Biso   1.000  P
  O29      1.0000 0.59830  0.61160  0.18690  Biso   1.000  O
  O30      1.0000 0.50650  0.82380  0.68700  Biso   1.000  O
  O31      1.0000 0.76380  0.77590  0.68910  Biso   1.000  O
  O32      1.0000 0.37680  0.56430  0.80770  Biso   1.000  O
  Zr1      1.0000 0.90134  0.11654  0.00000  Biso   1.000  Zr
  P9       1.0000 0.01250  0.28008  0.00000  Biso   1.000  P
  P10      1.0000 0.72060  0.23070  0.00000  Biso   1.000  P
  O33      1.0000 0.95510  0.21490  0.00000  Biso   1.000  O
  O34      1.0000 0.78130  0.16670  0.00000  Biso   1.000  O
  O35      1.0000 0.02940  0.07730  0.00000  Biso   1.000  O
  O36      1.0000 0.85390  0.01430  0.00000  Biso   1.000  O
  Zr2      1.0000 0.09866  0.88346  0.00000  Biso   1.000  Zr
  P11      1.0000 0.98750  0.71992  0.00000  Biso   1.000  P
  P12      1.0000 0.27940  0.76930  0.00000  Biso   1.000  P
  O37      1.0000 0.04490  0.78510  0.00000  Biso   1.000  O
  O38      1.0000 0.21870  0.83330  0.00000  Biso   1.000  O
  O39      1.0000 0.97060  0.92270  0.00000  Biso   1.000  O
  O40      1.0000 0.14610  0.98570  0.00000  Biso   1.000  O
  Zr3      1.0000 0.59866  0.61654  0.50000  Biso   1.000  Zr
  P13      1.0000 0.48750  0.78008  0.50000  Biso   1.000  P
  P14      1.0000 0.77940  0.73070  0.50000  Biso   1.000  P
  O41      1.0000 0.54490  0.71490  0.50000  Biso   1.000  O
  O42      1.0000 0.71870  0.66670  0.50000  Biso   1.000  O
  O43      1.0000 0.47060  0.57730  0.50000  Biso   1.000  O
  O44      1.0000 0.64610  0.51430  0.50000  Biso   1.000  O
  Zr4      1.0000 0.40134  0.38346  0.50000  Biso   1.000  Zr
  P15      1.0000 0.51250  0.21992  0.50000  Biso   1.000  P
  P16      1.0000 0.22060  0.26930  0.50000  Biso   1.000  P
  O45      1.0000 0.45510  0.28510  0.50000  Biso   1.000  O
  O46      1.0000 0.28130  0.33330  0.50000  Biso   1.000  O
  O47      1.0000 0.52940  0.42270  0.50000  Biso   1.000  O
  O48      1.0000 0.35390  0.48570  0.50000  Biso   1.000  O
  Zr5      1.0000 0.73125  0.28347  0.50000  Biso   1.000  Zr
  Zr6      1.0000 0.99660  0.31894  0.50000  Biso   1.000  Zr
  P17      1.0000 0.89110  0.15733  0.50000  Biso   1.000  P
  F1       1.0000 0.85680  0.33200  0.50000  Biso   1.000  F
  F2       1.0000 0.99980  0.42290  0.50000  Biso   1.000  F
  O49      1.0000 0.79980  0.19040  0.50000  Biso   1.000  O
  O50      1.0000 0.95980  0.21500  0.50000  Biso   1.000  O
  O51      1.0000 0.60990  0.24210  0.50000  Biso   1.000  O
  O52      1.0000 0.12560  0.29670  0.50000  Biso   1.000  O
  O53      1.0000 0.68860  0.38690  0.50000  Biso   1.000  O
  Zr7      1.0000 0.26875  0.71653  0.50000  Biso   1.000  Zr
  Zr8      1.0000 0.00340  0.68106  0.50000  Biso   1.000  Zr
  P18      1.0000 0.10890  0.84267  0.50000  Biso   1.000  P
  F3       1.0000 0.14320  0.66800  0.50000  Biso   1.000  F
  F4       1.0000 0.00020  0.57710  0.50000  Biso   1.000  F
  O54      1.0000 0.20020  0.80960  0.50000  Biso   1.000  O
  O55      1.0000 0.04020  0.78500  0.50000  Biso   1.000  O
  O56      1.0000 0.39010  0.75790  0.50000  Biso   1.000  O
  O57      1.0000 0.87440  0.70330  0.50000  Biso   1.000  O
  O58      1.0000 0.31140  0.61310  0.50000  Biso   1.000  O
  Zr9      1.0000 0.76875  0.78347  0.00000  Biso   1.000  Zr
  Zr10     1.0000 0.50340  0.81894  0.00000  Biso   1.000  Zr
  P19      1.0000 0.60890  0.65733  0.00000  Biso   1.000  P
  F5       1.0000 0.64320  0.83200  0.00000  Biso   1.000  F
  F6       1.0000 0.50020  0.92290  0.00000  Biso   1.000  F
  O59      1.0000 0.70020  0.69040  0.00000  Biso   1.000  O
  O60      1.0000 0.54020  0.71500  0.00000  Biso   1.000  O
  O61      1.0000 0.89010  0.74210  0.00000  Biso   1.000  O
  O62      1.0000 0.37440  0.79670  0.00000  Biso   1.000  O
  O63      1.0000 0.81140  0.88690  0.00000  Biso   1.000  O
  Zr11     1.0000 0.23125  0.21653  0.00000  Biso   1.000  Zr
  Zr12     1.0000 0.49660  0.18106  0.00000  Biso   1.000  Zr
  P20      1.0000 0.39110  0.34267  0.00000  Biso   1.000  P
  F7       1.0000 0.35680  0.16800  0.00000  Biso   1.000  F
  F8       1.0000 0.49980  0.07710  0.00000  Biso   1.000  F
  O64      1.0000 0.29980  0.30960  0.00000  Biso   1.000  O
  O65      1.0000 0.45980  0.28500  0.00000  Biso   1.000  O
  O66      1.0000 0.10990  0.25790  0.00000  Biso   1.000  O
  O67      1.0000 0.62560  0.20330  0.00000  Biso   1.000  O
  O68      1.0000 0.18860  0.11310  0.00000  Biso   1.000  O
