data_image0
_cell_length_a       12.2143
_cell_length_b       13.8051
_cell_length_c       16.5293
_cell_angle_alpha    90
_cell_angle_beta     90
_cell_angle_gamma    90

_symmetry_space_group_name_H-M    "P 1"
_symmetry_int_tables_number       1

loop_
  _symmetry_equiv_pos_as_xyz
  'x, y, z'

loop_
  _atom_site_label
  _atom_site_occupancy
  _atom_site_fract_x
  _atom_site_fract_y
  _atom_site_fract_z
  _atom_site_thermal_displace_type
  _atom_site_B_iso_or_equiv
  _atom_site_type_symbol
  N1       1.0000 0.93090  0.09150  0.58960  Biso   1.000  N
  N2       1.0000 0.86670  0.07250  0.65370  Biso   1.000  N
  N3       1.0000 0.95480  0.18490  0.58740  Biso   1.000  N
  C1       1.0000 0.85370  0.16040  0.68790  Biso   1.000  C
  N4       1.0000 0.90680  0.23010  0.64880  Biso   1.000  N
  N5       1.0000 0.67230  0.22150  0.90090  Biso   1.000  N
  C2       1.0000 0.79130  0.17870  0.76140  Biso   1.000  C
  C3       1.0000 0.75350  0.27250  0.77690  Biso   1.000  C
  C4       1.0000 0.76790  0.10850  0.81830  Biso   1.000  C
  C5       1.0000 0.69430  0.28990  0.84610  Biso   1.000  C
  H1       1.0000 0.76840  0.32360  0.73990  Biso   1.000  H
  H2       1.0000 0.79230  0.04380  0.81070  Biso   1.000  H
  C6       1.0000 0.70830  0.13340  0.88650  Biso   1.000  C
  H3       1.0000 0.66780  0.35360  0.85540  Biso   1.000  H
  H4       1.0000 0.69250  0.08410  0.92490  Biso   1.000  H
  N6       1.0000 0.31610  0.05410  0.48490  Biso   1.000  N
  N7       1.0000 0.06910  0.90850  0.58960  Biso   1.000  N
  N8       1.0000 0.13330  0.92750  0.65370  Biso   1.000  N
  N9       1.0000 0.04520  0.81510  0.58740  Biso   1.000  N
  C7       1.0000 0.14630  0.83960  0.68790  Biso   1.000  C
  N10      1.0000 0.09320  0.76990  0.64880  Biso   1.000  N
  N11      1.0000 0.32770  0.77850  0.90090  Biso   1.000  N
  C8       1.0000 0.20870  0.82130  0.76140  Biso   1.000  C
  C9       1.0000 0.24650  0.72750  0.77690  Biso   1.000  C
  C10      1.0000 0.23210  0.89150  0.81830  Biso   1.000  C
  C11      1.0000 0.30570  0.71010  0.84610  Biso   1.000  C
  H5       1.0000 0.23160  0.67640  0.73990  Biso   1.000  H
  H6       1.0000 0.20770  0.95620  0.81070  Biso   1.000  H
  C12      1.0000 0.29170  0.86660  0.88650  Biso   1.000  C
  H7       1.0000 0.33220  0.64640  0.85540  Biso   1.000  H
  H8       1.0000 0.30750  0.91590  0.92490  Biso   1.000  H
  N12      1.0000 0.68390  0.94590  0.48490  Biso   1.000  N
  N13      1.0000 0.56910  0.59150  0.91040  Biso   1.000  N
  N14      1.0000 0.63330  0.57250  0.84630  Biso   1.000  N
  N15      1.0000 0.54520  0.68490  0.91260  Biso   1.000  N
  C13      1.0000 0.64630  0.66040  0.81210  Biso   1.000  C
  N16      1.0000 0.59320  0.73010  0.85120  Biso   1.000  N
  N17      1.0000 0.82770  0.72150  0.59910  Biso   1.000  N
  C14      1.0000 0.70870  0.67870  0.73860  Biso   1.000  C
  C15      1.0000 0.74650  0.77250  0.72310  Biso   1.000  C
  C16      1.0000 0.73210  0.60850  0.68170  Biso   1.000  C
  C17      1.0000 0.80570  0.78990  0.65390  Biso   1.000  C
  H9       1.0000 0.73160  0.82360  0.76010  Biso   1.000  H
  H10      1.0000 0.70770  0.54380  0.68930  Biso   1.000  H
  C18      1.0000 0.79170  0.63340  0.61350  Biso   1.000  C
  H11      1.0000 0.83220  0.85360  0.64460  Biso   1.000  H
  H12      1.0000 0.80750  0.58410  0.57510  Biso   1.000  H
  N18      1.0000 0.18390  0.55410  0.01510  Biso   1.000  N
  N19      1.0000 0.43090  0.40850  0.91040  Biso   1.000  N
  N20      1.0000 0.36670  0.42750  0.84630  Biso   1.000  N
  N21      1.0000 0.45480  0.31510  0.91260  Biso   1.000  N
  C19      1.0000 0.35370  0.33960  0.81210  Biso   1.000  C
  N22      1.0000 0.40680  0.26990  0.85120  Biso   1.000  N
  N23      1.0000 0.17230  0.27850  0.59910  Biso   1.000  N
  C20      1.0000 0.29130  0.32130  0.73860  Biso   1.000  C
  C21      1.0000 0.25350  0.22750  0.72310  Biso   1.000  C
  C22      1.0000 0.26790  0.39150  0.68170  Biso   1.000  C
  C23      1.0000 0.19430  0.21010  0.65390  Biso   1.000  C
  H13      1.0000 0.26840  0.17640  0.76010  Biso   1.000  H
  H14      1.0000 0.29230  0.45620  0.68930  Biso   1.000  H
  C24      1.0000 0.20830  0.36660  0.61350  Biso   1.000  C
  H15      1.0000 0.16780  0.14640  0.64460  Biso   1.000  H
  H16      1.0000 0.19250  0.41590  0.57510  Biso   1.000  H
  N24      1.0000 0.81610  0.44590  0.01510  Biso   1.000  N
  N25      1.0000 0.06910  0.90850  0.41040  Biso   1.000  N
  N26      1.0000 0.13330  0.92750  0.34630  Biso   1.000  N
  N27      1.0000 0.04520  0.81510  0.41260  Biso   1.000  N
  C25      1.0000 0.14630  0.83960  0.31210  Biso   1.000  C
  N28      1.0000 0.09320  0.76990  0.35120  Biso   1.000  N
  N29      1.0000 0.32770  0.77850  0.09910  Biso   1.000  N
  C26      1.0000 0.20870  0.82130  0.23860  Biso   1.000  C
  C27      1.0000 0.24650  0.72750  0.22310  Biso   1.000  C
  C28      1.0000 0.23210  0.89150  0.18170  Biso   1.000  C
  C29      1.0000 0.30570  0.71010  0.15390  Biso   1.000  C
  H17      1.0000 0.23160  0.67640  0.26010  Biso   1.000  H
  H18      1.0000 0.20770  0.95620  0.18930  Biso   1.000  H
  C30      1.0000 0.29170  0.86660  0.11350  Biso   1.000  C
  H19      1.0000 0.33220  0.64640  0.14460  Biso   1.000  H
  H20      1.0000 0.30750  0.91590  0.07510  Biso   1.000  H
  N30      1.0000 0.68390  0.94590  0.51510  Biso   1.000  N
  N31      1.0000 0.93090  0.09150  0.41040  Biso   1.000  N
  N32      1.0000 0.86670  0.07250  0.34630  Biso   1.000  N
  N33      1.0000 0.95480  0.18490  0.41260  Biso   1.000  N
  C31      1.0000 0.85370  0.16040  0.31210  Biso   1.000  C
  N34      1.0000 0.90680  0.23010  0.35120  Biso   1.000  N
  N35      1.0000 0.67230  0.22150  0.09910  Biso   1.000  N
  C32      1.0000 0.79130  0.17870  0.23860  Biso   1.000  C
  C33      1.0000 0.75350  0.27250  0.22310  Biso   1.000  C
  C34      1.0000 0.76790  0.10850  0.18170  Biso   1.000  C
  C35      1.0000 0.69430  0.28990  0.15390  Biso   1.000  C
  H21      1.0000 0.76840  0.32360  0.26010  Biso   1.000  H
  H22      1.0000 0.79230  0.04380  0.18930  Biso   1.000  H
  C36      1.0000 0.70830  0.13340  0.11350  Biso   1.000  C
  H23      1.0000 0.66780  0.35360  0.14460  Biso   1.000  H
  H24      1.0000 0.69250  0.08410  0.07510  Biso   1.000  H
  N36      1.0000 0.31610  0.05410  0.51510  Biso   1.000  N
  N37      1.0000 0.43090  0.40850  0.08960  Biso   1.000  N
  N38      1.0000 0.36670  0.42750  0.15370  Biso   1.000  N
  N39      1.0000 0.45480  0.31510  0.08740  Biso   1.000  N
  C37      1.0000 0.35370  0.33960  0.18790  Biso   1.000  C
  N40      1.0000 0.40680  0.26990  0.14880  Biso   1.000  N
  N41      1.0000 0.17230  0.27850  0.40090  Biso   1.000  N
  C38      1.0000 0.29130  0.32130  0.26140  Biso   1.000  C
  C39      1.0000 0.25350  0.22750  0.27690  Biso   1.000  C
  C40      1.0000 0.26790  0.39150  0.31830  Biso   1.000  C
  C41      1.0000 0.19430  0.21010  0.34610  Biso   1.000  C
  H25      1.0000 0.26840  0.17640  0.23990  Biso   1.000  H
  H26      1.0000 0.29230  0.45620  0.31070  Biso   1.000  H
  C42      1.0000 0.20830  0.36660  0.38650  Biso   1.000  C
  H27      1.0000 0.16780  0.14640  0.35540  Biso   1.000  H
  H28      1.0000 0.19250  0.41590  0.42490  Biso   1.000  H
  N42      1.0000 0.81610  0.44590  0.98490  Biso   1.000  N
  N43      1.0000 0.56910  0.59150  0.08960  Biso   1.000  N
  N44      1.0000 0.63330  0.57250  0.15370  Biso   1.000  N
  N45      1.0000 0.54520  0.68490  0.08740  Biso   1.000  N
  C43      1.0000 0.64630  0.66040  0.18790  Biso   1.000  C
  N46      1.0000 0.59320  0.73010  0.14880  Biso   1.000  N
  N47      1.0000 0.82770  0.72150  0.40090  Biso   1.000  N
  C44      1.0000 0.70870  0.67870  0.26140  Biso   1.000  C
  C45      1.0000 0.74650  0.77250  0.27690  Biso   1.000  C
  C46      1.0000 0.73210  0.60850  0.31830  Biso   1.000  C
  C47      1.0000 0.80570  0.78990  0.34610  Biso   1.000  C
  H29      1.0000 0.73160  0.82360  0.23990  Biso   1.000  H
  H30      1.0000 0.70770  0.54380  0.31070  Biso   1.000  H
  C48      1.0000 0.79170  0.63340  0.38650  Biso   1.000  C
  H31      1.0000 0.83220  0.85360  0.35540  Biso   1.000  H
  H32      1.0000 0.80750  0.58410  0.42490  Biso   1.000  H
  N48      1.0000 0.18390  0.55410  0.98490  Biso   1.000  N
  Co1      1.0000 0.00000  0.00000  0.50000  Biso   1.000  Co
  Co2      1.0000 0.50000  0.50000  0.00000  Biso   1.000  Co
  N49      1.0000 0.13130  0.09540  0.50000  Biso   1.000  N
  Co3      1.0000 0.06725  0.23852  0.50000  Biso   1.000  Co
  N50      1.0000 0.22620  0.07310  0.50000  Biso   1.000  N
  N51      1.0000 0.86870  0.90460  0.50000  Biso   1.000  N
  Co4      1.0000 0.93275  0.76148  0.50000  Biso   1.000  Co
  N52      1.0000 0.77380  0.92690  0.50000  Biso   1.000  N
  N53      1.0000 0.36870  0.59540  0.00000  Biso   1.000  N
  Co5      1.0000 0.43275  0.73852  0.00000  Biso   1.000  Co
  N54      1.0000 0.27380  0.57310  0.00000  Biso   1.000  N
  N55      1.0000 0.63130  0.40460  0.00000  Biso   1.000  N
  Co6      1.0000 0.56725  0.26148  0.00000  Biso   1.000  Co
  N56      1.0000 0.72620  0.42690  0.00000  Biso   1.000  N
