data_image0
_cell_length_a       8.9042
_cell_length_b       12.7757
_cell_length_c       9.2004
_cell_angle_alpha    90
_cell_angle_beta     90
_cell_angle_gamma    90

_symmetry_space_group_name_H-M    "P 1"
_symmetry_int_tables_number       1

loop_
  _symmetry_equiv_pos_as_xyz
  'x, y, z'

loop_
  _atom_site_label
  _atom_site_occupancy
  _atom_site_fract_x
  _atom_site_fract_y
  _atom_site_fract_z
  _atom_site_thermal_displace_type
  _atom_site_B_iso_or_equiv
  _atom_site_type_symbol
  O1       1.0000 0.29857  0.95799  0.62533  Biso   1.000  O
  O2       1.0000 0.13555  0.95820  0.80773  Biso   1.000  O
  O3       1.0000 0.48286  0.16310  0.58086  Biso   1.000  O
  C1       1.0000 0.25585  0.98220  0.74934  Biso   1.000  C
  H1       1.0000 0.32140  0.02280  0.80430  Biso   1.000  H
  O4       1.0000 0.20143  0.04201  0.12533  Biso   1.000  O
  O5       1.0000 0.36445  0.04180  0.30773  Biso   1.000  O
  O6       1.0000 0.01714  0.83690  0.08086  Biso   1.000  O
  C2       1.0000 0.24415  0.01780  0.24934  Biso   1.000  C
  H2       1.0000 0.17860  0.97720  0.30430  Biso   1.000  H
  O7       1.0000 0.70143  0.45799  0.37467  Biso   1.000  O
  O8       1.0000 0.86445  0.45820  0.19227  Biso   1.000  O
  O9       1.0000 0.51714  0.66310  0.41914  Biso   1.000  O
  C3       1.0000 0.74415  0.48220  0.25066  Biso   1.000  C
  H3       1.0000 0.67860  0.52280  0.19570  Biso   1.000  H
  O10      1.0000 0.79857  0.54201  0.87467  Biso   1.000  O
  O11      1.0000 0.63555  0.54180  0.69227  Biso   1.000  O
  O12      1.0000 0.98286  0.33690  0.91914  Biso   1.000  O
  C4       1.0000 0.75585  0.51780  0.75066  Biso   1.000  C
  H4       1.0000 0.82140  0.47720  0.69570  Biso   1.000  H
  O13      1.0000 0.70143  0.04201  0.37467  Biso   1.000  O
  O14      1.0000 0.86445  0.04180  0.19227  Biso   1.000  O
  O15      1.0000 0.51714  0.83690  0.41914  Biso   1.000  O
  C5       1.0000 0.74415  0.01780  0.25066  Biso   1.000  C
  H5       1.0000 0.67860  0.97720  0.19570  Biso   1.000  H
  O16      1.0000 0.79857  0.95799  0.87467  Biso   1.000  O
  O17      1.0000 0.63555  0.95820  0.69227  Biso   1.000  O
  O18      1.0000 0.98286  0.16310  0.91914  Biso   1.000  O
  C6       1.0000 0.75585  0.98220  0.75066  Biso   1.000  C
  H6       1.0000 0.82140  0.02280  0.69570  Biso   1.000  H
  O19      1.0000 0.29857  0.54201  0.62533  Biso   1.000  O
  O20      1.0000 0.13555  0.54180  0.80773  Biso   1.000  O
  O21      1.0000 0.48286  0.33690  0.58086  Biso   1.000  O
  C7       1.0000 0.25585  0.51780  0.74934  Biso   1.000  C
  H7       1.0000 0.32140  0.47720  0.80430  Biso   1.000  H
  O22      1.0000 0.20143  0.45799  0.12533  Biso   1.000  O
  O23      1.0000 0.36445  0.45820  0.30773  Biso   1.000  O
  O24      1.0000 0.01714  0.66310  0.08086  Biso   1.000  O
  C8       1.0000 0.24415  0.48220  0.24934  Biso   1.000  C
  H8       1.0000 0.17860  0.52280  0.30430  Biso   1.000  H
  Mn1      1.0000 0.50000  0.00000  0.50000  Biso   1.000  Mn
  Mn2      1.0000 0.00000  0.00000  0.00000  Biso   1.000  Mn
  Mn3      1.0000 0.50000  0.50000  0.50000  Biso   1.000  Mn
  Mn4      1.0000 0.00000  0.50000  0.00000  Biso   1.000  Mn
  C9       1.0000 0.48910  0.25000  0.52470  Biso   1.000  C
  H9       1.0000 0.50030  0.25000  0.42420  Biso   1.000  H
  H10      1.0000 0.40980  0.25000  0.45250  Biso   1.000  H
  H11      1.0000 0.58250  0.25000  0.47050  Biso   1.000  H
  C10      1.0000 0.01090  0.75000  0.02470  Biso   1.000  C
  H12      1.0000 0.99970  0.75000  0.92420  Biso   1.000  H
  H13      1.0000 0.09020  0.75000  0.95250  Biso   1.000  H
  H14      1.0000 0.91750  0.75000  0.97050  Biso   1.000  H
  C11      1.0000 0.51090  0.75000  0.47530  Biso   1.000  C
  H15      1.0000 0.49970  0.75000  0.57580  Biso   1.000  H
  H16      1.0000 0.59020  0.75000  0.54750  Biso   1.000  H
  H17      1.0000 0.41750  0.75000  0.52950  Biso   1.000  H
  C12      1.0000 0.98910  0.25000  0.97530  Biso   1.000  C
  H18      1.0000 0.00030  0.25000  0.07580  Biso   1.000  H
  H19      1.0000 0.90980  0.25000  0.04750  Biso   1.000  H
  H20      1.0000 0.08250  0.25000  0.02950  Biso   1.000  H
