data_image0
_cell_length_a       19.65
_cell_length_b       19.65
_cell_length_c       7.656
_cell_angle_alpha    90
_cell_angle_beta     90
_cell_angle_gamma    120

_symmetry_space_group_name_H-M    "P 1"
_symmetry_int_tables_number       1

loop_
  _symmetry_equiv_pos_as_xyz
  'x, y, z'

loop_
  _atom_site_label
  _atom_site_occupancy
  _atom_site_fract_x
  _atom_site_fract_y
  _atom_site_fract_z
  _atom_site_thermal_displace_type
  _atom_site_B_iso_or_equiv
  _atom_site_type_symbol
  N1       1.0000 0.55490  0.29760  0.52480  Biso   1.000  N
  N2       1.0000 0.43680  0.23360  0.63820  Biso   1.000  N
  N3       1.0000 0.22990  0.09410  0.71700  Biso   1.000  N
  N4       1.0000 0.11180  0.03300  0.82700  Biso   1.000  N
  N5       1.0000 0.62890  0.40850  0.17840  Biso   1.000  N
  N6       1.0000 0.57180  0.47430  0.09170  Biso   1.000  N
  C1       1.0000 0.48770  0.23240  0.51950  Biso   1.000  C
  H1       1.0000 0.47620  0.19060  0.44490  Biso   1.000  H
  C2       1.0000 0.54670  0.34050  0.65390  Biso   1.000  C
  H2       1.0000 0.58590  0.39020  0.68860  Biso   1.000  H
  C3       1.0000 0.47460  0.30200  0.72450  Biso   1.000  C
  H3       1.0000 0.45500  0.31910  0.81450  Biso   1.000  H
  C4       1.0000 0.19030  0.02590  0.62830  Biso   1.000  C
  H4       1.0000 0.20900  0.00800  0.53810  Biso   1.000  H
  C5       1.0000 0.11800  0.98950  0.69870  Biso   1.000  C
  H5       1.0000 0.07740  0.94060  0.66340  Biso   1.000  H
  C6       1.0000 0.17910  0.09520  0.83420  Biso   1.000  C
  H6       1.0000 0.19170  0.13650  0.91120  Biso   1.000  H
  C7       1.0000 0.56690  0.41640  0.19510  Biso   1.000  C
  H7       1.0000 0.52480  0.38600  0.26880  Biso   1.000  H
  C8       1.0000 0.67510  0.46220  0.05440  Biso   1.000  C
  H8       1.0000 0.72320  0.46990  0.01490  Biso   1.000  H
  C9       1.0000 0.64010  0.50220  0.99870  Biso   1.000  C
  H9       1.0000 0.65870  0.54120  0.91350  Biso   1.000  H
  C10      1.0000 0.51760  0.50450  0.08860  Biso   1.000  C
  H10      1.0000 0.54540  0.55960  0.12090  Biso   1.000  H
  H11      1.0000 0.47620  0.47630  0.17350  Biso   1.000  H
  C11      1.0000 0.31950  0.13280  0.74220  Biso   1.000  C
  H12      1.0000 0.33540  0.15530  0.85790  Biso   1.000  H
  H13      1.0000 0.33770  0.09590  0.72170  Biso   1.000  H
  C12      1.0000 0.34760  0.19390  0.60680  Biso   1.000  C
  H14      1.0000 0.32820  0.23000  0.62510  Biso   1.000  H
  H15      1.0000 0.33330  0.17140  0.49060  Biso   1.000  H
  C13      1.0000 0.29950  0.16730  0.64220  Biso   1.000  C
  H16      1.0000 0.29800  0.16740  0.51550  Biso   1.000  H
  H17      1.0000 0.30150  0.21460  0.68580  Biso   1.000  H
  C14      1.0000 0.36760  0.15990  0.70850  Biso   1.000  C
  H18      1.0000 0.36830  0.15850  0.83510  Biso   1.000  H
  H19      1.0000 0.36620  0.11320  0.66270  Biso   1.000  H
  N7       1.0000 0.70240  0.25730  0.52480  Biso   1.000  N
  N8       1.0000 0.76640  0.20320  0.63820  Biso   1.000  N
  N9       1.0000 0.90590  0.13580  0.71700  Biso   1.000  N
  N10      1.0000 0.96700  0.07880  0.82700  Biso   1.000  N
  N11      1.0000 0.59150  0.22040  0.17840  Biso   1.000  N
  N12      1.0000 0.52570  0.09750  0.09170  Biso   1.000  N
  C15      1.0000 0.76760  0.25530  0.51950  Biso   1.000  C
  H20      1.0000 0.80940  0.28560  0.44490  Biso   1.000  H
  C16      1.0000 0.65950  0.20620  0.65390  Biso   1.000  C
  H21      1.0000 0.60980  0.19570  0.68860  Biso   1.000  H
  C17      1.0000 0.69800  0.17260  0.72450  Biso   1.000  C
  H22      1.0000 0.68090  0.13590  0.81450  Biso   1.000  H
  C18      1.0000 0.97410  0.16440  0.62830  Biso   1.000  C
  H23      1.0000 0.99200  0.20100  0.53810  Biso   1.000  H
  C19      1.0000 0.01050  0.12850  0.69870  Biso   1.000  C
  H24      1.0000 0.05940  0.13680  0.66340  Biso   1.000  H
  C20      1.0000 0.90480  0.08390  0.83420  Biso   1.000  C
  H25      1.0000 0.86350  0.05520  0.91120  Biso   1.000  H
  C21      1.0000 0.58360  0.15050  0.19510  Biso   1.000  C
  H26      1.0000 0.61400  0.13880  0.26880  Biso   1.000  H
  C22      1.0000 0.53780  0.21290  0.05440  Biso   1.000  C
  H27      1.0000 0.53010  0.25330  0.01490  Biso   1.000  H
  C23      1.0000 0.49780  0.13790  0.99870  Biso   1.000  C
  H28      1.0000 0.45880  0.11750  0.91350  Biso   1.000  H
  C24      1.0000 0.49550  0.01310  0.08860  Biso   1.000  C
  H29      1.0000 0.44040  0.98580  0.12090  Biso   1.000  H
  H30      1.0000 0.52370  0.99990  0.17350  Biso   1.000  H
  C25      1.0000 0.86720  0.18670  0.74220  Biso   1.000  C
  H31      1.0000 0.84470  0.18010  0.85790  Biso   1.000  H
  H32      1.0000 0.90410  0.24180  0.72170  Biso   1.000  H
  C26      1.0000 0.80610  0.15370  0.60680  Biso   1.000  C
  H33      1.0000 0.77000  0.09820  0.62510  Biso   1.000  H
  H34      1.0000 0.82860  0.16190  0.49060  Biso   1.000  H
  C27      1.0000 0.83270  0.13220  0.64220  Biso   1.000  C
  H35      1.0000 0.83260  0.13060  0.51550  Biso   1.000  H
  H36      1.0000 0.78540  0.08690  0.68580  Biso   1.000  H
  C28      1.0000 0.84010  0.20770  0.70850  Biso   1.000  C
  H37      1.0000 0.84150  0.20980  0.83510  Biso   1.000  H
  H38      1.0000 0.88680  0.25300  0.66270  Biso   1.000  H
  N13      1.0000 0.74270  0.44510  0.52480  Biso   1.000  N
  N14      1.0000 0.79680  0.56320  0.63820  Biso   1.000  N
  N15      1.0000 0.86420  0.77010  0.71700  Biso   1.000  N
  N16      1.0000 0.92120  0.88820  0.82700  Biso   1.000  N
  N17      1.0000 0.77960  0.37110  0.17840  Biso   1.000  N
  N18      1.0000 0.90250  0.42820  0.09170  Biso   1.000  N
  C29      1.0000 0.74470  0.51230  0.51950  Biso   1.000  C
  H39      1.0000 0.71440  0.52380  0.44490  Biso   1.000  H
  C30      1.0000 0.79380  0.45330  0.65390  Biso   1.000  C
  H40      1.0000 0.80430  0.41410  0.68860  Biso   1.000  H
  C31      1.0000 0.82740  0.52540  0.72450  Biso   1.000  C
  H41      1.0000 0.86410  0.54500  0.81450  Biso   1.000  H
  C32      1.0000 0.83560  0.80970  0.62830  Biso   1.000  C
  H42      1.0000 0.79900  0.79100  0.53810  Biso   1.000  H
  C33      1.0000 0.87150  0.88200  0.69870  Biso   1.000  C
  H43      1.0000 0.86320  0.92260  0.66340  Biso   1.000  H
  C34      1.0000 0.91610  0.82090  0.83420  Biso   1.000  C
  H44      1.0000 0.94480  0.80830  0.91120  Biso   1.000  H
  C35      1.0000 0.84950  0.43310  0.19510  Biso   1.000  C
  H45      1.0000 0.86120  0.47520  0.26880  Biso   1.000  H
  C36      1.0000 0.78710  0.32490  0.05440  Biso   1.000  C
  H46      1.0000 0.74670  0.27680  0.01490  Biso   1.000  H
  C37      1.0000 0.86210  0.35990  0.99870  Biso   1.000  C
  H47      1.0000 0.88250  0.34130  0.91350  Biso   1.000  H
  C38      1.0000 0.98690  0.48240  0.08860  Biso   1.000  C
  H48      1.0000 0.01420  0.45460  0.12090  Biso   1.000  H
  H49      1.0000 0.00010  0.52380  0.17350  Biso   1.000  H
  C39      1.0000 0.81330  0.68050  0.74220  Biso   1.000  C
  H50      1.0000 0.81990  0.66460  0.85790  Biso   1.000  H
  H51      1.0000 0.75820  0.66230  0.72170  Biso   1.000  H
  C40      1.0000 0.84630  0.65240  0.60680  Biso   1.000  C
  H52      1.0000 0.90180  0.67180  0.62510  Biso   1.000  H
  H53      1.0000 0.83810  0.66670  0.49060  Biso   1.000  H
  C41      1.0000 0.86780  0.70050  0.64220  Biso   1.000  C
  H54      1.0000 0.86940  0.70200  0.51550  Biso   1.000  H
  H55      1.0000 0.91310  0.69850  0.68580  Biso   1.000  H
  C42      1.0000 0.79230  0.63240  0.70850  Biso   1.000  C
  H56      1.0000 0.79020  0.63170  0.83510  Biso   1.000  H
  H57      1.0000 0.74700  0.63380  0.66270  Biso   1.000  H
  N19      1.0000 0.44510  0.70240  0.47520  Biso   1.000  N
  N20      1.0000 0.56320  0.76640  0.36180  Biso   1.000  N
  N21      1.0000 0.77010  0.90590  0.28300  Biso   1.000  N
  N22      1.0000 0.88820  0.96700  0.17300  Biso   1.000  N
  N23      1.0000 0.37110  0.59150  0.82160  Biso   1.000  N
  N24      1.0000 0.42820  0.52570  0.90830  Biso   1.000  N
  C43      1.0000 0.51230  0.76760  0.48050  Biso   1.000  C
  H58      1.0000 0.52380  0.80940  0.55510  Biso   1.000  H
  C44      1.0000 0.45330  0.65950  0.34610  Biso   1.000  C
  H59      1.0000 0.41410  0.60980  0.31140  Biso   1.000  H
  C45      1.0000 0.52540  0.69800  0.27550  Biso   1.000  C
  H60      1.0000 0.54500  0.68090  0.18550  Biso   1.000  H
  C46      1.0000 0.80970  0.97410  0.37170  Biso   1.000  C
  H61      1.0000 0.79100  0.99200  0.46190  Biso   1.000  H
  C47      1.0000 0.88200  0.01050  0.30130  Biso   1.000  C
  H62      1.0000 0.92260  0.05940  0.33660  Biso   1.000  H
  C48      1.0000 0.82090  0.90480  0.16580  Biso   1.000  C
  H63      1.0000 0.80830  0.86350  0.08880  Biso   1.000  H
  C49      1.0000 0.43310  0.58360  0.80490  Biso   1.000  C
  H64      1.0000 0.47520  0.61400  0.73120  Biso   1.000  H
  C50      1.0000 0.32490  0.53780  0.94560  Biso   1.000  C
  H65      1.0000 0.27680  0.53010  0.98510  Biso   1.000  H
  C51      1.0000 0.35990  0.49780  0.00130  Biso   1.000  C
  H66      1.0000 0.34130  0.45880  0.08650  Biso   1.000  H
  C52      1.0000 0.48240  0.49550  0.91140  Biso   1.000  C
  H67      1.0000 0.45460  0.44040  0.87910  Biso   1.000  H
  H68      1.0000 0.52380  0.52370  0.82650  Biso   1.000  H
  C53      1.0000 0.68050  0.86720  0.25780  Biso   1.000  C
  H69      1.0000 0.66460  0.84470  0.14210  Biso   1.000  H
  H70      1.0000 0.66230  0.90410  0.27830  Biso   1.000  H
  C54      1.0000 0.65240  0.80610  0.39320  Biso   1.000  C
  H71      1.0000 0.67180  0.77000  0.37490  Biso   1.000  H
  H72      1.0000 0.66670  0.82860  0.50940  Biso   1.000  H
  C55      1.0000 0.70050  0.83270  0.35780  Biso   1.000  C
  H73      1.0000 0.70200  0.83260  0.48450  Biso   1.000  H
  H74      1.0000 0.69850  0.78540  0.31420  Biso   1.000  H
  C56      1.0000 0.63240  0.84010  0.29150  Biso   1.000  C
  H75      1.0000 0.63170  0.84150  0.16490  Biso   1.000  H
  H76      1.0000 0.63380  0.88680  0.33730  Biso   1.000  H
  N25      1.0000 0.29760  0.74270  0.47520  Biso   1.000  N
  N26      1.0000 0.23360  0.79680  0.36180  Biso   1.000  N
  N27      1.0000 0.09410  0.86420  0.28300  Biso   1.000  N
  N28      1.0000 0.03300  0.92120  0.17300  Biso   1.000  N
  N29      1.0000 0.40850  0.77960  0.82160  Biso   1.000  N
  N30      1.0000 0.47430  0.90250  0.90830  Biso   1.000  N
  C57      1.0000 0.23240  0.74470  0.48050  Biso   1.000  C
  H77      1.0000 0.19060  0.71440  0.55510  Biso   1.000  H
  C58      1.0000 0.34050  0.79380  0.34610  Biso   1.000  C
  H78      1.0000 0.39020  0.80430  0.31140  Biso   1.000  H
  C59      1.0000 0.30200  0.82740  0.27550  Biso   1.000  C
  H79      1.0000 0.31910  0.86410  0.18550  Biso   1.000  H
  C60      1.0000 0.02590  0.83560  0.37170  Biso   1.000  C
  H80      1.0000 0.00800  0.79900  0.46190  Biso   1.000  H
  C61      1.0000 0.98950  0.87150  0.30130  Biso   1.000  C
  H81      1.0000 0.94060  0.86320  0.33660  Biso   1.000  H
  C62      1.0000 0.09520  0.91610  0.16580  Biso   1.000  C
  H82      1.0000 0.13650  0.94480  0.08880  Biso   1.000  H
  C63      1.0000 0.41640  0.84950  0.80490  Biso   1.000  C
  H83      1.0000 0.38600  0.86120  0.73120  Biso   1.000  H
  C64      1.0000 0.46220  0.78710  0.94560  Biso   1.000  C
  H84      1.0000 0.46990  0.74670  0.98510  Biso   1.000  H
  C65      1.0000 0.50220  0.86210  0.00130  Biso   1.000  C
  H85      1.0000 0.54120  0.88250  0.08650  Biso   1.000  H
  C66      1.0000 0.50450  0.98690  0.91140  Biso   1.000  C
  H86      1.0000 0.55960  0.01420  0.87910  Biso   1.000  H
  H87      1.0000 0.47630  0.00010  0.82650  Biso   1.000  H
  C67      1.0000 0.13280  0.81330  0.25780  Biso   1.000  C
  H88      1.0000 0.15530  0.81990  0.14210  Biso   1.000  H
  H89      1.0000 0.09590  0.75820  0.27830  Biso   1.000  H
  C68      1.0000 0.19390  0.84630  0.39320  Biso   1.000  C
  H90      1.0000 0.23000  0.90180  0.37490  Biso   1.000  H
  H91      1.0000 0.17140  0.83810  0.50940  Biso   1.000  H
  C69      1.0000 0.16730  0.86780  0.35780  Biso   1.000  C
  H92      1.0000 0.16740  0.86940  0.48450  Biso   1.000  H
  H93      1.0000 0.21460  0.91310  0.31420  Biso   1.000  H
  C70      1.0000 0.15990  0.79230  0.29150  Biso   1.000  C
  H94      1.0000 0.15850  0.79020  0.16490  Biso   1.000  H
  H95      1.0000 0.11320  0.74700  0.33730  Biso   1.000  H
  N31      1.0000 0.25730  0.55490  0.47520  Biso   1.000  N
  N32      1.0000 0.20320  0.43680  0.36180  Biso   1.000  N
  N33      1.0000 0.13580  0.22990  0.28300  Biso   1.000  N
  N34      1.0000 0.07880  0.11180  0.17300  Biso   1.000  N
  N35      1.0000 0.22040  0.62890  0.82160  Biso   1.000  N
  N36      1.0000 0.09750  0.57180  0.90830  Biso   1.000  N
  C71      1.0000 0.25530  0.48770  0.48050  Biso   1.000  C
  H96      1.0000 0.28560  0.47620  0.55510  Biso   1.000  H
  C72      1.0000 0.20620  0.54670  0.34610  Biso   1.000  C
  H97      1.0000 0.19570  0.58590  0.31140  Biso   1.000  H
  C73      1.0000 0.17260  0.47460  0.27550  Biso   1.000  C
  H98      1.0000 0.13590  0.45500  0.18550  Biso   1.000  H
  C74      1.0000 0.16440  0.19030  0.37170  Biso   1.000  C
  H99      1.0000 0.20100  0.20900  0.46190  Biso   1.000  H
  C75      1.0000 0.12850  0.11800  0.30130  Biso   1.000  C
  H100     1.0000 0.13680  0.07740  0.33660  Biso   1.000  H
  C76      1.0000 0.08390  0.17910  0.16580  Biso   1.000  C
  H101     1.0000 0.05520  0.19170  0.08880  Biso   1.000  H
  C77      1.0000 0.15050  0.56690  0.80490  Biso   1.000  C
  H102     1.0000 0.13880  0.52480  0.73120  Biso   1.000  H
  C78      1.0000 0.21290  0.67510  0.94560  Biso   1.000  C
  H103     1.0000 0.25330  0.72320  0.98510  Biso   1.000  H
  C79      1.0000 0.13790  0.64010  0.00130  Biso   1.000  C
  H104     1.0000 0.11750  0.65870  0.08650  Biso   1.000  H
  C80      1.0000 0.01310  0.51760  0.91140  Biso   1.000  C
  H105     1.0000 0.98580  0.54540  0.87910  Biso   1.000  H
  H106     1.0000 0.99990  0.47620  0.82650  Biso   1.000  H
  C81      1.0000 0.18670  0.31950  0.25780  Biso   1.000  C
  H107     1.0000 0.18010  0.33540  0.14210  Biso   1.000  H
  H108     1.0000 0.24180  0.33770  0.27830  Biso   1.000  H
  C82      1.0000 0.15370  0.34760  0.39320  Biso   1.000  C
  H109     1.0000 0.09820  0.32820  0.37490  Biso   1.000  H
  H110     1.0000 0.16190  0.33330  0.50940  Biso   1.000  H
  C83      1.0000 0.13220  0.29950  0.35780  Biso   1.000  C
  H111     1.0000 0.13060  0.29800  0.48450  Biso   1.000  H
  H112     1.0000 0.08690  0.30150  0.31420  Biso   1.000  H
  C84      1.0000 0.20770  0.36760  0.29150  Biso   1.000  C
  H113     1.0000 0.20980  0.36830  0.16490  Biso   1.000  H
  H114     1.0000 0.25300  0.36620  0.33730  Biso   1.000  H
  Cd1      1.0000 0.66667  0.33333  0.35049  Biso   1.000  Cd
  Cd2      1.0000 0.33333  0.66667  0.64951  Biso   1.000  Cd
  Cd3      1.0000 0.00000  0.00000  0.00000  Biso   1.000  Cd
