data_image0
_cell_length_a       12.085
_cell_length_b       19.169
_cell_length_c       24.119
_cell_angle_alpha    90
_cell_angle_beta     90.341
_cell_angle_gamma    90

_symmetry_space_group_name_H-M    "P 1"
_symmetry_int_tables_number       1

loop_
  _symmetry_equiv_pos_as_xyz
  'x, y, z'

loop_
  _atom_site_label
  _atom_site_occupancy
  _atom_site_fract_x
  _atom_site_fract_y
  _atom_site_fract_z
  _atom_site_thermal_displace_type
  _atom_site_B_iso_or_equiv
  _atom_site_type_symbol
  Cd1      1.0000 0.00259  0.56754  0.73739  Biso   1.000  Cd
  Cd2      1.0000 0.00493  0.86420  0.39959  Biso   1.000  Cd
  Ru1      1.0000 0.49764  0.83061  0.64318  Biso   1.000  Ru
  O1       1.0000 0.15130  0.63860  0.69380  Biso   1.000  O
  O2       1.0000 0.09820  0.66080  0.78030  Biso   1.000  O
  O3       1.0000 0.89200  0.97410  0.80260  Biso   1.000  O
  O4       1.0000 0.84760  0.00360  0.71760  Biso   1.000  O
  O5       1.0000 0.13380  0.87180  0.49650  Biso   1.000  O
  O6       1.0000 0.15140  0.79960  0.42920  Biso   1.000  O
  O7       1.0000 0.84120  0.66270  0.72890  Biso   1.000  O
  O8       1.0000 0.89200  0.58900  0.66270  Biso   1.000  O
  O9       1.0000 0.14570  0.98670  0.73890  Biso   1.000  O
  O10      1.0000 0.09840  0.06620  0.67710  Biso   1.000  O
  O11      1.0000 0.85500  0.81120  0.49450  Biso   1.000  O
  O12      1.0000 0.88150  0.91340  0.45800  Biso   1.000  O
  O13      1.0000 0.09740  0.96940  0.39530  Biso   1.000  O
  N1       1.0000 0.40480  0.78760  0.70630  Biso   1.000  N
  N2       1.0000 0.58320  0.86530  0.71310  Biso   1.000  N
  N3       1.0000 0.40900  0.78720  0.57850  Biso   1.000  N
  N4       1.0000 0.58230  0.73840  0.63130  Biso   1.000  N
  N5       1.0000 0.41360  0.92470  0.64230  Biso   1.000  N
  N6       1.0000 0.59040  0.88550  0.58690  Biso   1.000  N
  C1       1.0000 0.31630  0.74390  0.70110  Biso   1.000  C
  C2       1.0000 0.25410  0.72290  0.74620  Biso   1.000  C
  C3       1.0000 0.27840  0.74840  0.79870  Biso   1.000  C
  C4       1.0000 0.36940  0.79150  0.80470  Biso   1.000  C
  C5       1.0000 0.43280  0.80860  0.75860  Biso   1.000  C
  C6       1.0000 0.53510  0.84920  0.76240  Biso   1.000  C
  C7       1.0000 0.58260  0.87000  0.81270  Biso   1.000  C
  C8       1.0000 0.68010  0.90670  0.81330  Biso   1.000  C
  C9       1.0000 0.72930  0.92450  0.76270  Biso   1.000  C
  C10      1.0000 0.67710  0.90240  0.71410  Biso   1.000  C
  C11      1.0000 0.15970  0.67020  0.73840  Biso   1.000  C
  C12      1.0000 0.83120  0.97000  0.76040  Biso   1.000  C
  C13      1.0000 0.32110  0.81560  0.55170  Biso   1.000  C
  C14      1.0000 0.27130  0.78510  0.50580  Biso   1.000  C
  C15      1.0000 0.31040  0.72130  0.48650  Biso   1.000  C
  C16      1.0000 0.39960  0.69050  0.51490  Biso   1.000  C
  C17      1.0000 0.44770  0.72390  0.55960  Biso   1.000  C
  C18      1.0000 0.54480  0.69790  0.58950  Biso   1.000  C
  C19      1.0000 0.59590  0.63510  0.57600  Biso   1.000  C
  C20      1.0000 0.69010  0.61410  0.60540  Biso   1.000  C
  C21      1.0000 0.72880  0.65600  0.64790  Biso   1.000  C
  C22      1.0000 0.67210  0.71760  0.66010  Biso   1.000  C
  C23      1.0000 0.17670  0.82260  0.47600  Biso   1.000  C
  C24      1.0000 0.82900  0.63530  0.68260  Biso   1.000  C
  C25      1.0000 0.31950  0.94000  0.66910  Biso   1.000  C
  C26      1.0000 0.26620  0.00440  0.66370  Biso   1.000  C
  C27      1.0000 0.31280  0.05520  0.62980  Biso   1.000  C
  C28      1.0000 0.41120  0.04030  0.60290  Biso   1.000  C
  C29      1.0000 0.45970  0.97540  0.60950  Biso   1.000  C
  C30      1.0000 0.56010  0.95410  0.57950  Biso   1.000  C
  C31      1.0000 0.62030  0.99900  0.54520  Biso   1.000  C
  C32      1.0000 0.70990  0.97370  0.51700  Biso   1.000  C
  C33      1.0000 0.73930  0.90350  0.52260  Biso   1.000  C
  C34      1.0000 0.67830  0.86240  0.55770  Biso   1.000  C
  C35      1.0000 0.16130  0.01850  0.69630  Biso   1.000  C
  C36      1.0000 0.83440  0.87320  0.49010  Biso   1.000  C
  H1       1.0000 0.29660  0.72730  0.66520  Biso   1.000  H
  H2       1.0000 0.23380  0.73660  0.82970  Biso   1.000  H
  H3       1.0000 0.38870  0.80950  0.84010  Biso   1.000  H
  H4       1.0000 0.54720  0.85880  0.84670  Biso   1.000  H
  H5       1.0000 0.71380  0.91980  0.84740  Biso   1.000  H
  H6       1.0000 0.71010  0.91430  0.67970  Biso   1.000  H
  H7       1.0000 0.29210  0.85850  0.56510  Biso   1.000  H
  H8       1.0000 0.27770  0.69930  0.45510  Biso   1.000  H
  H9       1.0000 0.42710  0.64640  0.50320  Biso   1.000  H
  H10      1.0000 0.56700  0.60690  0.54700  Biso   1.000  H
  H11      1.0000 0.72680  0.57180  0.59640  Biso   1.000  H
  H12      1.0000 0.69800  0.74590  0.68980  Biso   1.000  H
  H13      1.0000 0.28790  0.90580  0.69270  Biso   1.000  H
  H14      1.0000 0.27790  0.09930  0.62520  Biso   1.000  H
  H15      1.0000 0.44520  0.07450  0.58010  Biso   1.000  H
  H16      1.0000 0.59920  0.04650  0.54150  Biso   1.000  H
  H17      1.0000 0.75180  0.00370  0.49380  Biso   1.000  H
  H18      1.0000 0.69920  0.81490  0.56180  Biso   1.000  H
  Cd3      1.0000 0.01130  0.88760  0.40963  Biso   1.000  Cd
  Cd4      1.0000 0.99507  0.36420  0.10041  Biso   1.000  Cd
  Ru2      1.0000 0.50236  0.33061  0.85682  Biso   1.000  Ru
  O14      1.0000 0.84870  0.13860  0.80620  Biso   1.000  O
  O15      1.0000 0.90180  0.16080  0.71970  Biso   1.000  O
  O16      1.0000 0.10800  0.47410  0.69740  Biso   1.000  O
  O17      1.0000 0.15240  0.50360  0.78240  Biso   1.000  O
  O18      1.0000 0.86620  0.37180  0.00350  Biso   1.000  O
  O19      1.0000 0.84860  0.29960  0.07080  Biso   1.000  O
  O20      1.0000 0.15880  0.16270  0.77110  Biso   1.000  O
  O21      1.0000 0.10800  0.08900  0.83730  Biso   1.000  O
  O22      1.0000 0.85430  0.48670  0.76110  Biso   1.000  O
  O23      1.0000 0.90160  0.56620  0.82290  Biso   1.000  O
  O24      1.0000 0.14500  0.31120  0.00550  Biso   1.000  O
  O25      1.0000 0.11850  0.41340  0.04200  Biso   1.000  O
  O26      1.0000 0.90260  0.46940  0.10470  Biso   1.000  O
  N7       1.0000 0.59520  0.28760  0.79370  Biso   1.000  N
  N8       1.0000 0.41680  0.36530  0.78690  Biso   1.000  N
  N9       1.0000 0.59100  0.28720  0.92150  Biso   1.000  N
  N10      1.0000 0.41770  0.23840  0.86870  Biso   1.000  N
  N11      1.0000 0.58640  0.42470  0.85770  Biso   1.000  N
  N12      1.0000 0.40960  0.38550  0.91310  Biso   1.000  N
  C37      1.0000 0.68370  0.24390  0.79890  Biso   1.000  C
  C38      1.0000 0.74590  0.22290  0.75380  Biso   1.000  C
  C39      1.0000 0.72160  0.24840  0.70130  Biso   1.000  C
  C40      1.0000 0.63060  0.29150  0.69530  Biso   1.000  C
  C41      1.0000 0.56720  0.30860  0.74140  Biso   1.000  C
  C42      1.0000 0.46490  0.34920  0.73760  Biso   1.000  C
  C43      1.0000 0.41740  0.37000  0.68730  Biso   1.000  C
  C44      1.0000 0.31990  0.40670  0.68670  Biso   1.000  C
  C45      1.0000 0.27070  0.42450  0.73730  Biso   1.000  C
  C46      1.0000 0.32290  0.40240  0.78590  Biso   1.000  C
  C47      1.0000 0.84030  0.17020  0.76160  Biso   1.000  C
  C48      1.0000 0.16880  0.47000  0.73960  Biso   1.000  C
  C49      1.0000 0.67890  0.31560  0.94830  Biso   1.000  C
  C50      1.0000 0.72870  0.28510  0.99420  Biso   1.000  C
  C51      1.0000 0.68960  0.22130  0.01350  Biso   1.000  C
  C52      1.0000 0.60040  0.19050  0.98510  Biso   1.000  C
  C53      1.0000 0.55230  0.22390  0.94040  Biso   1.000  C
  C54      1.0000 0.45520  0.19790  0.91050  Biso   1.000  C
  C55      1.0000 0.40410  0.13510  0.92400  Biso   1.000  C
  C56      1.0000 0.30990  0.11410  0.89460  Biso   1.000  C
  C57      1.0000 0.27120  0.15600  0.85210  Biso   1.000  C
  C58      1.0000 0.32790  0.21760  0.83990  Biso   1.000  C
  C59      1.0000 0.82330  0.32260  0.02400  Biso   1.000  C
  C60      1.0000 0.17100  0.13530  0.81740  Biso   1.000  C
  C61      1.0000 0.68050  0.44000  0.83090  Biso   1.000  C
  C62      1.0000 0.73380  0.50440  0.83630  Biso   1.000  C
  C63      1.0000 0.68720  0.55520  0.87020  Biso   1.000  C
  C64      1.0000 0.58880  0.54030  0.89710  Biso   1.000  C
  C65      1.0000 0.54030  0.47540  0.89050  Biso   1.000  C
  C66      1.0000 0.43990  0.45410  0.92050  Biso   1.000  C
  C67      1.0000 0.37970  0.49900  0.95480  Biso   1.000  C
  C68      1.0000 0.29010  0.47370  0.98300  Biso   1.000  C
  C69      1.0000 0.26070  0.40350  0.97740  Biso   1.000  C
  C70      1.0000 0.32170  0.36240  0.94230  Biso   1.000  C
  C71      1.0000 0.83870  0.51850  0.80370  Biso   1.000  C
  C72      1.0000 0.16560  0.37320  0.00990  Biso   1.000  C
  H19      1.0000 0.70340  0.22730  0.83480  Biso   1.000  H
  H20      1.0000 0.76620  0.23660  0.67030  Biso   1.000  H
  H21      1.0000 0.61130  0.30950  0.65990  Biso   1.000  H
  H22      1.0000 0.45280  0.35880  0.65330  Biso   1.000  H
  H23      1.0000 0.28620  0.41980  0.65260  Biso   1.000  H
  H24      1.0000 0.28990  0.41430  0.82030  Biso   1.000  H
  H25      1.0000 0.70790  0.35850  0.93490  Biso   1.000  H
  H26      1.0000 0.72230  0.19930  0.04490  Biso   1.000  H
  H27      1.0000 0.57290  0.14640  0.99680  Biso   1.000  H
  H28      1.0000 0.43300  0.10690  0.95300  Biso   1.000  H
  H29      1.0000 0.27320  0.07180  0.90360  Biso   1.000  H
  H30      1.0000 0.30200  0.24590  0.81020  Biso   1.000  H
  H31      1.0000 0.71210  0.40580  0.80730  Biso   1.000  H
  H32      1.0000 0.72210  0.59930  0.87480  Biso   1.000  H
  H33      1.0000 0.55480  0.57450  0.91990  Biso   1.000  H
  H34      1.0000 0.40080  0.54650  0.95850  Biso   1.000  H
  H35      1.0000 0.24820  0.50370  0.00620  Biso   1.000  H
  H36      1.0000 0.30080  0.31490  0.93820  Biso   1.000  H
  Cd5      1.0000 0.98870  0.38760  0.09037  Biso   1.000  Cd
  Cd6      1.0000 0.99741  0.06754  0.76261  Biso   1.000  Cd
  Cd7      1.0000 0.99741  0.43246  0.26261  Biso   1.000  Cd
  Cd8      1.0000 0.99507  0.13580  0.60041  Biso   1.000  Cd
  Ru3      1.0000 0.50236  0.16939  0.35682  Biso   1.000  Ru
  O27      1.0000 0.84870  0.36140  0.30620  Biso   1.000  O
  O28      1.0000 0.90180  0.33920  0.21970  Biso   1.000  O
  O29      1.0000 0.10800  0.02590  0.19740  Biso   1.000  O
  O30      1.0000 0.15240  0.99640  0.28240  Biso   1.000  O
  O31      1.0000 0.86620  0.12820  0.50350  Biso   1.000  O
  O32      1.0000 0.84860  0.20040  0.57080  Biso   1.000  O
  O33      1.0000 0.15880  0.33730  0.27110  Biso   1.000  O
  O34      1.0000 0.10800  0.41100  0.33730  Biso   1.000  O
  O35      1.0000 0.85430  0.01330  0.26110  Biso   1.000  O
  O36      1.0000 0.90160  0.93380  0.32290  Biso   1.000  O
  O37      1.0000 0.14500  0.18880  0.50550  Biso   1.000  O
  O38      1.0000 0.11850  0.08660  0.54200  Biso   1.000  O
  O39      1.0000 0.90260  0.03060  0.60470  Biso   1.000  O
  N13      1.0000 0.59520  0.21240  0.29370  Biso   1.000  N
  N14      1.0000 0.41680  0.13470  0.28690  Biso   1.000  N
  N15      1.0000 0.59100  0.21280  0.42150  Biso   1.000  N
  N16      1.0000 0.41770  0.26160  0.36870  Biso   1.000  N
  N17      1.0000 0.58640  0.07530  0.35770  Biso   1.000  N
  N18      1.0000 0.40960  0.11450  0.41310  Biso   1.000  N
  C73      1.0000 0.68370  0.25610  0.29890  Biso   1.000  C
  C74      1.0000 0.74590  0.27710  0.25380  Biso   1.000  C
  C75      1.0000 0.72160  0.25160  0.20130  Biso   1.000  C
  C76      1.0000 0.63060  0.20850  0.19530  Biso   1.000  C
  C77      1.0000 0.56720  0.19140  0.24140  Biso   1.000  C
  C78      1.0000 0.46490  0.15080  0.23760  Biso   1.000  C
  C79      1.0000 0.41740  0.13000  0.18730  Biso   1.000  C
  C80      1.0000 0.31990  0.09330  0.18670  Biso   1.000  C
  C81      1.0000 0.27070  0.07550  0.23730  Biso   1.000  C
  C82      1.0000 0.32290  0.09760  0.28590  Biso   1.000  C
  C83      1.0000 0.84030  0.32980  0.26160  Biso   1.000  C
  C84      1.0000 0.16880  0.03000  0.23960  Biso   1.000  C
  C85      1.0000 0.67890  0.18440  0.44830  Biso   1.000  C
  C86      1.0000 0.72870  0.21490  0.49420  Biso   1.000  C
  C87      1.0000 0.68960  0.27870  0.51350  Biso   1.000  C
  C88      1.0000 0.60040  0.30950  0.48510  Biso   1.000  C
  C89      1.0000 0.55230  0.27610  0.44040  Biso   1.000  C
  C90      1.0000 0.45520  0.30210  0.41050  Biso   1.000  C
  C91      1.0000 0.40410  0.36490  0.42400  Biso   1.000  C
  C92      1.0000 0.30990  0.38590  0.39460  Biso   1.000  C
  C93      1.0000 0.27120  0.34400  0.35210  Biso   1.000  C
  C94      1.0000 0.32790  0.28240  0.33990  Biso   1.000  C
  C95      1.0000 0.82330  0.17740  0.52400  Biso   1.000  C
  C96      1.0000 0.17100  0.36470  0.31740  Biso   1.000  C
  C97      1.0000 0.68050  0.06000  0.33090  Biso   1.000  C
  C98      1.0000 0.73380  0.99560  0.33630  Biso   1.000  C
  C99      1.0000 0.68720  0.94480  0.37020  Biso   1.000  C
  C100     1.0000 0.58880  0.95970  0.39710  Biso   1.000  C
  C101     1.0000 0.54030  0.02460  0.39050  Biso   1.000  C
  C102     1.0000 0.43990  0.04590  0.42050  Biso   1.000  C
  C103     1.0000 0.37970  0.00100  0.45480  Biso   1.000  C
  C104     1.0000 0.29010  0.02630  0.48300  Biso   1.000  C
  C105     1.0000 0.26070  0.09650  0.47740  Biso   1.000  C
  C106     1.0000 0.32170  0.13760  0.44230  Biso   1.000  C
  C107     1.0000 0.83870  0.98150  0.30370  Biso   1.000  C
  C108     1.0000 0.16560  0.12680  0.50990  Biso   1.000  C
  H37      1.0000 0.70340  0.27270  0.33480  Biso   1.000  H
  H38      1.0000 0.76620  0.26340  0.17030  Biso   1.000  H
  H39      1.0000 0.61130  0.19050  0.15990  Biso   1.000  H
  H40      1.0000 0.45280  0.14120  0.15330  Biso   1.000  H
  H41      1.0000 0.28620  0.08020  0.15260  Biso   1.000  H
  H42      1.0000 0.28990  0.08570  0.32030  Biso   1.000  H
  H43      1.0000 0.70790  0.14150  0.43490  Biso   1.000  H
  H44      1.0000 0.72230  0.30070  0.54490  Biso   1.000  H
  H45      1.0000 0.57290  0.35360  0.49680  Biso   1.000  H
  H46      1.0000 0.43300  0.39310  0.45300  Biso   1.000  H
  H47      1.0000 0.27320  0.42820  0.40360  Biso   1.000  H
  H48      1.0000 0.30200  0.25410  0.31020  Biso   1.000  H
  H49      1.0000 0.71210  0.09420  0.30730  Biso   1.000  H
  H50      1.0000 0.72210  0.90070  0.37480  Biso   1.000  H
  H51      1.0000 0.55480  0.92550  0.41990  Biso   1.000  H
  H52      1.0000 0.40080  0.95350  0.45850  Biso   1.000  H
  H53      1.0000 0.24820  0.99630  0.50620  Biso   1.000  H
  H54      1.0000 0.30080  0.18510  0.43820  Biso   1.000  H
  Cd9      1.0000 0.98870  0.11240  0.59037  Biso   1.000  Cd
  Cd10     1.0000 0.00493  0.63580  0.89959  Biso   1.000  Cd
  Ru4      1.0000 0.49764  0.66939  0.14318  Biso   1.000  Ru
  O40      1.0000 0.15130  0.86140  0.19380  Biso   1.000  O
  O41      1.0000 0.09820  0.83920  0.28030  Biso   1.000  O
  O42      1.0000 0.89200  0.52590  0.30260  Biso   1.000  O
  O43      1.0000 0.84760  0.49640  0.21760  Biso   1.000  O
  O44      1.0000 0.13380  0.62820  0.99650  Biso   1.000  O
  O45      1.0000 0.15140  0.70040  0.92920  Biso   1.000  O
  O46      1.0000 0.84120  0.83730  0.22890  Biso   1.000  O
  O47      1.0000 0.89200  0.91100  0.16270  Biso   1.000  O
  O48      1.0000 0.14570  0.51330  0.23890  Biso   1.000  O
  O49      1.0000 0.09840  0.43380  0.17710  Biso   1.000  O
  O50      1.0000 0.85500  0.68880  0.99450  Biso   1.000  O
  O51      1.0000 0.88150  0.58660  0.95800  Biso   1.000  O
  O52      1.0000 0.09740  0.53060  0.89530  Biso   1.000  O
  N19      1.0000 0.40480  0.71240  0.20630  Biso   1.000  N
  N20      1.0000 0.58320  0.63470  0.21310  Biso   1.000  N
  N21      1.0000 0.40900  0.71280  0.07850  Biso   1.000  N
  N22      1.0000 0.58230  0.76160  0.13130  Biso   1.000  N
  N23      1.0000 0.41360  0.57530  0.14230  Biso   1.000  N
  N24      1.0000 0.59040  0.61450  0.08690  Biso   1.000  N
  C109     1.0000 0.31630  0.75610  0.20110  Biso   1.000  C
  C110     1.0000 0.25410  0.77710  0.24620  Biso   1.000  C
  C111     1.0000 0.27840  0.75160  0.29870  Biso   1.000  C
  C112     1.0000 0.36940  0.70850  0.30470  Biso   1.000  C
  C113     1.0000 0.43280  0.69140  0.25860  Biso   1.000  C
  C114     1.0000 0.53510  0.65080  0.26240  Biso   1.000  C
  C115     1.0000 0.58260  0.63000  0.31270  Biso   1.000  C
  C116     1.0000 0.68010  0.59330  0.31330  Biso   1.000  C
  C117     1.0000 0.72930  0.57550  0.26270  Biso   1.000  C
  C118     1.0000 0.67710  0.59760  0.21410  Biso   1.000  C
  C119     1.0000 0.15970  0.82980  0.23840  Biso   1.000  C
  C120     1.0000 0.83120  0.53000  0.26040  Biso   1.000  C
  C121     1.0000 0.32110  0.68440  0.05170  Biso   1.000  C
  C122     1.0000 0.27130  0.71490  0.00580  Biso   1.000  C
  C123     1.0000 0.31040  0.77870  0.98650  Biso   1.000  C
  C124     1.0000 0.39960  0.80950  0.01490  Biso   1.000  C
  C125     1.0000 0.44770  0.77610  0.05960  Biso   1.000  C
  C126     1.0000 0.54480  0.80210  0.08950  Biso   1.000  C
  C127     1.0000 0.59590  0.86490  0.07600  Biso   1.000  C
  C128     1.0000 0.69010  0.88590  0.10540  Biso   1.000  C
  C129     1.0000 0.72880  0.84400  0.14790  Biso   1.000  C
  C130     1.0000 0.67210  0.78240  0.16010  Biso   1.000  C
  C131     1.0000 0.17670  0.67740  0.97600  Biso   1.000  C
  C132     1.0000 0.82900  0.86470  0.18260  Biso   1.000  C
  C133     1.0000 0.31950  0.56000  0.16910  Biso   1.000  C
  C134     1.0000 0.26620  0.49560  0.16370  Biso   1.000  C
  C135     1.0000 0.31280  0.44480  0.12980  Biso   1.000  C
  C136     1.0000 0.41120  0.45970  0.10290  Biso   1.000  C
  C137     1.0000 0.45970  0.52460  0.10950  Biso   1.000  C
  C138     1.0000 0.56010  0.54590  0.07950  Biso   1.000  C
  C139     1.0000 0.62030  0.50100  0.04520  Biso   1.000  C
  C140     1.0000 0.70990  0.52630  0.01700  Biso   1.000  C
  C141     1.0000 0.73930  0.59650  0.02260  Biso   1.000  C
  C142     1.0000 0.67830  0.63760  0.05770  Biso   1.000  C
  C143     1.0000 0.16130  0.48150  0.19630  Biso   1.000  C
  C144     1.0000 0.83440  0.62680  0.99010  Biso   1.000  C
  H55      1.0000 0.29660  0.77270  0.16520  Biso   1.000  H
  H56      1.0000 0.23380  0.76340  0.32970  Biso   1.000  H
  H57      1.0000 0.38870  0.69050  0.34010  Biso   1.000  H
  H58      1.0000 0.54720  0.64120  0.34670  Biso   1.000  H
  H59      1.0000 0.71380  0.58020  0.34740  Biso   1.000  H
  H60      1.0000 0.71010  0.58570  0.17970  Biso   1.000  H
  H61      1.0000 0.29210  0.64150  0.06510  Biso   1.000  H
  H62      1.0000 0.27770  0.80070  0.95510  Biso   1.000  H
  H63      1.0000 0.42710  0.85360  0.00320  Biso   1.000  H
  H64      1.0000 0.56700  0.89310  0.04700  Biso   1.000  H
  H65      1.0000 0.72680  0.92820  0.09640  Biso   1.000  H
  H66      1.0000 0.69800  0.75410  0.18980  Biso   1.000  H
  H67      1.0000 0.28790  0.59420  0.19270  Biso   1.000  H
  H68      1.0000 0.27790  0.40070  0.12520  Biso   1.000  H
  H69      1.0000 0.44520  0.42550  0.08010  Biso   1.000  H
  H70      1.0000 0.59920  0.45350  0.04150  Biso   1.000  H
  H71      1.0000 0.75180  0.49630  0.99380  Biso   1.000  H
  H72      1.0000 0.69920  0.68510  0.06180  Biso   1.000  H
  Cd11     1.0000 0.01130  0.61240  0.90963  Biso   1.000  Cd
  Cd12     1.0000 0.00259  0.93246  0.23739  Biso   1.000  Cd
