data_image0
_cell_length_a       22.554
_cell_length_b       11.462
_cell_length_c       21.861
_cell_angle_alpha    90
_cell_angle_beta     105.645
_cell_angle_gamma    90

_symmetry_space_group_name_H-M    "P 1"
_symmetry_int_tables_number       1

loop_
  _symmetry_equiv_pos_as_xyz
  'x, y, z'

loop_
  _atom_site_label
  _atom_site_occupancy
  _atom_site_fract_x
  _atom_site_fract_y
  _atom_site_fract_z
  _atom_site_thermal_displace_type
  _atom_site_B_iso_or_equiv
  _atom_site_type_symbol
  O1       1.0000 0.45800  0.85810  0.45890  Biso   1.000  O
  O2       1.0000 0.51440  0.70630  0.50850  Biso   1.000  O
  O3       1.0000 0.94660  0.62170  0.44540  Biso   1.000  O
  O4       1.0000 0.98010  0.80320  0.47870  Biso   1.000  O
  O5       1.0000 0.22110  0.43590  0.33460  Biso   1.000  O
  O6       1.0000 0.18060  0.60250  0.29020  Biso   1.000  O
  O7       1.0000 0.33330  0.41360  0.22570  Biso   1.000  O
  O8       1.0000 0.29000  0.57680  0.17970  Biso   1.000  O
  N1       1.0000 0.33910  0.52800  0.34150  Biso   1.000  N
  N2       1.0000 0.79470  0.86640  0.29180  Biso   1.000  N
  N3       1.0000 0.05670  0.50380  0.44230  Biso   1.000  N
  N4       1.0000 0.44420  0.49440  0.06000  Biso   1.000  N
  C1       1.0000 0.33940  0.64300  0.33300  Biso   1.000  C
  C2       1.0000 0.38070  0.71670  0.37270  Biso   1.000  C
  C3       1.0000 0.42450  0.67080  0.42310  Biso   1.000  C
  C4       1.0000 0.42470  0.55040  0.43190  Biso   1.000  C
  C5       1.0000 0.38070  0.48460  0.39150  Biso   1.000  C
  C6       1.0000 0.47030  0.75050  0.46810  Biso   1.000  C
  C7       1.0000 0.80810  0.75280  0.29730  Biso   1.000  C
  C8       1.0000 0.85590  0.70810  0.34450  Biso   1.000  C
  C9       1.0000 0.89330  0.78150  0.38760  Biso   1.000  C
  C10      1.0000 0.88150  0.90070  0.38160  Biso   1.000  C
  C11      1.0000 0.83170  0.93840  0.33320  Biso   1.000  C
  C12      1.0000 0.94480  0.73260  0.44200  Biso   1.000  C
  C13      1.0000 0.08230  0.40770  0.42530  Biso   1.000  C
  C14      1.0000 0.12470  0.40600  0.38930  Biso   1.000  C
  C15      1.0000 0.13820  0.51310  0.36700  Biso   1.000  C
  C16      1.0000 0.11130  0.61640  0.37820  Biso   1.000  C
  C17      1.0000 0.07120  0.60330  0.41620  Biso   1.000  C
  C18      1.0000 0.96640  0.02490  0.11910  Biso   1.000  C
  C19      1.0000 0.92510  0.03350  0.15580  Biso   1.000  C
  C20      1.0000 0.84290  0.98560  0.06850  Biso   1.000  C
  C21      1.0000 0.88390  0.98060  0.03140  Biso   1.000  C
  C22      1.0000 0.18270  0.52000  0.32720  Biso   1.000  C
  C23      1.0000 0.46500  0.45320  0.11900  Biso   1.000  C
  C24      1.0000 0.42750  0.44810  0.15970  Biso   1.000  C
  C25      1.0000 0.36800  0.49170  0.14140  Biso   1.000  C
  C26      1.0000 0.34820  0.53640  0.08020  Biso   1.000  C
  C27      1.0000 0.38670  0.53590  0.04020  Biso   1.000  C
  C28      1.0000 0.58840  0.08810  0.43170  Biso   1.000  C
  C29      1.0000 0.62510  0.09450  0.38970  Biso   1.000  C
  C30      1.0000 0.59870  0.89200  0.36300  Biso   1.000  C
  C31      1.0000 0.56180  0.90300  0.40410  Biso   1.000  C
  C32      1.0000 0.32670  0.49370  0.18610  Biso   1.000  C
  Cu1      1.0000 0.27650  0.42770  0.27960  Biso   1.000  Cu
  O9       1.0000 0.54200  0.35810  0.04110  Biso   1.000  O
  O10      1.0000 0.48560  0.20630  0.99150  Biso   1.000  O
  O11      1.0000 0.05340  0.12170  0.05460  Biso   1.000  O
  O12      1.0000 0.01990  0.30320  0.02130  Biso   1.000  O
  O13      1.0000 0.77890  0.93590  0.16540  Biso   1.000  O
  O14      1.0000 0.81940  0.10250  0.20980  Biso   1.000  O
  O15      1.0000 0.66670  0.91360  0.27430  Biso   1.000  O
  O16      1.0000 0.71000  0.07680  0.32030  Biso   1.000  O
  N5       1.0000 0.66090  0.02800  0.15850  Biso   1.000  N
  N6       1.0000 0.20530  0.36640  0.20820  Biso   1.000  N
  N7       1.0000 0.94330  0.00380  0.05770  Biso   1.000  N
  N8       1.0000 0.55580  0.99440  0.44000  Biso   1.000  N
  C33      1.0000 0.66060  0.14300  0.16700  Biso   1.000  C
  C34      1.0000 0.61930  0.21670  0.12730  Biso   1.000  C
  C35      1.0000 0.57550  0.17080  0.07690  Biso   1.000  C
  C36      1.0000 0.57530  0.05040  0.06810  Biso   1.000  C
  C37      1.0000 0.61930  0.98460  0.10850  Biso   1.000  C
  C38      1.0000 0.52970  0.25050  0.03190  Biso   1.000  C
  C39      1.0000 0.19190  0.25280  0.20270  Biso   1.000  C
  C40      1.0000 0.14410  0.20810  0.15550  Biso   1.000  C
  C41      1.0000 0.10670  0.28150  0.11240  Biso   1.000  C
  C42      1.0000 0.11850  0.40070  0.11840  Biso   1.000  C
  C43      1.0000 0.16830  0.43840  0.16680  Biso   1.000  C
  C44      1.0000 0.05520  0.23260  0.05800  Biso   1.000  C
  C45      1.0000 0.91770  0.90770  0.07470  Biso   1.000  C
  C46      1.0000 0.87530  0.90600  0.11070  Biso   1.000  C
  C47      1.0000 0.86180  0.01310  0.13300  Biso   1.000  C
  C48      1.0000 0.88870  0.11640  0.12180  Biso   1.000  C
  C49      1.0000 0.92880  0.10330  0.08380  Biso   1.000  C
  C50      1.0000 0.03360  0.52490  0.38090  Biso   1.000  C
  C51      1.0000 0.07490  0.53350  0.34420  Biso   1.000  C
  C52      1.0000 0.15710  0.48560  0.43150  Biso   1.000  C
  C53      1.0000 0.11610  0.48060  0.46860  Biso   1.000  C
  C54      1.0000 0.81730  0.02000  0.17280  Biso   1.000  C
  C55      1.0000 0.53500  0.95320  0.38100  Biso   1.000  C
  C56      1.0000 0.57250  0.94810  0.34030  Biso   1.000  C
  C57      1.0000 0.63200  0.99170  0.35860  Biso   1.000  C
  C58      1.0000 0.65180  0.03640  0.41980  Biso   1.000  C
  C59      1.0000 0.61330  0.03590  0.45980  Biso   1.000  C
  C60      1.0000 0.41160  0.58810  0.06830  Biso   1.000  C
  C61      1.0000 0.37490  0.59450  0.11030  Biso   1.000  C
  C62      1.0000 0.40130  0.39200  0.13700  Biso   1.000  C
  C63      1.0000 0.43820  0.40300  0.09590  Biso   1.000  C
  C64      1.0000 0.67330  0.99370  0.31390  Biso   1.000  C
  Cu2      1.0000 0.72350  0.92770  0.22040  Biso   1.000  Cu
  O17      1.0000 0.54200  0.14190  0.54110  Biso   1.000  O
  O18      1.0000 0.48560  0.29370  0.49150  Biso   1.000  O
  O19      1.0000 0.05340  0.37830  0.55460  Biso   1.000  O
  O20      1.0000 0.01990  0.19680  0.52130  Biso   1.000  O
  O21      1.0000 0.77890  0.56410  0.66540  Biso   1.000  O
  O22      1.0000 0.81940  0.39750  0.70980  Biso   1.000  O
  O23      1.0000 0.66670  0.58640  0.77430  Biso   1.000  O
  O24      1.0000 0.71000  0.42320  0.82030  Biso   1.000  O
  N9       1.0000 0.66090  0.47200  0.65850  Biso   1.000  N
  N10      1.0000 0.20530  0.13360  0.70820  Biso   1.000  N
  N11      1.0000 0.94330  0.49620  0.55770  Biso   1.000  N
  N12      1.0000 0.55580  0.50560  0.94000  Biso   1.000  N
  C65      1.0000 0.66060  0.35700  0.66700  Biso   1.000  C
  C66      1.0000 0.61930  0.28330  0.62730  Biso   1.000  C
  C67      1.0000 0.57550  0.32920  0.57690  Biso   1.000  C
  C68      1.0000 0.57530  0.44960  0.56810  Biso   1.000  C
  C69      1.0000 0.61930  0.51540  0.60850  Biso   1.000  C
  C70      1.0000 0.52970  0.24950  0.53190  Biso   1.000  C
  C71      1.0000 0.19190  0.24720  0.70270  Biso   1.000  C
  C72      1.0000 0.14410  0.29190  0.65550  Biso   1.000  C
  C73      1.0000 0.10670  0.21850  0.61240  Biso   1.000  C
  C74      1.0000 0.11850  0.09930  0.61840  Biso   1.000  C
  C75      1.0000 0.16830  0.06160  0.66680  Biso   1.000  C
  C76      1.0000 0.05520  0.26740  0.55800  Biso   1.000  C
  C77      1.0000 0.91770  0.59230  0.57470  Biso   1.000  C
  C78      1.0000 0.87530  0.59400  0.61070  Biso   1.000  C
  C79      1.0000 0.86180  0.48690  0.63300  Biso   1.000  C
  C80      1.0000 0.88870  0.38360  0.62180  Biso   1.000  C
  C81      1.0000 0.92880  0.39670  0.58380  Biso   1.000  C
  C82      1.0000 0.03360  0.97510  0.88090  Biso   1.000  C
  C83      1.0000 0.07490  0.96650  0.84420  Biso   1.000  C
  C84      1.0000 0.15710  0.01440  0.93150  Biso   1.000  C
  C85      1.0000 0.11610  0.01940  0.96860  Biso   1.000  C
  C86      1.0000 0.81730  0.48000  0.67280  Biso   1.000  C
  C87      1.0000 0.53500  0.54680  0.88100  Biso   1.000  C
  C88      1.0000 0.57250  0.55190  0.84030  Biso   1.000  C
  C89      1.0000 0.63200  0.50830  0.85860  Biso   1.000  C
  C90      1.0000 0.65180  0.46360  0.91980  Biso   1.000  C
  C91      1.0000 0.61330  0.46410  0.95980  Biso   1.000  C
  C92      1.0000 0.41160  0.91190  0.56830  Biso   1.000  C
  C93      1.0000 0.37490  0.90550  0.61030  Biso   1.000  C
  C94      1.0000 0.40130  0.10800  0.63700  Biso   1.000  C
  C95      1.0000 0.43820  0.09700  0.59590  Biso   1.000  C
  C96      1.0000 0.67330  0.50630  0.81390  Biso   1.000  C
  Cu3      1.0000 0.72350  0.57230  0.72040  Biso   1.000  Cu
  O25      1.0000 0.45800  0.64190  0.95890  Biso   1.000  O
  O26      1.0000 0.51440  0.79370  0.00850  Biso   1.000  O
  O27      1.0000 0.94660  0.87830  0.94540  Biso   1.000  O
  O28      1.0000 0.98010  0.69680  0.97870  Biso   1.000  O
  O29      1.0000 0.22110  0.06410  0.83460  Biso   1.000  O
  O30      1.0000 0.18060  0.89750  0.79020  Biso   1.000  O
  O31      1.0000 0.33330  0.08640  0.72570  Biso   1.000  O
  O32      1.0000 0.29000  0.92320  0.67970  Biso   1.000  O
  N13      1.0000 0.33910  0.97200  0.84150  Biso   1.000  N
  N14      1.0000 0.79470  0.63360  0.79180  Biso   1.000  N
  N15      1.0000 0.05670  0.99620  0.94230  Biso   1.000  N
  N16      1.0000 0.44420  0.00560  0.56000  Biso   1.000  N
  C97      1.0000 0.33940  0.85700  0.83300  Biso   1.000  C
  C98      1.0000 0.38070  0.78330  0.87270  Biso   1.000  C
  C99      1.0000 0.42450  0.82920  0.92310  Biso   1.000  C
  C100     1.0000 0.42470  0.94960  0.93190  Biso   1.000  C
  C101     1.0000 0.38070  0.01540  0.89150  Biso   1.000  C
  C102     1.0000 0.47030  0.74950  0.96810  Biso   1.000  C
  C103     1.0000 0.80810  0.74720  0.79730  Biso   1.000  C
  C104     1.0000 0.85590  0.79190  0.84450  Biso   1.000  C
  C105     1.0000 0.89330  0.71850  0.88760  Biso   1.000  C
  C106     1.0000 0.88150  0.59930  0.88160  Biso   1.000  C
  C107     1.0000 0.83170  0.56160  0.83320  Biso   1.000  C
  C108     1.0000 0.94480  0.76740  0.94200  Biso   1.000  C
  C109     1.0000 0.08230  0.09230  0.92530  Biso   1.000  C
  C110     1.0000 0.12470  0.09400  0.88930  Biso   1.000  C
  C111     1.0000 0.13820  0.98690  0.86700  Biso   1.000  C
  C112     1.0000 0.11130  0.88360  0.87820  Biso   1.000  C
  C113     1.0000 0.07120  0.89670  0.91620  Biso   1.000  C
  C114     1.0000 0.96640  0.47510  0.61910  Biso   1.000  C
  C115     1.0000 0.92510  0.46650  0.65580  Biso   1.000  C
  C116     1.0000 0.84290  0.51440  0.56850  Biso   1.000  C
  C117     1.0000 0.88390  0.51940  0.53140  Biso   1.000  C
  C118     1.0000 0.18270  0.98000  0.82720  Biso   1.000  C
  C119     1.0000 0.46500  0.04680  0.61900  Biso   1.000  C
  C120     1.0000 0.42750  0.05190  0.65970  Biso   1.000  C
  C121     1.0000 0.36800  0.00830  0.64140  Biso   1.000  C
  C122     1.0000 0.34820  0.96360  0.58020  Biso   1.000  C
  C123     1.0000 0.38670  0.96410  0.54020  Biso   1.000  C
  C124     1.0000 0.58840  0.41190  0.93170  Biso   1.000  C
  C125     1.0000 0.62510  0.40550  0.88970  Biso   1.000  C
  C126     1.0000 0.59870  0.60800  0.86300  Biso   1.000  C
  C127     1.0000 0.56180  0.59700  0.90410  Biso   1.000  C
  C128     1.0000 0.32670  0.00630  0.68610  Biso   1.000  C
  Cu4      1.0000 0.27650  0.07230  0.77960  Biso   1.000  Cu
  Cu5      1.0000 0.00000  0.50000  0.50000  Biso   1.000  Cu
  Cu6      1.0000 0.00000  0.00000  0.00000  Biso   1.000  Cu
  Cu7      1.0000 0.50000  0.00000  0.50000  Biso   1.000  Cu
  Cu8      1.0000 0.50000  0.50000  0.00000  Biso   1.000  Cu
