data_image0
_cell_length_a       13.092
_cell_length_b       16.956
_cell_length_c       26.765
_cell_angle_alpha    90
_cell_angle_beta     90
_cell_angle_gamma    90

_symmetry_space_group_name_H-M    "P 1"
_symmetry_int_tables_number       1

loop_
  _symmetry_equiv_pos_as_xyz
  'x, y, z'

loop_
  _atom_site_label
  _atom_site_occupancy
  _atom_site_fract_x
  _atom_site_fract_y
  _atom_site_fract_z
  _atom_site_thermal_displace_type
  _atom_site_B_iso_or_equiv
  _atom_site_type_symbol
  N1       1.0000 0.41140  0.59080  0.75031  Biso   1.000  N
  N2       1.0000 0.37500  0.66230  0.73750  Biso   1.000  N
  N3       1.0000 0.50450  0.62748  0.68730  Biso   1.000  N
  C1       1.0000 0.43380  0.68240  0.70000  Biso   1.000  C
  H1       1.0000 0.42750  0.73150  0.68320  Biso   1.000  H
  C2       1.0000 0.48770  0.57090  0.72044  Biso   1.000  C
  H2       1.0000 0.52500  0.52300  0.72240  Biso   1.000  H
  C3       1.0000 0.36200  0.54290  0.78880  Biso   1.000  C
  C4       1.0000 0.25390  0.52170  0.77380  Biso   1.000  C
  C5       1.0000 0.29300  0.48070  0.76520  Biso   1.000  C
  H3       1.0000 0.35200  0.57000  0.81700  Biso   1.000  H
  H4       1.0000 0.41000  0.51300  0.80000  Biso   1.000  H
  N4       1.0000 0.41140  0.09080  0.25031  Biso   1.000  N
  N5       1.0000 0.37500  0.16230  0.23750  Biso   1.000  N
  N6       1.0000 0.50450  0.12748  0.18730  Biso   1.000  N
  C6       1.0000 0.43380  0.18240  0.20000  Biso   1.000  C
  H5       1.0000 0.42750  0.23150  0.18320  Biso   1.000  H
  C7       1.0000 0.48770  0.07090  0.22044  Biso   1.000  C
  H6       1.0000 0.52500  0.02300  0.22240  Biso   1.000  H
  C8       1.0000 0.36200  0.04290  0.28880  Biso   1.000  C
  C9       1.0000 0.25390  0.02170  0.27380  Biso   1.000  C
  C10      1.0000 0.29300  0.98070  0.26520  Biso   1.000  C
  H7       1.0000 0.35200  0.07000  0.31700  Biso   1.000  H
  H8       1.0000 0.41000  0.01300  0.30000  Biso   1.000  H
  N7       1.0000 0.91140  0.59080  0.25031  Biso   1.000  N
  N8       1.0000 0.87500  0.66230  0.23750  Biso   1.000  N
  N9       1.0000 0.00450  0.62748  0.18730  Biso   1.000  N
  C11      1.0000 0.93380  0.68240  0.20000  Biso   1.000  C
  H9       1.0000 0.92750  0.73150  0.18320  Biso   1.000  H
  C12      1.0000 0.98770  0.57090  0.22044  Biso   1.000  C
  H10      1.0000 0.02500  0.52300  0.22240  Biso   1.000  H
  C13      1.0000 0.86200  0.54290  0.28880  Biso   1.000  C
  C14      1.0000 0.75390  0.52170  0.27380  Biso   1.000  C
  C15      1.0000 0.79300  0.48070  0.26520  Biso   1.000  C
  H11      1.0000 0.85200  0.57000  0.31700  Biso   1.000  H
  H12      1.0000 0.91000  0.51300  0.30000  Biso   1.000  H
  N10      1.0000 0.91140  0.09080  0.75031  Biso   1.000  N
  N11      1.0000 0.87500  0.16230  0.73750  Biso   1.000  N
  N12      1.0000 0.00450  0.12748  0.68730  Biso   1.000  N
  C16      1.0000 0.93380  0.18240  0.70000  Biso   1.000  C
  H13      1.0000 0.92750  0.23150  0.68320  Biso   1.000  H
  C17      1.0000 0.98770  0.07090  0.72044  Biso   1.000  C
  H14      1.0000 0.02500  0.02300  0.72240  Biso   1.000  H
  C18      1.0000 0.86200  0.04290  0.78880  Biso   1.000  C
  C19      1.0000 0.75390  0.02170  0.77380  Biso   1.000  C
  C20      1.0000 0.79300  0.98070  0.76520  Biso   1.000  C
  H15      1.0000 0.85200  0.07000  0.81700  Biso   1.000  H
  H16      1.0000 0.91000  0.01300  0.80000  Biso   1.000  H
  N13      1.0000 0.33860  0.15920  0.75031  Biso   1.000  N
  N14      1.0000 0.37500  0.08770  0.73750  Biso   1.000  N
  N15      1.0000 0.24550  0.12252  0.68730  Biso   1.000  N
  C21      1.0000 0.31620  0.06760  0.70000  Biso   1.000  C
  H17      1.0000 0.32250  0.01850  0.68320  Biso   1.000  H
  C22      1.0000 0.26230  0.17910  0.72044  Biso   1.000  C
  H18      1.0000 0.22500  0.22700  0.72240  Biso   1.000  H
  C23      1.0000 0.38800  0.20710  0.78880  Biso   1.000  C
  C24      1.0000 0.49610  0.22830  0.77380  Biso   1.000  C
  C25      1.0000 0.45700  0.26930  0.76520  Biso   1.000  C
  H19      1.0000 0.39800  0.18000  0.81700  Biso   1.000  H
  H20      1.0000 0.34000  0.23700  0.80000  Biso   1.000  H
  N16      1.0000 0.33860  0.65920  0.25031  Biso   1.000  N
  N17      1.0000 0.37500  0.58770  0.23750  Biso   1.000  N
  N18      1.0000 0.24550  0.62252  0.18730  Biso   1.000  N
  C26      1.0000 0.31620  0.56760  0.20000  Biso   1.000  C
  H21      1.0000 0.32250  0.51850  0.18320  Biso   1.000  H
  C27      1.0000 0.26230  0.67910  0.22044  Biso   1.000  C
  H22      1.0000 0.22500  0.72700  0.22240  Biso   1.000  H
  C28      1.0000 0.38800  0.70710  0.28880  Biso   1.000  C
  C29      1.0000 0.49610  0.72830  0.27380  Biso   1.000  C
  C30      1.0000 0.45700  0.76930  0.26520  Biso   1.000  C
  H23      1.0000 0.39800  0.68000  0.31700  Biso   1.000  H
  H24      1.0000 0.34000  0.73700  0.30000  Biso   1.000  H
  N19      1.0000 0.83860  0.15920  0.25031  Biso   1.000  N
  N20      1.0000 0.87500  0.08770  0.23750  Biso   1.000  N
  N21      1.0000 0.74550  0.12252  0.18730  Biso   1.000  N
  C31      1.0000 0.81620  0.06760  0.20000  Biso   1.000  C
  H25      1.0000 0.82250  0.01850  0.18320  Biso   1.000  H
  C32      1.0000 0.76230  0.17910  0.22044  Biso   1.000  C
  H26      1.0000 0.72500  0.22700  0.22240  Biso   1.000  H
  C33      1.0000 0.88800  0.20710  0.28880  Biso   1.000  C
  C34      1.0000 0.99610  0.22830  0.27380  Biso   1.000  C
  C35      1.0000 0.95700  0.26930  0.26520  Biso   1.000  C
  H27      1.0000 0.89800  0.18000  0.31700  Biso   1.000  H
  H28      1.0000 0.84000  0.23700  0.30000  Biso   1.000  H
  N22      1.0000 0.83860  0.65920  0.75031  Biso   1.000  N
  N23      1.0000 0.87500  0.58770  0.73750  Biso   1.000  N
  N24      1.0000 0.74550  0.62252  0.68730  Biso   1.000  N
  C36      1.0000 0.81620  0.56760  0.70000  Biso   1.000  C
  H29      1.0000 0.82250  0.51850  0.68320  Biso   1.000  H
  C37      1.0000 0.76230  0.67910  0.72044  Biso   1.000  C
  H30      1.0000 0.72500  0.72700  0.72240  Biso   1.000  H
  C38      1.0000 0.88800  0.70710  0.78880  Biso   1.000  C
  C39      1.0000 0.99610  0.72830  0.77380  Biso   1.000  C
  C40      1.0000 0.95700  0.76930  0.76520  Biso   1.000  C
  H31      1.0000 0.89800  0.68000  0.81700  Biso   1.000  H
  H32      1.0000 0.84000  0.73700  0.80000  Biso   1.000  H
  N25      1.0000 0.33860  0.59080  0.99969  Biso   1.000  N
  N26      1.0000 0.37500  0.66230  0.01250  Biso   1.000  N
  N27      1.0000 0.24550  0.62748  0.06270  Biso   1.000  N
  C41      1.0000 0.31620  0.68240  0.05000  Biso   1.000  C
  H33      1.0000 0.32250  0.73150  0.06680  Biso   1.000  H
  C42      1.0000 0.26230  0.57090  0.02956  Biso   1.000  C
  H34      1.0000 0.22500  0.52300  0.02760  Biso   1.000  H
  C43      1.0000 0.38800  0.54290  0.96120  Biso   1.000  C
  C44      1.0000 0.49610  0.52170  0.97620  Biso   1.000  C
  C45      1.0000 0.45700  0.48070  0.98480  Biso   1.000  C
  H35      1.0000 0.39800  0.57000  0.93300  Biso   1.000  H
  H36      1.0000 0.34000  0.51300  0.95000  Biso   1.000  H
  N28      1.0000 0.33860  0.09080  0.49969  Biso   1.000  N
  N29      1.0000 0.37500  0.16230  0.51250  Biso   1.000  N
  N30      1.0000 0.24550  0.12748  0.56270  Biso   1.000  N
  C46      1.0000 0.31620  0.18240  0.55000  Biso   1.000  C
  H37      1.0000 0.32250  0.23150  0.56680  Biso   1.000  H
  C47      1.0000 0.26230  0.07090  0.52956  Biso   1.000  C
  H38      1.0000 0.22500  0.02300  0.52760  Biso   1.000  H
  C48      1.0000 0.38800  0.04290  0.46120  Biso   1.000  C
  C49      1.0000 0.49610  0.02170  0.47620  Biso   1.000  C
  C50      1.0000 0.45700  0.98070  0.48480  Biso   1.000  C
  H39      1.0000 0.39800  0.07000  0.43300  Biso   1.000  H
  H40      1.0000 0.34000  0.01300  0.45000  Biso   1.000  H
  N31      1.0000 0.83860  0.59080  0.49969  Biso   1.000  N
  N32      1.0000 0.87500  0.66230  0.51250  Biso   1.000  N
  N33      1.0000 0.74550  0.62748  0.56270  Biso   1.000  N
  C51      1.0000 0.81620  0.68240  0.55000  Biso   1.000  C
  H41      1.0000 0.82250  0.73150  0.56680  Biso   1.000  H
  C52      1.0000 0.76230  0.57090  0.52956  Biso   1.000  C
  H42      1.0000 0.72500  0.52300  0.52760  Biso   1.000  H
  C53      1.0000 0.88800  0.54290  0.46120  Biso   1.000  C
  C54      1.0000 0.99610  0.52170  0.47620  Biso   1.000  C
  C55      1.0000 0.95700  0.48070  0.48480  Biso   1.000  C
  H43      1.0000 0.89800  0.57000  0.43300  Biso   1.000  H
  H44      1.0000 0.84000  0.51300  0.45000  Biso   1.000  H
  N34      1.0000 0.83860  0.09080  0.99969  Biso   1.000  N
  N35      1.0000 0.87500  0.16230  0.01250  Biso   1.000  N
  N36      1.0000 0.74550  0.12748  0.06270  Biso   1.000  N
  C56      1.0000 0.81620  0.18240  0.05000  Biso   1.000  C
  H45      1.0000 0.82250  0.23150  0.06680  Biso   1.000  H
  C57      1.0000 0.76230  0.07090  0.02956  Biso   1.000  C
  H46      1.0000 0.72500  0.02300  0.02760  Biso   1.000  H
  C58      1.0000 0.88800  0.04290  0.96120  Biso   1.000  C
  C59      1.0000 0.99610  0.02170  0.97620  Biso   1.000  C
  C60      1.0000 0.95700  0.98070  0.98480  Biso   1.000  C
  H47      1.0000 0.89800  0.07000  0.93300  Biso   1.000  H
  H48      1.0000 0.84000  0.01300  0.95000  Biso   1.000  H
  N37      1.0000 0.41140  0.15920  0.99969  Biso   1.000  N
  N38      1.0000 0.37500  0.08770  0.01250  Biso   1.000  N
  N39      1.0000 0.50450  0.12252  0.06270  Biso   1.000  N
  C61      1.0000 0.43380  0.06760  0.05000  Biso   1.000  C
  H49      1.0000 0.42750  0.01850  0.06680  Biso   1.000  H
  C62      1.0000 0.48770  0.17910  0.02956  Biso   1.000  C
  H50      1.0000 0.52500  0.22700  0.02760  Biso   1.000  H
  C63      1.0000 0.36200  0.20710  0.96120  Biso   1.000  C
  C64      1.0000 0.25390  0.22830  0.97620  Biso   1.000  C
  C65      1.0000 0.29300  0.26930  0.98480  Biso   1.000  C
  H51      1.0000 0.35200  0.18000  0.93300  Biso   1.000  H
  H52      1.0000 0.41000  0.23700  0.95000  Biso   1.000  H
  N40      1.0000 0.41140  0.65920  0.49969  Biso   1.000  N
  N41      1.0000 0.37500  0.58770  0.51250  Biso   1.000  N
  N42      1.0000 0.50450  0.62252  0.56270  Biso   1.000  N
  C66      1.0000 0.43380  0.56760  0.55000  Biso   1.000  C
  H53      1.0000 0.42750  0.51850  0.56680  Biso   1.000  H
  C67      1.0000 0.48770  0.67910  0.52956  Biso   1.000  C
  H54      1.0000 0.52500  0.72700  0.52760  Biso   1.000  H
  C68      1.0000 0.36200  0.70710  0.46120  Biso   1.000  C
  C69      1.0000 0.25390  0.72830  0.47620  Biso   1.000  C
  C70      1.0000 0.29300  0.76930  0.48480  Biso   1.000  C
  H55      1.0000 0.35200  0.68000  0.43300  Biso   1.000  H
  H56      1.0000 0.41000  0.73700  0.45000  Biso   1.000  H
  N43      1.0000 0.91140  0.15920  0.49969  Biso   1.000  N
  N44      1.0000 0.87500  0.08770  0.51250  Biso   1.000  N
  N45      1.0000 0.00450  0.12252  0.56270  Biso   1.000  N
  C71      1.0000 0.93380  0.06760  0.55000  Biso   1.000  C
  H57      1.0000 0.92750  0.01850  0.56680  Biso   1.000  H
  C72      1.0000 0.98770  0.17910  0.52956  Biso   1.000  C
  H58      1.0000 0.02500  0.22700  0.52760  Biso   1.000  H
  C73      1.0000 0.86200  0.20710  0.46120  Biso   1.000  C
  C74      1.0000 0.75390  0.22830  0.47620  Biso   1.000  C
  C75      1.0000 0.79300  0.26930  0.48480  Biso   1.000  C
  H59      1.0000 0.85200  0.18000  0.43300  Biso   1.000  H
  H60      1.0000 0.91000  0.23700  0.45000  Biso   1.000  H
  N46      1.0000 0.91140  0.65920  0.99969  Biso   1.000  N
  N47      1.0000 0.87500  0.58770  0.01250  Biso   1.000  N
  N48      1.0000 0.00450  0.62252  0.06270  Biso   1.000  N
  C76      1.0000 0.93380  0.56760  0.05000  Biso   1.000  C
  H61      1.0000 0.92750  0.51850  0.06680  Biso   1.000  H
  C77      1.0000 0.98770  0.67910  0.02956  Biso   1.000  C
  H62      1.0000 0.02500  0.72700  0.02760  Biso   1.000  H
  C78      1.0000 0.86200  0.70710  0.96120  Biso   1.000  C
  C79      1.0000 0.75390  0.72830  0.97620  Biso   1.000  C
  C80      1.0000 0.79300  0.76930  0.98480  Biso   1.000  C
  H63      1.0000 0.85200  0.68000  0.93300  Biso   1.000  H
  H64      1.0000 0.91000  0.73700  0.95000  Biso   1.000  H
  N49      1.0000 0.58860  0.40920  0.24969  Biso   1.000  N
  N50      1.0000 0.62500  0.33770  0.26250  Biso   1.000  N
  N51      1.0000 0.49550  0.37252  0.31270  Biso   1.000  N
  C81      1.0000 0.56620  0.31760  0.30000  Biso   1.000  C
  H65      1.0000 0.57250  0.26850  0.31680  Biso   1.000  H
  C82      1.0000 0.51230  0.42910  0.27956  Biso   1.000  C
  H66      1.0000 0.47500  0.47700  0.27760  Biso   1.000  H
  C83      1.0000 0.63800  0.45710  0.21120  Biso   1.000  C
  C84      1.0000 0.74610  0.47830  0.22620  Biso   1.000  C
  C85      1.0000 0.70700  0.51930  0.23480  Biso   1.000  C
  H67      1.0000 0.64800  0.43000  0.18300  Biso   1.000  H
  H68      1.0000 0.59000  0.48700  0.20000  Biso   1.000  H
  N52      1.0000 0.58860  0.90920  0.74969  Biso   1.000  N
  N53      1.0000 0.62500  0.83770  0.76250  Biso   1.000  N
  N54      1.0000 0.49550  0.87252  0.81270  Biso   1.000  N
  C86      1.0000 0.56620  0.81760  0.80000  Biso   1.000  C
  H69      1.0000 0.57250  0.76850  0.81680  Biso   1.000  H
  C87      1.0000 0.51230  0.92910  0.77956  Biso   1.000  C
  H70      1.0000 0.47500  0.97700  0.77760  Biso   1.000  H
  C88      1.0000 0.63800  0.95710  0.71120  Biso   1.000  C
  C89      1.0000 0.74610  0.97830  0.72620  Biso   1.000  C
  C90      1.0000 0.70700  0.01930  0.73480  Biso   1.000  C
  H71      1.0000 0.64800  0.93000  0.68300  Biso   1.000  H
  H72      1.0000 0.59000  0.98700  0.70000  Biso   1.000  H
  N55      1.0000 0.08860  0.40920  0.74969  Biso   1.000  N
  N56      1.0000 0.12500  0.33770  0.76250  Biso   1.000  N
  N57      1.0000 0.99550  0.37252  0.81270  Biso   1.000  N
  C91      1.0000 0.06620  0.31760  0.80000  Biso   1.000  C
  H73      1.0000 0.07250  0.26850  0.81680  Biso   1.000  H
  C92      1.0000 0.01230  0.42910  0.77956  Biso   1.000  C
  H74      1.0000 0.97500  0.47700  0.77760  Biso   1.000  H
  C93      1.0000 0.13800  0.45710  0.71120  Biso   1.000  C
  C94      1.0000 0.24610  0.47830  0.72620  Biso   1.000  C
  C95      1.0000 0.20700  0.51930  0.73480  Biso   1.000  C
  H75      1.0000 0.14800  0.43000  0.68300  Biso   1.000  H
  H76      1.0000 0.09000  0.48700  0.70000  Biso   1.000  H
  N58      1.0000 0.08860  0.90920  0.24969  Biso   1.000  N
  N59      1.0000 0.12500  0.83770  0.26250  Biso   1.000  N
  N60      1.0000 0.99550  0.87252  0.31270  Biso   1.000  N
  C96      1.0000 0.06620  0.81760  0.30000  Biso   1.000  C
  H77      1.0000 0.07250  0.76850  0.31680  Biso   1.000  H
  C97      1.0000 0.01230  0.92910  0.27956  Biso   1.000  C
  H78      1.0000 0.97500  0.97700  0.27760  Biso   1.000  H
  C98      1.0000 0.13800  0.95710  0.21120  Biso   1.000  C
  C99      1.0000 0.24610  0.97830  0.22620  Biso   1.000  C
  C100     1.0000 0.20700  0.01930  0.23480  Biso   1.000  C
  H79      1.0000 0.14800  0.93000  0.18300  Biso   1.000  H
  H80      1.0000 0.09000  0.98700  0.20000  Biso   1.000  H
  N61      1.0000 0.66140  0.84080  0.24969  Biso   1.000  N
  N62      1.0000 0.62500  0.91230  0.26250  Biso   1.000  N
  N63      1.0000 0.75450  0.87748  0.31270  Biso   1.000  N
  C101     1.0000 0.68380  0.93240  0.30000  Biso   1.000  C
  H81      1.0000 0.67750  0.98150  0.31680  Biso   1.000  H
  C102     1.0000 0.73770  0.82090  0.27956  Biso   1.000  C
  H82      1.0000 0.77500  0.77300  0.27760  Biso   1.000  H
  C103     1.0000 0.61200  0.79290  0.21120  Biso   1.000  C
  C104     1.0000 0.50390  0.77170  0.22620  Biso   1.000  C
  C105     1.0000 0.54300  0.73070  0.23480  Biso   1.000  C
  H83      1.0000 0.60200  0.82000  0.18300  Biso   1.000  H
  H84      1.0000 0.66000  0.76300  0.20000  Biso   1.000  H
  N64      1.0000 0.66140  0.34080  0.74969  Biso   1.000  N
  N65      1.0000 0.62500  0.41230  0.76250  Biso   1.000  N
  N66      1.0000 0.75450  0.37748  0.81270  Biso   1.000  N
  C106     1.0000 0.68380  0.43240  0.80000  Biso   1.000  C
  H85      1.0000 0.67750  0.48150  0.81680  Biso   1.000  H
  C107     1.0000 0.73770  0.32090  0.77956  Biso   1.000  C
  H86      1.0000 0.77500  0.27300  0.77760  Biso   1.000  H
  C108     1.0000 0.61200  0.29290  0.71120  Biso   1.000  C
  C109     1.0000 0.50390  0.27170  0.72620  Biso   1.000  C
  C110     1.0000 0.54300  0.23070  0.73480  Biso   1.000  C
  H87      1.0000 0.60200  0.32000  0.68300  Biso   1.000  H
  H88      1.0000 0.66000  0.26300  0.70000  Biso   1.000  H
  N67      1.0000 0.16140  0.84080  0.74969  Biso   1.000  N
  N68      1.0000 0.12500  0.91230  0.76250  Biso   1.000  N
  N69      1.0000 0.25450  0.87748  0.81270  Biso   1.000  N
  C111     1.0000 0.18380  0.93240  0.80000  Biso   1.000  C
  H89      1.0000 0.17750  0.98150  0.81680  Biso   1.000  H
  C112     1.0000 0.23770  0.82090  0.77956  Biso   1.000  C
  H90      1.0000 0.27500  0.77300  0.77760  Biso   1.000  H
  C113     1.0000 0.11200  0.79290  0.71120  Biso   1.000  C
  C114     1.0000 0.00390  0.77170  0.72620  Biso   1.000  C
  C115     1.0000 0.04300  0.73070  0.73480  Biso   1.000  C
  H91      1.0000 0.10200  0.82000  0.68300  Biso   1.000  H
  H92      1.0000 0.16000  0.76300  0.70000  Biso   1.000  H
  N70      1.0000 0.16140  0.34080  0.24969  Biso   1.000  N
  N71      1.0000 0.12500  0.41230  0.26250  Biso   1.000  N
  N72      1.0000 0.25450  0.37748  0.31270  Biso   1.000  N
  C116     1.0000 0.18380  0.43240  0.30000  Biso   1.000  C
  H93      1.0000 0.17750  0.48150  0.31680  Biso   1.000  H
  C117     1.0000 0.23770  0.32090  0.27956  Biso   1.000  C
  H94      1.0000 0.27500  0.27300  0.27760  Biso   1.000  H
  C118     1.0000 0.11200  0.29290  0.21120  Biso   1.000  C
  C119     1.0000 0.00390  0.27170  0.22620  Biso   1.000  C
  C120     1.0000 0.04300  0.23070  0.23480  Biso   1.000  C
  H95      1.0000 0.10200  0.32000  0.18300  Biso   1.000  H
  H96      1.0000 0.16000  0.26300  0.20000  Biso   1.000  H
  N73      1.0000 0.66140  0.40920  0.00031  Biso   1.000  N
  N74      1.0000 0.62500  0.33770  0.98750  Biso   1.000  N
  N75      1.0000 0.75450  0.37252  0.93730  Biso   1.000  N
  C121     1.0000 0.68380  0.31760  0.95000  Biso   1.000  C
  H97      1.0000 0.67750  0.26850  0.93320  Biso   1.000  H
  C122     1.0000 0.73770  0.42910  0.97044  Biso   1.000  C
  H98      1.0000 0.77500  0.47700  0.97240  Biso   1.000  H
  C123     1.0000 0.61200  0.45710  0.03880  Biso   1.000  C
  C124     1.0000 0.50390  0.47830  0.02380  Biso   1.000  C
  C125     1.0000 0.54300  0.51930  0.01520  Biso   1.000  C
  H99      1.0000 0.60200  0.43000  0.06700  Biso   1.000  H
  H100     1.0000 0.66000  0.48700  0.05000  Biso   1.000  H
  N76      1.0000 0.66140  0.90920  0.50031  Biso   1.000  N
  N77      1.0000 0.62500  0.83770  0.48750  Biso   1.000  N
  N78      1.0000 0.75450  0.87252  0.43730  Biso   1.000  N
  C126     1.0000 0.68380  0.81760  0.45000  Biso   1.000  C
  H101     1.0000 0.67750  0.76850  0.43320  Biso   1.000  H
  C127     1.0000 0.73770  0.92910  0.47044  Biso   1.000  C
  H102     1.0000 0.77500  0.97700  0.47240  Biso   1.000  H
  C128     1.0000 0.61200  0.95710  0.53880  Biso   1.000  C
  C129     1.0000 0.50390  0.97830  0.52380  Biso   1.000  C
  C130     1.0000 0.54300  0.01930  0.51520  Biso   1.000  C
  H103     1.0000 0.60200  0.93000  0.56700  Biso   1.000  H
  H104     1.0000 0.66000  0.98700  0.55000  Biso   1.000  H
  N79      1.0000 0.16140  0.40920  0.50031  Biso   1.000  N
  N80      1.0000 0.12500  0.33770  0.48750  Biso   1.000  N
  N81      1.0000 0.25450  0.37252  0.43730  Biso   1.000  N
  C131     1.0000 0.18380  0.31760  0.45000  Biso   1.000  C
  H105     1.0000 0.17750  0.26850  0.43320  Biso   1.000  H
  C132     1.0000 0.23770  0.42910  0.47044  Biso   1.000  C
  H106     1.0000 0.27500  0.47700  0.47240  Biso   1.000  H
  C133     1.0000 0.11200  0.45710  0.53880  Biso   1.000  C
  C134     1.0000 0.00390  0.47830  0.52380  Biso   1.000  C
  C135     1.0000 0.04300  0.51930  0.51520  Biso   1.000  C
  H107     1.0000 0.10200  0.43000  0.56700  Biso   1.000  H
  H108     1.0000 0.16000  0.48700  0.55000  Biso   1.000  H
  N82      1.0000 0.16140  0.90920  0.00031  Biso   1.000  N
  N83      1.0000 0.12500  0.83770  0.98750  Biso   1.000  N
  N84      1.0000 0.25450  0.87252  0.93730  Biso   1.000  N
  C136     1.0000 0.18380  0.81760  0.95000  Biso   1.000  C
  H109     1.0000 0.17750  0.76850  0.93320  Biso   1.000  H
  C137     1.0000 0.23770  0.92910  0.97044  Biso   1.000  C
  H110     1.0000 0.27500  0.97700  0.97240  Biso   1.000  H
  C138     1.0000 0.11200  0.95710  0.03880  Biso   1.000  C
  C139     1.0000 0.00390  0.97830  0.02380  Biso   1.000  C
  C140     1.0000 0.04300  0.01930  0.01520  Biso   1.000  C
  H111     1.0000 0.10200  0.93000  0.06700  Biso   1.000  H
  H112     1.0000 0.16000  0.98700  0.05000  Biso   1.000  H
  N85      1.0000 0.58860  0.84080  0.00031  Biso   1.000  N
  N86      1.0000 0.62500  0.91230  0.98750  Biso   1.000  N
  N87      1.0000 0.49550  0.87748  0.93730  Biso   1.000  N
  C141     1.0000 0.56620  0.93240  0.95000  Biso   1.000  C
  H113     1.0000 0.57250  0.98150  0.93320  Biso   1.000  H
  C142     1.0000 0.51230  0.82090  0.97044  Biso   1.000  C
  H114     1.0000 0.47500  0.77300  0.97240  Biso   1.000  H
  C143     1.0000 0.63800  0.79290  0.03880  Biso   1.000  C
  C144     1.0000 0.74610  0.77170  0.02380  Biso   1.000  C
  C145     1.0000 0.70700  0.73070  0.01520  Biso   1.000  C
  H115     1.0000 0.64800  0.82000  0.06700  Biso   1.000  H
  H116     1.0000 0.59000  0.76300  0.05000  Biso   1.000  H
  N88      1.0000 0.58860  0.34080  0.50031  Biso   1.000  N
  N89      1.0000 0.62500  0.41230  0.48750  Biso   1.000  N
  N90      1.0000 0.49550  0.37748  0.43730  Biso   1.000  N
  C146     1.0000 0.56620  0.43240  0.45000  Biso   1.000  C
  H117     1.0000 0.57250  0.48150  0.43320  Biso   1.000  H
  C147     1.0000 0.51230  0.32090  0.47044  Biso   1.000  C
  H118     1.0000 0.47500  0.27300  0.47240  Biso   1.000  H
  C148     1.0000 0.63800  0.29290  0.53880  Biso   1.000  C
  C149     1.0000 0.74610  0.27170  0.52380  Biso   1.000  C
  C150     1.0000 0.70700  0.23070  0.51520  Biso   1.000  C
  H119     1.0000 0.64800  0.32000  0.56700  Biso   1.000  H
  H120     1.0000 0.59000  0.26300  0.55000  Biso   1.000  H
  N91      1.0000 0.08860  0.84080  0.50031  Biso   1.000  N
  N92      1.0000 0.12500  0.91230  0.48750  Biso   1.000  N
  N93      1.0000 0.99550  0.87748  0.43730  Biso   1.000  N
  C151     1.0000 0.06620  0.93240  0.45000  Biso   1.000  C
  H121     1.0000 0.07250  0.98150  0.43320  Biso   1.000  H
  C152     1.0000 0.01230  0.82090  0.47044  Biso   1.000  C
  H122     1.0000 0.97500  0.77300  0.47240  Biso   1.000  H
  C153     1.0000 0.13800  0.79290  0.53880  Biso   1.000  C
  C154     1.0000 0.24610  0.77170  0.52380  Biso   1.000  C
  C155     1.0000 0.20700  0.73070  0.51520  Biso   1.000  C
  H123     1.0000 0.14800  0.82000  0.56700  Biso   1.000  H
  H124     1.0000 0.09000  0.76300  0.55000  Biso   1.000  H
  N94      1.0000 0.08860  0.34080  0.00031  Biso   1.000  N
  N95      1.0000 0.12500  0.41230  0.98750  Biso   1.000  N
  N96      1.0000 0.99550  0.37748  0.93730  Biso   1.000  N
  C156     1.0000 0.06620  0.43240  0.95000  Biso   1.000  C
  H125     1.0000 0.07250  0.48150  0.93320  Biso   1.000  H
  C157     1.0000 0.01230  0.32090  0.97044  Biso   1.000  C
  H126     1.0000 0.97500  0.27300  0.97240  Biso   1.000  H
  C158     1.0000 0.13800  0.29290  0.03880  Biso   1.000  C
  C159     1.0000 0.24610  0.27170  0.02380  Biso   1.000  C
  C160     1.0000 0.20700  0.23070  0.01520  Biso   1.000  C
  H127     1.0000 0.14800  0.32000  0.06700  Biso   1.000  H
  H128     1.0000 0.09000  0.26300  0.05000  Biso   1.000  H
  Cd1      1.0000 0.62500  0.62500  0.62500  Biso   1.000  Cd
  Cd2      1.0000 0.12500  0.12500  0.62500  Biso   1.000  Cd
  Cd3      1.0000 0.12500  0.62500  0.12500  Biso   1.000  Cd
  Cd4      1.0000 0.62500  0.12500  0.12500  Biso   1.000  Cd
  Cd5      1.0000 0.37500  0.37500  0.37500  Biso   1.000  Cd
  Cd6      1.0000 0.87500  0.87500  0.37500  Biso   1.000  Cd
  Cd7      1.0000 0.87500  0.37500  0.87500  Biso   1.000  Cd
  Cd8      1.0000 0.37500  0.87500  0.87500  Biso   1.000  Cd
