data_image0
_cell_length_a       23.5676
_cell_length_b       10.2415
_cell_length_c       16.2353
_cell_angle_alpha    90
_cell_angle_beta     108.115
_cell_angle_gamma    90

_symmetry_space_group_name_H-M    "P 1"
_symmetry_int_tables_number       1

loop_
  _symmetry_equiv_pos_as_xyz
  'x, y, z'

loop_
  _atom_site_label
  _atom_site_occupancy
  _atom_site_fract_x
  _atom_site_fract_y
  _atom_site_fract_z
  _atom_site_thermal_displace_type
  _atom_site_B_iso_or_equiv
  _atom_site_type_symbol
  Ga1      1.0000 0.29799  0.09083  0.02449  Biso   1.000  Ga
  Zn1      1.0000 0.12257  0.94329  0.89092  Biso   1.000  Zn
  Zn2      1.0000 0.19794  0.75388  0.72244  Biso   1.000  Zn
  P1       1.0000 0.23336  0.01270  0.82455  Biso   1.000  P
  P2       1.0000 0.16927  0.84718  0.53668  Biso   1.000  P
  P3       1.0000 0.16584  0.66552  0.88370  Biso   1.000  P
  P4       1.0000 0.99910  0.87650  0.74600  Biso   1.000  P
  O1       1.0000 0.24862  0.89070  0.78170  Biso   1.000  O
  O2       1.0000 0.27750  0.01640  0.91590  Biso   1.000  O
  O3       1.0000 0.24088  0.13300  0.77290  Biso   1.000  O
  O4       1.0000 0.16880  0.01080  0.82280  Biso   1.000  O
  O5       1.0000 0.14826  0.80350  0.61280  Biso   1.000  O
  O6       1.0000 0.13550  0.02800  0.00070  Biso   1.000  O
  O7       1.0000 0.23705  0.13060  0.07140  Biso   1.000  O
  O8       1.0000 0.34423  0.24270  0.03420  Biso   1.000  O
  O9       1.0000 0.14768  0.68980  0.78530  Biso   1.000  O
  O10      1.0000 0.35024  0.97560  0.10210  Biso   1.000  O
  O11      1.0000 0.13210  0.75920  0.92420  Biso   1.000  O
  O12      1.0000 0.23348  0.68720  0.92600  Biso   1.000  O
  O13      1.0000 0.04140  0.95780  0.81910  Biso   1.000  O
  O14      1.0000 0.03420  0.78390  0.70740  Biso   1.000  O
  P5       1.0000 0.48250  0.41300  0.78880  Biso   1.000  P
  Ga2      1.0000 0.79799  0.59083  0.02449  Biso   1.000  Ga
  Zn3      1.0000 0.62257  0.44329  0.89092  Biso   1.000  Zn
  Zn4      1.0000 0.69794  0.25388  0.72244  Biso   1.000  Zn
  P6       1.0000 0.73336  0.51270  0.82455  Biso   1.000  P
  P7       1.0000 0.66927  0.34718  0.53668  Biso   1.000  P
  P8       1.0000 0.66584  0.16552  0.88370  Biso   1.000  P
  P9       1.0000 0.49910  0.37650  0.74600  Biso   1.000  P
  O15      1.0000 0.74862  0.39070  0.78170  Biso   1.000  O
  O16      1.0000 0.77750  0.51640  0.91590  Biso   1.000  O
  O17      1.0000 0.74088  0.63300  0.77290  Biso   1.000  O
  O18      1.0000 0.66880  0.51080  0.82280  Biso   1.000  O
  O19      1.0000 0.64826  0.30350  0.61280  Biso   1.000  O
  O20      1.0000 0.63550  0.52800  0.00070  Biso   1.000  O
  O21      1.0000 0.73705  0.63060  0.07140  Biso   1.000  O
  O22      1.0000 0.84423  0.74270  0.03420  Biso   1.000  O
  O23      1.0000 0.64768  0.18980  0.78530  Biso   1.000  O
  O24      1.0000 0.85024  0.47560  0.10210  Biso   1.000  O
  O25      1.0000 0.63210  0.25920  0.92420  Biso   1.000  O
  O26      1.0000 0.73348  0.18720  0.92600  Biso   1.000  O
  O27      1.0000 0.54140  0.45780  0.81910  Biso   1.000  O
  O28      1.0000 0.53420  0.28390  0.70740  Biso   1.000  O
  P10      1.0000 0.98250  0.91300  0.78880  Biso   1.000  P
  Ga3      1.0000 0.70201  0.09083  0.47551  Biso   1.000  Ga
  Zn5      1.0000 0.87743  0.94329  0.60908  Biso   1.000  Zn
  Zn6      1.0000 0.80206  0.75388  0.77756  Biso   1.000  Zn
  P11      1.0000 0.76664  0.01270  0.67545  Biso   1.000  P
  P12      1.0000 0.83073  0.84718  0.96332  Biso   1.000  P
  P13      1.0000 0.83416  0.66552  0.61630  Biso   1.000  P
  P14      1.0000 0.00090  0.87650  0.75400  Biso   1.000  P
  O29      1.0000 0.75138  0.89070  0.71830  Biso   1.000  O
  O30      1.0000 0.72250  0.01640  0.58410  Biso   1.000  O
  O31      1.0000 0.75912  0.13300  0.72710  Biso   1.000  O
  O32      1.0000 0.83120  0.01080  0.67720  Biso   1.000  O
  O33      1.0000 0.85174  0.80350  0.88720  Biso   1.000  O
  O34      1.0000 0.86450  0.02800  0.49930  Biso   1.000  O
  O35      1.0000 0.76295  0.13060  0.42860  Biso   1.000  O
  O36      1.0000 0.65577  0.24270  0.46580  Biso   1.000  O
  O37      1.0000 0.85232  0.68980  0.71470  Biso   1.000  O
  O38      1.0000 0.64976  0.97560  0.39790  Biso   1.000  O
  O39      1.0000 0.86790  0.75920  0.57580  Biso   1.000  O
  O40      1.0000 0.76652  0.68720  0.57400  Biso   1.000  O
  O41      1.0000 0.95860  0.95780  0.68090  Biso   1.000  O
  O42      1.0000 0.96580  0.78390  0.79260  Biso   1.000  O
  P15      1.0000 0.51750  0.41300  0.71120  Biso   1.000  P
  Ga4      1.0000 0.20201  0.59083  0.47551  Biso   1.000  Ga
  Zn7      1.0000 0.37743  0.44329  0.60908  Biso   1.000  Zn
  Zn8      1.0000 0.30206  0.25388  0.77756  Biso   1.000  Zn
  P16      1.0000 0.26664  0.51270  0.67545  Biso   1.000  P
  P17      1.0000 0.33073  0.34718  0.96332  Biso   1.000  P
  P18      1.0000 0.33416  0.16552  0.61630  Biso   1.000  P
  P19      1.0000 0.50090  0.37650  0.75400  Biso   1.000  P
  O43      1.0000 0.25138  0.39070  0.71830  Biso   1.000  O
  O44      1.0000 0.22250  0.51640  0.58410  Biso   1.000  O
  O45      1.0000 0.25912  0.63300  0.72710  Biso   1.000  O
  O46      1.0000 0.33120  0.51080  0.67720  Biso   1.000  O
  O47      1.0000 0.35174  0.30350  0.88720  Biso   1.000  O
  O48      1.0000 0.36450  0.52800  0.49930  Biso   1.000  O
  O49      1.0000 0.26295  0.63060  0.42860  Biso   1.000  O
  O50      1.0000 0.15577  0.74270  0.46580  Biso   1.000  O
  O51      1.0000 0.35232  0.18980  0.71470  Biso   1.000  O
  O52      1.0000 0.14976  0.47560  0.39790  Biso   1.000  O
  O53      1.0000 0.36790  0.25920  0.57580  Biso   1.000  O
  O54      1.0000 0.26652  0.18720  0.57400  Biso   1.000  O
  O55      1.0000 0.45860  0.45780  0.68090  Biso   1.000  O
  O56      1.0000 0.46580  0.28390  0.79260  Biso   1.000  O
  P20      1.0000 0.01750  0.91300  0.71120  Biso   1.000  P
  Ga5      1.0000 0.70201  0.90917  0.97551  Biso   1.000  Ga
  Zn9      1.0000 0.87743  0.05671  0.10908  Biso   1.000  Zn
  Zn10     1.0000 0.80206  0.24612  0.27756  Biso   1.000  Zn
  P21      1.0000 0.76664  0.98730  0.17545  Biso   1.000  P
  P22      1.0000 0.83073  0.15282  0.46332  Biso   1.000  P
  P23      1.0000 0.83416  0.33448  0.11630  Biso   1.000  P
  P24      1.0000 0.00090  0.12350  0.25400  Biso   1.000  P
  O57      1.0000 0.75138  0.10930  0.21830  Biso   1.000  O
  O58      1.0000 0.72250  0.98360  0.08410  Biso   1.000  O
  O59      1.0000 0.75912  0.86700  0.22710  Biso   1.000  O
  O60      1.0000 0.83120  0.98920  0.17720  Biso   1.000  O
  O61      1.0000 0.85174  0.19650  0.38720  Biso   1.000  O
  O62      1.0000 0.86450  0.97200  0.99930  Biso   1.000  O
  O63      1.0000 0.76295  0.86940  0.92860  Biso   1.000  O
  O64      1.0000 0.65577  0.75730  0.96580  Biso   1.000  O
  O65      1.0000 0.85232  0.31020  0.21470  Biso   1.000  O
  O66      1.0000 0.64976  0.02440  0.89790  Biso   1.000  O
  O67      1.0000 0.86790  0.24080  0.07580  Biso   1.000  O
  O68      1.0000 0.76652  0.31280  0.07400  Biso   1.000  O
  O69      1.0000 0.95860  0.04220  0.18090  Biso   1.000  O
  O70      1.0000 0.96580  0.21610  0.29260  Biso   1.000  O
  P25      1.0000 0.51750  0.58700  0.21120  Biso   1.000  P
  Ga6      1.0000 0.20201  0.40917  0.97551  Biso   1.000  Ga
  Zn11     1.0000 0.37743  0.55671  0.10908  Biso   1.000  Zn
  Zn12     1.0000 0.30206  0.74612  0.27756  Biso   1.000  Zn
  P26      1.0000 0.26664  0.48730  0.17545  Biso   1.000  P
  P27      1.0000 0.33073  0.65282  0.46332  Biso   1.000  P
  P28      1.0000 0.33416  0.83448  0.11630  Biso   1.000  P
  P29      1.0000 0.50090  0.62350  0.25400  Biso   1.000  P
  O71      1.0000 0.25138  0.60930  0.21830  Biso   1.000  O
  O72      1.0000 0.22250  0.48360  0.08410  Biso   1.000  O
  O73      1.0000 0.25912  0.36700  0.22710  Biso   1.000  O
  O74      1.0000 0.33120  0.48920  0.17720  Biso   1.000  O
  O75      1.0000 0.35174  0.69650  0.38720  Biso   1.000  O
  O76      1.0000 0.36450  0.47200  0.99930  Biso   1.000  O
  O77      1.0000 0.26295  0.36940  0.92860  Biso   1.000  O
  O78      1.0000 0.15577  0.25730  0.96580  Biso   1.000  O
  O79      1.0000 0.35232  0.81020  0.21470  Biso   1.000  O
  O80      1.0000 0.14976  0.52440  0.89790  Biso   1.000  O
  O81      1.0000 0.36790  0.74080  0.07580  Biso   1.000  O
  O82      1.0000 0.26652  0.81280  0.07400  Biso   1.000  O
  O83      1.0000 0.45860  0.54220  0.18090  Biso   1.000  O
  O84      1.0000 0.46580  0.71610  0.29260  Biso   1.000  O
  P30      1.0000 0.01750  0.08700  0.21120  Biso   1.000  P
  Ga7      1.0000 0.29799  0.90917  0.52449  Biso   1.000  Ga
  Zn13     1.0000 0.12257  0.05671  0.39092  Biso   1.000  Zn
  Zn14     1.0000 0.19794  0.24612  0.22244  Biso   1.000  Zn
  P31      1.0000 0.23336  0.98730  0.32455  Biso   1.000  P
  P32      1.0000 0.16927  0.15282  0.03668  Biso   1.000  P
  P33      1.0000 0.16584  0.33448  0.38370  Biso   1.000  P
  P34      1.0000 0.99910  0.12350  0.24600  Biso   1.000  P
  O85      1.0000 0.24862  0.10930  0.28170  Biso   1.000  O
  O86      1.0000 0.27750  0.98360  0.41590  Biso   1.000  O
  O87      1.0000 0.24088  0.86700  0.27290  Biso   1.000  O
  O88      1.0000 0.16880  0.98920  0.32280  Biso   1.000  O
  O89      1.0000 0.14826  0.19650  0.11280  Biso   1.000  O
  O90      1.0000 0.13550  0.97200  0.50070  Biso   1.000  O
  O91      1.0000 0.23705  0.86940  0.57140  Biso   1.000  O
  O92      1.0000 0.34423  0.75730  0.53420  Biso   1.000  O
  O93      1.0000 0.14768  0.31020  0.28530  Biso   1.000  O
  O94      1.0000 0.35024  0.02440  0.60210  Biso   1.000  O
  O95      1.0000 0.13210  0.24080  0.42420  Biso   1.000  O
  O96      1.0000 0.23348  0.31280  0.42600  Biso   1.000  O
  O97      1.0000 0.04140  0.04220  0.31910  Biso   1.000  O
  O98      1.0000 0.03420  0.21610  0.20740  Biso   1.000  O
  P35      1.0000 0.48250  0.58700  0.28880  Biso   1.000  P
  Ga8      1.0000 0.79799  0.40917  0.52449  Biso   1.000  Ga
  Zn15     1.0000 0.62257  0.55671  0.39092  Biso   1.000  Zn
  Zn16     1.0000 0.69794  0.74612  0.22244  Biso   1.000  Zn
  P36      1.0000 0.73336  0.48730  0.32455  Biso   1.000  P
  P37      1.0000 0.66927  0.65282  0.03668  Biso   1.000  P
  P38      1.0000 0.66584  0.83448  0.38370  Biso   1.000  P
  P39      1.0000 0.49910  0.62350  0.24600  Biso   1.000  P
  O99      1.0000 0.74862  0.60930  0.28170  Biso   1.000  O
  O100     1.0000 0.77750  0.48360  0.41590  Biso   1.000  O
  O101     1.0000 0.74088  0.36700  0.27290  Biso   1.000  O
  O102     1.0000 0.66880  0.48920  0.32280  Biso   1.000  O
  O103     1.0000 0.64826  0.69650  0.11280  Biso   1.000  O
  O104     1.0000 0.63550  0.47200  0.50070  Biso   1.000  O
  O105     1.0000 0.73705  0.36940  0.57140  Biso   1.000  O
  O106     1.0000 0.84423  0.25730  0.53420  Biso   1.000  O
  O107     1.0000 0.64768  0.81020  0.28530  Biso   1.000  O
  O108     1.0000 0.85024  0.52440  0.60210  Biso   1.000  O
  O109     1.0000 0.63210  0.74080  0.42420  Biso   1.000  O
  O110     1.0000 0.73348  0.81280  0.42600  Biso   1.000  O
  O111     1.0000 0.54140  0.54220  0.31910  Biso   1.000  O
  O112     1.0000 0.53420  0.71610  0.20740  Biso   1.000  O
  P40      1.0000 0.98250  0.08700  0.28880  Biso   1.000  P
