data_image0
_cell_length_a       33.152
_cell_length_b       14.4302
_cell_length_c       14.0799
_cell_angle_alpha    90
_cell_angle_beta     90
_cell_angle_gamma    90

_symmetry_space_group_name_H-M    "P 1"
_symmetry_int_tables_number       1

loop_
  _symmetry_equiv_pos_as_xyz
  'x, y, z'

loop_
  _atom_site_label
  _atom_site_occupancy
  _atom_site_fract_x
  _atom_site_fract_y
  _atom_site_fract_z
  _atom_site_thermal_displace_type
  _atom_site_B_iso_or_equiv
  _atom_site_type_symbol
  O1       1.0000 0.28220  0.64720  0.74630  Biso   1.000  O
  O2       1.0000 0.65210  0.35240  0.58310  Biso   1.000  O
  O3       1.0000 0.26891  0.34930  0.07450  Biso   1.000  O
  O4       1.0000 0.61050  0.34410  0.45860  Biso   1.000  O
  C1       1.0000 0.44471  0.49150  0.97020  Biso   1.000  C
  O5       1.0000 0.23962  0.35300  0.93060  Biso   1.000  O
  C2       1.0000 0.32320  0.55630  0.84840  Biso   1.000  C
  C3       1.0000 0.44784  0.47830  0.86990  Biso   1.000  C
  H1       1.0000 0.42400  0.46820  0.83400  Biso   1.000  H
  C4       1.0000 0.52041  0.49570  0.87550  Biso   1.000  C
  C5       1.0000 0.29891  0.44020  0.95420  Biso   1.000  C
  C6       1.0000 0.36088  0.55180  0.89140  Biso   1.000  C
  H2       1.0000 0.38230  0.58940  0.86840  Biso   1.000  H
  C7       1.0000 0.62159  0.37520  0.53790  Biso   1.000  C
  C8       1.0000 0.33635  0.43860  0.99930  Biso   1.000  C
  H3       1.0000 0.34040  0.39940  0.05270  Biso   1.000  H
  C9       1.0000 0.59328  0.44440  0.58240  Biso   1.000  C
  C10      1.0000 0.36743  0.49320  0.96720  Biso   1.000  C
  O6       1.0000 0.34921  0.65080  0.72800  Biso   1.000  O
  C11      1.0000 0.40683  0.49250  0.01800  Biso   1.000  C
  C12      1.0000 0.48096  0.49870  0.02450  Biso   1.000  C
  C13      1.0000 0.31754  0.62400  0.76720  Biso   1.000  C
  C14      1.0000 0.59311  0.50550  0.88290  Biso   1.000  C
  H4       1.0000 0.61830  0.50650  0.85070  Biso   1.000  H
  O7       1.0000 0.48405  0.65380  0.55550  Biso   1.000  O
  C15      1.0000 0.29228  0.49920  0.87900  Biso   1.000  C
  H5       1.0000 0.26670  0.50070  0.84840  Biso   1.000  H
  C16      1.0000 0.55826  0.50200  0.82940  Biso   1.000  C
  C17      1.0000 0.26587  0.37480  0.98900  Biso   1.000  C
  C18      1.0000 0.48367  0.48000  0.82490  Biso   1.000  C
  H6       1.0000 0.48460  0.47040  0.75820  Biso   1.000  H
  C19      1.0000 0.59043  0.44630  0.68070  Biso   1.000  C
  H7       1.0000 0.60780  0.40980  0.71930  Biso   1.000  H
  C20      1.0000 0.56183  0.50250  0.71990  Biso   1.000  C
  C21      1.0000 0.54130  0.55930  0.57040  Biso   1.000  C
  C22      1.0000 0.53780  0.55950  0.66830  Biso   1.000  C
  H8       1.0000 0.51880  0.59890  0.69880  Biso   1.000  H
  C23      1.0000 0.51430  0.62020  0.51390  Biso   1.000  C
  O8       1.0000 0.52310  0.63330  0.42760  Biso   1.000  O
  C24      1.0000 0.56890  0.49960  0.52740  Biso   1.000  C
  H9       1.0000 0.57080  0.49710  0.46010  Biso   1.000  H
  C25      1.0000 0.19760  0.29310  0.70740  Biso   1.000  C
  C26      1.0000 0.19140  0.28800  0.53000  Biso   1.000  C
  C27      1.0000 0.19100  0.14720  0.63100  Biso   1.000  C
  C28      1.0000 0.55400  0.17400  0.28100  Biso   1.000  C
  O9       1.0000 0.21780  0.35280  0.24630  Biso   1.000  O
  O10      1.0000 0.84790  0.64760  0.08310  Biso   1.000  O
  O11      1.0000 0.23109  0.65070  0.57450  Biso   1.000  O
  O12      1.0000 0.88950  0.65590  0.95860  Biso   1.000  O
  C29      1.0000 0.05529  0.50850  0.47020  Biso   1.000  C
  O13      1.0000 0.26038  0.64700  0.43060  Biso   1.000  O
  C30      1.0000 0.17680  0.44370  0.34840  Biso   1.000  C
  C31      1.0000 0.05216  0.52170  0.36990  Biso   1.000  C
  H10      1.0000 0.07600  0.53180  0.33400  Biso   1.000  H
  C32      1.0000 0.97959  0.50430  0.37550  Biso   1.000  C
  C33      1.0000 0.20109  0.55980  0.45420  Biso   1.000  C
  C34      1.0000 0.13912  0.44820  0.39140  Biso   1.000  C
  H11      1.0000 0.11770  0.41060  0.36840  Biso   1.000  H
  C35      1.0000 0.87841  0.62480  0.03790  Biso   1.000  C
  C36      1.0000 0.16365  0.56140  0.49930  Biso   1.000  C
  H12      1.0000 0.15960  0.60060  0.55270  Biso   1.000  H
  C37      1.0000 0.90672  0.55560  0.08240  Biso   1.000  C
  C38      1.0000 0.13257  0.50680  0.46720  Biso   1.000  C
  O14      1.0000 0.15079  0.34920  0.22800  Biso   1.000  O
  C39      1.0000 0.09317  0.50750  0.51800  Biso   1.000  C
  C40      1.0000 0.01904  0.50130  0.52450  Biso   1.000  C
  C41      1.0000 0.18246  0.37600  0.26720  Biso   1.000  C
  C42      1.0000 0.90689  0.49450  0.38290  Biso   1.000  C
  H13      1.0000 0.88170  0.49350  0.35070  Biso   1.000  H
  O15      1.0000 0.01595  0.34620  0.05550  Biso   1.000  O
  C43      1.0000 0.20772  0.50080  0.37900  Biso   1.000  C
  H14      1.0000 0.23330  0.49930  0.34840  Biso   1.000  H
  C44      1.0000 0.94174  0.49800  0.32940  Biso   1.000  C
  C45      1.0000 0.23413  0.62520  0.48900  Biso   1.000  C
  C46      1.0000 0.01633  0.52000  0.32490  Biso   1.000  C
  H15      1.0000 0.01540  0.52960  0.25820  Biso   1.000  H
  C47      1.0000 0.90957  0.55370  0.18070  Biso   1.000  C
  H16      1.0000 0.89220  0.59020  0.21930  Biso   1.000  H
  C48      1.0000 0.93817  0.49750  0.21990  Biso   1.000  C
  C49      1.0000 0.95870  0.44070  0.07040  Biso   1.000  C
  C50      1.0000 0.96220  0.44050  0.16830  Biso   1.000  C
  H17      1.0000 0.98120  0.40110  0.19880  Biso   1.000  H
  C51      1.0000 0.98570  0.37980  0.01390  Biso   1.000  C
  O16      1.0000 0.97690  0.36670  0.92760  Biso   1.000  O
  C52      1.0000 0.93110  0.50040  0.02740  Biso   1.000  C
  H18      1.0000 0.92920  0.50290  0.96010  Biso   1.000  H
  C53      1.0000 0.30240  0.70690  0.20740  Biso   1.000  C
  C54      1.0000 0.30860  0.71200  0.03000  Biso   1.000  C
  C55      1.0000 0.30900  0.85280  0.13100  Biso   1.000  C
  C56      1.0000 0.94600  0.82600  0.78100  Biso   1.000  C
  O17      1.0000 0.71780  0.14720  0.25370  Biso   1.000  O
  O18      1.0000 0.34790  0.85240  0.41690  Biso   1.000  O
  O19      1.0000 0.73109  0.84930  0.92550  Biso   1.000  O
  O20      1.0000 0.38950  0.84410  0.54140  Biso   1.000  O
  C57      1.0000 0.55529  0.99150  0.02980  Biso   1.000  C
  O21      1.0000 0.76038  0.85300  0.06940  Biso   1.000  O
  C58      1.0000 0.67680  0.05630  0.15160  Biso   1.000  C
  C59      1.0000 0.55216  0.97830  0.13010  Biso   1.000  C
  H19      1.0000 0.57600  0.96820  0.16600  Biso   1.000  H
  C60      1.0000 0.47959  0.99570  0.12450  Biso   1.000  C
  C61      1.0000 0.70109  0.94020  0.04580  Biso   1.000  C
  C62      1.0000 0.63912  0.05180  0.10860  Biso   1.000  C
  H20      1.0000 0.61770  0.08940  0.13160  Biso   1.000  H
  C63      1.0000 0.37841  0.87520  0.46210  Biso   1.000  C
  C64      1.0000 0.66365  0.93860  0.00070  Biso   1.000  C
  H21      1.0000 0.65960  0.89940  0.94730  Biso   1.000  H
  C65      1.0000 0.40672  0.94440  0.41760  Biso   1.000  C
  C66      1.0000 0.63257  0.99320  0.03280  Biso   1.000  C
  O22      1.0000 0.65079  0.15080  0.27200  Biso   1.000  O
  C67      1.0000 0.59317  0.99250  0.98200  Biso   1.000  C
  C68      1.0000 0.51904  0.99870  0.97550  Biso   1.000  C
  C69      1.0000 0.68246  0.12400  0.23280  Biso   1.000  C
  C70      1.0000 0.40689  0.00550  0.11710  Biso   1.000  C
  H22      1.0000 0.38170  0.00650  0.14930  Biso   1.000  H
  O23      1.0000 0.51595  0.15380  0.44450  Biso   1.000  O
  C71      1.0000 0.70772  0.99920  0.12100  Biso   1.000  C
  H23      1.0000 0.73330  0.00070  0.15160  Biso   1.000  H
  C72      1.0000 0.44174  0.00200  0.17060  Biso   1.000  C
  C73      1.0000 0.73413  0.87480  0.01100  Biso   1.000  C
  C74      1.0000 0.51633  0.98000  0.17510  Biso   1.000  C
  H24      1.0000 0.51540  0.97040  0.24180  Biso   1.000  H
  C75      1.0000 0.40957  0.94630  0.31930  Biso   1.000  C
  H25      1.0000 0.39220  0.90980  0.28070  Biso   1.000  H
  C76      1.0000 0.43817  0.00250  0.28010  Biso   1.000  C
  C77      1.0000 0.45870  0.05930  0.42960  Biso   1.000  C
  C78      1.0000 0.46220  0.05950  0.33170  Biso   1.000  C
  H26      1.0000 0.48120  0.09890  0.30120  Biso   1.000  H
  C79      1.0000 0.48570  0.12020  0.48610  Biso   1.000  C
  O24      1.0000 0.47690  0.13330  0.57240  Biso   1.000  O
  C80      1.0000 0.43110  0.99960  0.47260  Biso   1.000  C
  H27      1.0000 0.42920  0.99710  0.53990  Biso   1.000  H
  C81      1.0000 0.80240  0.79310  0.29260  Biso   1.000  C
  C82      1.0000 0.80860  0.78800  0.47000  Biso   1.000  C
  C83      1.0000 0.80900  0.64720  0.36900  Biso   1.000  C
  C84      1.0000 0.44600  0.67400  0.71900  Biso   1.000  C
  O25      1.0000 0.78220  0.85280  0.75370  Biso   1.000  O
  O26      1.0000 0.15210  0.14760  0.91690  Biso   1.000  O
  O27      1.0000 0.76891  0.15070  0.42550  Biso   1.000  O
  O28      1.0000 0.11050  0.15590  0.04140  Biso   1.000  O
  C85      1.0000 0.94471  0.00850  0.52980  Biso   1.000  C
  O29      1.0000 0.73962  0.14700  0.56940  Biso   1.000  O
  C86      1.0000 0.82320  0.94370  0.65160  Biso   1.000  C
  C87      1.0000 0.94784  0.02170  0.63010  Biso   1.000  C
  H28      1.0000 0.92400  0.03180  0.66600  Biso   1.000  H
  C88      1.0000 0.02041  0.00430  0.62450  Biso   1.000  C
  C89      1.0000 0.79891  0.05980  0.54580  Biso   1.000  C
  C90      1.0000 0.86088  0.94820  0.60860  Biso   1.000  C
  H29      1.0000 0.88230  0.91060  0.63160  Biso   1.000  H
  C91      1.0000 0.12159  0.12480  0.96210  Biso   1.000  C
  C92      1.0000 0.83635  0.06140  0.50070  Biso   1.000  C
  H30      1.0000 0.84040  0.10060  0.44730  Biso   1.000  H
  C93      1.0000 0.09328  0.05560  0.91760  Biso   1.000  C
  C94      1.0000 0.86743  0.00680  0.53280  Biso   1.000  C
  O30      1.0000 0.84921  0.84920  0.77200  Biso   1.000  O
  C95      1.0000 0.90683  0.00750  0.48200  Biso   1.000  C
  C96      1.0000 0.98096  0.00130  0.47550  Biso   1.000  C
  C97      1.0000 0.81754  0.87600  0.73280  Biso   1.000  C
  C98      1.0000 0.09311  0.99450  0.61710  Biso   1.000  C
  H31      1.0000 0.11830  0.99350  0.64930  Biso   1.000  H
  O31      1.0000 0.98405  0.84620  0.94450  Biso   1.000  O
  C99      1.0000 0.79228  0.00080  0.62100  Biso   1.000  C
  H32      1.0000 0.76670  0.99930  0.65160  Biso   1.000  H
  C100     1.0000 0.05826  0.99800  0.67060  Biso   1.000  C
  C101     1.0000 0.76587  0.12520  0.51100  Biso   1.000  C
  C102     1.0000 0.98367  0.02000  0.67510  Biso   1.000  C
  H33      1.0000 0.98460  0.02960  0.74180  Biso   1.000  H
  C103     1.0000 0.09043  0.05370  0.81930  Biso   1.000  C
  H34      1.0000 0.10780  0.09020  0.78070  Biso   1.000  H
  C104     1.0000 0.06183  0.99750  0.78010  Biso   1.000  C
  C105     1.0000 0.04130  0.94070  0.92960  Biso   1.000  C
  C106     1.0000 0.03780  0.94050  0.83170  Biso   1.000  C
  H35      1.0000 0.01880  0.90110  0.80120  Biso   1.000  H
  C107     1.0000 0.01430  0.87980  0.98610  Biso   1.000  C
  O32      1.0000 0.02310  0.86670  0.07240  Biso   1.000  O
  C108     1.0000 0.06890  0.00040  0.97260  Biso   1.000  C
  H36      1.0000 0.07080  0.00290  0.03990  Biso   1.000  H
  C109     1.0000 0.69760  0.20690  0.79260  Biso   1.000  C
  C110     1.0000 0.69140  0.21200  0.97000  Biso   1.000  C
  C111     1.0000 0.69100  0.35280  0.86900  Biso   1.000  C
  C112     1.0000 0.05400  0.32600  0.21900  Biso   1.000  C
  O33      1.0000 0.71780  0.35280  0.25370  Biso   1.000  O
  O34      1.0000 0.34790  0.64760  0.41690  Biso   1.000  O
  O35      1.0000 0.73109  0.65070  0.92550  Biso   1.000  O
  O36      1.0000 0.38950  0.65590  0.54140  Biso   1.000  O
  C113     1.0000 0.55529  0.50850  0.02980  Biso   1.000  C
  O37      1.0000 0.76038  0.64700  0.06940  Biso   1.000  O
  C114     1.0000 0.67680  0.44370  0.15160  Biso   1.000  C
  C115     1.0000 0.55216  0.52170  0.13010  Biso   1.000  C
  H37      1.0000 0.57600  0.53180  0.16600  Biso   1.000  H
  C116     1.0000 0.47959  0.50430  0.12450  Biso   1.000  C
  C117     1.0000 0.70109  0.55980  0.04580  Biso   1.000  C
  C118     1.0000 0.63912  0.44820  0.10860  Biso   1.000  C
  H38      1.0000 0.61770  0.41060  0.13160  Biso   1.000  H
  C119     1.0000 0.37841  0.62480  0.46210  Biso   1.000  C
  C120     1.0000 0.66365  0.56140  0.00070  Biso   1.000  C
  H39      1.0000 0.65960  0.60060  0.94730  Biso   1.000  H
  C121     1.0000 0.40672  0.55560  0.41760  Biso   1.000  C
  C122     1.0000 0.63257  0.50680  0.03280  Biso   1.000  C
  O38      1.0000 0.65079  0.34920  0.27200  Biso   1.000  O
  C123     1.0000 0.59317  0.50750  0.98200  Biso   1.000  C
  C124     1.0000 0.51904  0.50130  0.97550  Biso   1.000  C
  C125     1.0000 0.68246  0.37600  0.23280  Biso   1.000  C
  C126     1.0000 0.40689  0.49450  0.11710  Biso   1.000  C
  H40      1.0000 0.38170  0.49350  0.14930  Biso   1.000  H
  O39      1.0000 0.51595  0.34620  0.44450  Biso   1.000  O
  C127     1.0000 0.70772  0.50080  0.12100  Biso   1.000  C
  H41      1.0000 0.73330  0.49930  0.15160  Biso   1.000  H
  C128     1.0000 0.44174  0.49800  0.17060  Biso   1.000  C
  C129     1.0000 0.73413  0.62520  0.01100  Biso   1.000  C
  C130     1.0000 0.51633  0.52000  0.17510  Biso   1.000  C
  H42      1.0000 0.51540  0.52960  0.24180  Biso   1.000  H
  C131     1.0000 0.40957  0.55370  0.31930  Biso   1.000  C
  H43      1.0000 0.39220  0.59020  0.28070  Biso   1.000  H
  C132     1.0000 0.43817  0.49750  0.28010  Biso   1.000  C
  C133     1.0000 0.45870  0.44070  0.42960  Biso   1.000  C
  C134     1.0000 0.46220  0.44050  0.33170  Biso   1.000  C
  H44      1.0000 0.48120  0.40110  0.30120  Biso   1.000  H
  C135     1.0000 0.48570  0.37980  0.48610  Biso   1.000  C
  O40      1.0000 0.47690  0.36670  0.57240  Biso   1.000  O
  C136     1.0000 0.43110  0.50040  0.47260  Biso   1.000  C
  H45      1.0000 0.42920  0.50290  0.53990  Biso   1.000  H
  C137     1.0000 0.80240  0.70690  0.29260  Biso   1.000  C
  C138     1.0000 0.80860  0.71200  0.47000  Biso   1.000  C
  C139     1.0000 0.80900  0.85280  0.36900  Biso   1.000  C
  C140     1.0000 0.44600  0.82600  0.71900  Biso   1.000  C
  O41      1.0000 0.78220  0.64720  0.75370  Biso   1.000  O
  O42      1.0000 0.15210  0.35240  0.91690  Biso   1.000  O
  O43      1.0000 0.76891  0.34930  0.42550  Biso   1.000  O
  O44      1.0000 0.11050  0.34410  0.04140  Biso   1.000  O
  C141     1.0000 0.94471  0.49150  0.52980  Biso   1.000  C
  O45      1.0000 0.73962  0.35300  0.56940  Biso   1.000  O
  C142     1.0000 0.82320  0.55630  0.65160  Biso   1.000  C
  C143     1.0000 0.94784  0.47830  0.63010  Biso   1.000  C
  H46      1.0000 0.92400  0.46820  0.66600  Biso   1.000  H
  C144     1.0000 0.02041  0.49570  0.62450  Biso   1.000  C
  C145     1.0000 0.79891  0.44020  0.54580  Biso   1.000  C
  C146     1.0000 0.86088  0.55180  0.60860  Biso   1.000  C
  H47      1.0000 0.88230  0.58940  0.63160  Biso   1.000  H
  C147     1.0000 0.12159  0.37520  0.96210  Biso   1.000  C
  C148     1.0000 0.83635  0.43860  0.50070  Biso   1.000  C
  H48      1.0000 0.84040  0.39940  0.44730  Biso   1.000  H
  C149     1.0000 0.09328  0.44440  0.91760  Biso   1.000  C
  C150     1.0000 0.86743  0.49320  0.53280  Biso   1.000  C
  O46      1.0000 0.84921  0.65080  0.77200  Biso   1.000  O
  C151     1.0000 0.90683  0.49250  0.48200  Biso   1.000  C
  C152     1.0000 0.98096  0.49870  0.47550  Biso   1.000  C
  C153     1.0000 0.81754  0.62400  0.73280  Biso   1.000  C
  C154     1.0000 0.09311  0.50550  0.61710  Biso   1.000  C
  H49      1.0000 0.11830  0.50650  0.64930  Biso   1.000  H
  O47      1.0000 0.98405  0.65380  0.94450  Biso   1.000  O
  C155     1.0000 0.79228  0.49920  0.62100  Biso   1.000  C
  H50      1.0000 0.76670  0.50070  0.65160  Biso   1.000  H
  C156     1.0000 0.05826  0.50200  0.67060  Biso   1.000  C
  C157     1.0000 0.76587  0.37480  0.51100  Biso   1.000  C
  C158     1.0000 0.98367  0.48000  0.67510  Biso   1.000  C
  H51      1.0000 0.98460  0.47040  0.74180  Biso   1.000  H
  C159     1.0000 0.09043  0.44630  0.81930  Biso   1.000  C
  H52      1.0000 0.10780  0.40980  0.78070  Biso   1.000  H
  C160     1.0000 0.06183  0.50250  0.78010  Biso   1.000  C
  C161     1.0000 0.04130  0.55930  0.92960  Biso   1.000  C
  C162     1.0000 0.03780  0.55950  0.83170  Biso   1.000  C
  H53      1.0000 0.01880  0.59890  0.80120  Biso   1.000  H
  C163     1.0000 0.01430  0.62020  0.98610  Biso   1.000  C
  O48      1.0000 0.02310  0.63330  0.07240  Biso   1.000  O
  C164     1.0000 0.06890  0.49960  0.97260  Biso   1.000  C
  H54      1.0000 0.07080  0.49710  0.03990  Biso   1.000  H
  C165     1.0000 0.69760  0.29310  0.79260  Biso   1.000  C
  C166     1.0000 0.69140  0.28800  0.97000  Biso   1.000  C
  C167     1.0000 0.69100  0.14720  0.86900  Biso   1.000  C
  C168     1.0000 0.05400  0.17400  0.21900  Biso   1.000  C
  O49      1.0000 0.28220  0.85280  0.74630  Biso   1.000  O
  O50      1.0000 0.65210  0.14760  0.58310  Biso   1.000  O
  O51      1.0000 0.26891  0.15070  0.07450  Biso   1.000  O
  O52      1.0000 0.61050  0.15590  0.45860  Biso   1.000  O
  C169     1.0000 0.44471  0.00850  0.97020  Biso   1.000  C
  O53      1.0000 0.23962  0.14700  0.93060  Biso   1.000  O
  C170     1.0000 0.32320  0.94370  0.84840  Biso   1.000  C
  C171     1.0000 0.44784  0.02170  0.86990  Biso   1.000  C
  H55      1.0000 0.42400  0.03180  0.83400  Biso   1.000  H
  C172     1.0000 0.52041  0.00430  0.87550  Biso   1.000  C
  C173     1.0000 0.29891  0.05980  0.95420  Biso   1.000  C
  C174     1.0000 0.36088  0.94820  0.89140  Biso   1.000  C
  H56      1.0000 0.38230  0.91060  0.86840  Biso   1.000  H
  C175     1.0000 0.62159  0.12480  0.53790  Biso   1.000  C
  C176     1.0000 0.33635  0.06140  0.99930  Biso   1.000  C
  H57      1.0000 0.34040  0.10060  0.05270  Biso   1.000  H
  C177     1.0000 0.59328  0.05560  0.58240  Biso   1.000  C
  C178     1.0000 0.36743  0.00680  0.96720  Biso   1.000  C
  O54      1.0000 0.34921  0.84920  0.72800  Biso   1.000  O
  C179     1.0000 0.40683  0.00750  0.01800  Biso   1.000  C
  C180     1.0000 0.48096  0.00130  0.02450  Biso   1.000  C
  C181     1.0000 0.31754  0.87600  0.76720  Biso   1.000  C
  C182     1.0000 0.59311  0.99450  0.88290  Biso   1.000  C
  H58      1.0000 0.61830  0.99350  0.85070  Biso   1.000  H
  O55      1.0000 0.48405  0.84620  0.55550  Biso   1.000  O
  C183     1.0000 0.29228  0.00080  0.87900  Biso   1.000  C
  H59      1.0000 0.26670  0.99930  0.84840  Biso   1.000  H
  C184     1.0000 0.55826  0.99800  0.82940  Biso   1.000  C
  C185     1.0000 0.26587  0.12520  0.98900  Biso   1.000  C
  C186     1.0000 0.48367  0.02000  0.82490  Biso   1.000  C
  H60      1.0000 0.48460  0.02960  0.75820  Biso   1.000  H
  C187     1.0000 0.59043  0.05370  0.68070  Biso   1.000  C
  H61      1.0000 0.60780  0.09020  0.71930  Biso   1.000  H
  C188     1.0000 0.56183  0.99750  0.71990  Biso   1.000  C
  C189     1.0000 0.54130  0.94070  0.57040  Biso   1.000  C
  C190     1.0000 0.53780  0.94050  0.66830  Biso   1.000  C
  H62      1.0000 0.51880  0.90110  0.69880  Biso   1.000  H
  C191     1.0000 0.51430  0.87980  0.51390  Biso   1.000  C
  O56      1.0000 0.52310  0.86670  0.42760  Biso   1.000  O
  C192     1.0000 0.56890  0.00040  0.52740  Biso   1.000  C
  H63      1.0000 0.57080  0.00290  0.46010  Biso   1.000  H
  C193     1.0000 0.19760  0.20690  0.70740  Biso   1.000  C
  C194     1.0000 0.19140  0.21200  0.53000  Biso   1.000  C
  C195     1.0000 0.19100  0.35280  0.63100  Biso   1.000  C
  C196     1.0000 0.55400  0.32600  0.28100  Biso   1.000  C
  O57      1.0000 0.21780  0.14720  0.24630  Biso   1.000  O
  O58      1.0000 0.84790  0.85240  0.08310  Biso   1.000  O
  O59      1.0000 0.23109  0.84930  0.57450  Biso   1.000  O
  O60      1.0000 0.88950  0.84410  0.95860  Biso   1.000  O
  C197     1.0000 0.05529  0.99150  0.47020  Biso   1.000  C
  O61      1.0000 0.26038  0.85300  0.43060  Biso   1.000  O
  C198     1.0000 0.17680  0.05630  0.34840  Biso   1.000  C
  C199     1.0000 0.05216  0.97830  0.36990  Biso   1.000  C
  H64      1.0000 0.07600  0.96820  0.33400  Biso   1.000  H
  C200     1.0000 0.97959  0.99570  0.37550  Biso   1.000  C
  C201     1.0000 0.20109  0.94020  0.45420  Biso   1.000  C
  C202     1.0000 0.13912  0.05180  0.39140  Biso   1.000  C
  H65      1.0000 0.11770  0.08940  0.36840  Biso   1.000  H
  C203     1.0000 0.87841  0.87520  0.03790  Biso   1.000  C
  C204     1.0000 0.16365  0.93860  0.49930  Biso   1.000  C
  H66      1.0000 0.15960  0.89940  0.55270  Biso   1.000  H
  C205     1.0000 0.90672  0.94440  0.08240  Biso   1.000  C
  C206     1.0000 0.13257  0.99320  0.46720  Biso   1.000  C
  O62      1.0000 0.15079  0.15080  0.22800  Biso   1.000  O
  C207     1.0000 0.09317  0.99250  0.51800  Biso   1.000  C
  C208     1.0000 0.01904  0.99870  0.52450  Biso   1.000  C
  C209     1.0000 0.18246  0.12400  0.26720  Biso   1.000  C
  C210     1.0000 0.90689  0.00550  0.38290  Biso   1.000  C
  H67      1.0000 0.88170  0.00650  0.35070  Biso   1.000  H
  O63      1.0000 0.01595  0.15380  0.05550  Biso   1.000  O
  C211     1.0000 0.20772  0.99920  0.37900  Biso   1.000  C
  H68      1.0000 0.23330  0.00070  0.34840  Biso   1.000  H
  C212     1.0000 0.94174  0.00200  0.32940  Biso   1.000  C
  C213     1.0000 0.23413  0.87480  0.48900  Biso   1.000  C
  C214     1.0000 0.01633  0.98000  0.32490  Biso   1.000  C
  H69      1.0000 0.01540  0.97040  0.25820  Biso   1.000  H
  C215     1.0000 0.90957  0.94630  0.18070  Biso   1.000  C
  H70      1.0000 0.89220  0.90980  0.21930  Biso   1.000  H
  C216     1.0000 0.93817  0.00250  0.21990  Biso   1.000  C
  C217     1.0000 0.95870  0.05930  0.07040  Biso   1.000  C
  C218     1.0000 0.96220  0.05950  0.16830  Biso   1.000  C
  H71      1.0000 0.98120  0.09890  0.19880  Biso   1.000  H
  C219     1.0000 0.98570  0.12020  0.01390  Biso   1.000  C
  O64      1.0000 0.97690  0.13330  0.92760  Biso   1.000  O
  C220     1.0000 0.93110  0.99960  0.02740  Biso   1.000  C
  H72      1.0000 0.92920  0.99710  0.96010  Biso   1.000  H
  C221     1.0000 0.30240  0.79310  0.20740  Biso   1.000  C
  C222     1.0000 0.30860  0.78800  0.03000  Biso   1.000  C
  C223     1.0000 0.30900  0.64720  0.13100  Biso   1.000  C
  C224     1.0000 0.94600  0.67400  0.78100  Biso   1.000  C
  Co1      1.0000 0.24118  0.25000  0.15735  Biso   1.000  Co
  Co2      1.0000 0.19637  0.25000  0.92921  Biso   1.000  Co
  Co3      1.0000 0.55720  0.25000  0.46655  Biso   1.000  Co
  O65      1.0000 0.19890  0.25000  0.78190  Biso   1.000  O
  N1       1.0000 0.19340  0.25000  0.62400  Biso   1.000  N
  O66      1.0000 0.57430  0.25000  0.31660  Biso   1.000  O
  O67      1.0000 0.56150  0.25000  0.61370  Biso   1.000  O
  O68      1.0000 0.08890  0.25000  0.72000  Biso   1.000  O
  C225     1.0000 0.16010  0.25000  0.53400  Biso   1.000  C
  C226     1.0000 0.12600  0.25000  0.69700  Biso   1.000  C
  C227     1.0000 0.08140  0.25000  0.56600  Biso   1.000  C
  N2       1.0000 0.12460  0.25000  0.60100  Biso   1.000  N
  Co4      1.0000 0.47690  0.25000  0.64770  Biso   1.000  Co
  O69      1.0000 0.52160  0.25000  0.74170  Biso   1.000  O
  Co5      1.0000 0.49550  0.25000  0.64210  Biso   1.000  Co
  O70      1.0000 0.55550  0.25000  0.70700  Biso   1.000  O
  O71      1.0000 0.54440  0.25000  0.60840  Biso   1.000  O
  Co6      1.0000 0.25882  0.75000  0.65735  Biso   1.000  Co
  Co7      1.0000 0.30363  0.75000  0.42921  Biso   1.000  Co
  Co8      1.0000 0.94280  0.75000  0.96655  Biso   1.000  Co
  O72      1.0000 0.30110  0.75000  0.28190  Biso   1.000  O
  N3       1.0000 0.30660  0.75000  0.12400  Biso   1.000  N
  O73      1.0000 0.92570  0.75000  0.81660  Biso   1.000  O
  O74      1.0000 0.93850  0.75000  0.11370  Biso   1.000  O
  O75      1.0000 0.41110  0.75000  0.22000  Biso   1.000  O
  C228     1.0000 0.33990  0.75000  0.03400  Biso   1.000  C
  C229     1.0000 0.37400  0.75000  0.19700  Biso   1.000  C
  C230     1.0000 0.41860  0.75000  0.06600  Biso   1.000  C
  N4       1.0000 0.37540  0.75000  0.10100  Biso   1.000  N
  Co9      1.0000 0.02310  0.75000  0.14770  Biso   1.000  Co
  O76      1.0000 0.97840  0.75000  0.24170  Biso   1.000  O
  Co10     1.0000 0.00450  0.75000  0.14210  Biso   1.000  Co
  O77      1.0000 0.94450  0.75000  0.20700  Biso   1.000  O
  O78      1.0000 0.95560  0.75000  0.10840  Biso   1.000  O
  Co11     1.0000 0.75882  0.75000  0.84265  Biso   1.000  Co
  Co12     1.0000 0.80363  0.75000  0.07079  Biso   1.000  Co
  Co13     1.0000 0.44280  0.75000  0.53345  Biso   1.000  Co
  O79      1.0000 0.80110  0.75000  0.21810  Biso   1.000  O
  N5       1.0000 0.80660  0.75000  0.37600  Biso   1.000  N
  O80      1.0000 0.42570  0.75000  0.68340  Biso   1.000  O
  O81      1.0000 0.43850  0.75000  0.38630  Biso   1.000  O
  O82      1.0000 0.91110  0.75000  0.28000  Biso   1.000  O
  C231     1.0000 0.83990  0.75000  0.46600  Biso   1.000  C
  C232     1.0000 0.87400  0.75000  0.30300  Biso   1.000  C
  C233     1.0000 0.91860  0.75000  0.43400  Biso   1.000  C
  N6       1.0000 0.87540  0.75000  0.39900  Biso   1.000  N
  Co14     1.0000 0.52310  0.75000  0.35230  Biso   1.000  Co
  O83      1.0000 0.47840  0.75000  0.25830  Biso   1.000  O
  Co15     1.0000 0.50450  0.75000  0.35790  Biso   1.000  Co
  O84      1.0000 0.44450  0.75000  0.29300  Biso   1.000  O
  O85      1.0000 0.45560  0.75000  0.39160  Biso   1.000  O
  Co16     1.0000 0.74118  0.25000  0.34265  Biso   1.000  Co
  Co17     1.0000 0.69637  0.25000  0.57079  Biso   1.000  Co
  Co18     1.0000 0.05720  0.25000  0.03345  Biso   1.000  Co
  O86      1.0000 0.69890  0.25000  0.71810  Biso   1.000  O
  N7       1.0000 0.69340  0.25000  0.87600  Biso   1.000  N
  O87      1.0000 0.07430  0.25000  0.18340  Biso   1.000  O
  O88      1.0000 0.06150  0.25000  0.88630  Biso   1.000  O
  O89      1.0000 0.58890  0.25000  0.78000  Biso   1.000  O
  C234     1.0000 0.66010  0.25000  0.96600  Biso   1.000  C
  C235     1.0000 0.62600  0.25000  0.80300  Biso   1.000  C
  C236     1.0000 0.58140  0.25000  0.93400  Biso   1.000  C
  N8       1.0000 0.62460  0.25000  0.89900  Biso   1.000  N
  Co19     1.0000 0.97690  0.25000  0.85230  Biso   1.000  Co
  O90      1.0000 0.02160  0.25000  0.75830  Biso   1.000  O
  Co20     1.0000 0.99550  0.25000  0.85790  Biso   1.000  Co
  O91      1.0000 0.05550  0.25000  0.79300  Biso   1.000  O
  O92      1.0000 0.04440  0.25000  0.89160  Biso   1.000  O
  Co21     1.0000 0.36281  0.75000  0.63345  Biso   1.000  Co
  O93      1.0000 0.30831  0.75000  0.57180  Biso   1.000  O
  Co22     1.0000 0.13719  0.25000  0.13345  Biso   1.000  Co
  O94      1.0000 0.19169  0.25000  0.07180  Biso   1.000  O
  Co23     1.0000 0.63719  0.25000  0.36655  Biso   1.000  Co
  O95      1.0000 0.69169  0.25000  0.42820  Biso   1.000  O
  Co24     1.0000 0.86281  0.75000  0.86655  Biso   1.000  Co
  O96      1.0000 0.80831  0.75000  0.92820  Biso   1.000  O
