data_image0
_cell_length_a       9.847
_cell_length_b       14.929
_cell_length_c       21.957
_cell_angle_alpha    90
_cell_angle_beta     102.68
_cell_angle_gamma    90

_symmetry_space_group_name_H-M    "P 1"
_symmetry_int_tables_number       1

loop_
  _symmetry_equiv_pos_as_xyz
  'x, y, z'

loop_
  _atom_site_label
  _atom_site_occupancy
  _atom_site_fract_x
  _atom_site_fract_y
  _atom_site_fract_z
  _atom_site_thermal_displace_type
  _atom_site_B_iso_or_equiv
  _atom_site_type_symbol
  Cd1      1.0000 0.16284  0.73912  0.32400  Biso   1.000  Cd
  C1       1.0000 0.02910  0.55590  0.45271  Biso   1.000  C
  C2       1.0000 0.89160  0.54370  0.46035  Biso   1.000  C
  C3       1.0000 0.13500  0.51200  0.49410  Biso   1.000  C
  H1       1.0000 0.22860  0.52090  0.49080  Biso   1.000  H
  C4       1.0000 0.06010  0.61450  0.40170  Biso   1.000  C
  C5       1.0000 0.77360  0.59770  0.42120  Biso   1.000  C
  C6       1.0000 0.55750  0.62670  0.28970  Biso   1.000  C
  H2       1.0000 0.62680  0.62120  0.26590  Biso   1.000  H
  C7       1.0000 0.44890  0.61740  0.36470  Biso   1.000  C
  H3       1.0000 0.42730  0.60410  0.40380  Biso   1.000  H
  C8       1.0000 0.45210  0.94720  0.44620  Biso   1.000  C
  C9       1.0000 0.58870  0.97600  0.46120  Biso   1.000  C
  C10      1.0000 0.36630  0.97020  0.48540  Biso   1.000  C
  H4       1.0000 0.27310  0.94890  0.47610  Biso   1.000  H
  C11      1.0000 0.38750  0.89200  0.38874  Biso   1.000  C
  C12      1.0000 0.72560  0.94820  0.43770  Biso   1.000  C
  C13      1.0000 0.89200  0.96910  0.32560  Biso   1.000  C
  H5       1.0000 0.87530  0.03160  0.32020  Biso   1.000  H
  C14      1.0000 0.87940  0.82890  0.35060  Biso   1.000  C
  H6       1.0000 0.85240  0.77360  0.36570  Biso   1.000  H
  N1       1.0000 0.67980  0.54650  0.38323  Biso   1.000  N
  H7       1.0000 0.68870  0.48790  0.38130  Biso   1.000  H
  N2       1.0000 0.56610  0.59270  0.34666  Biso   1.000  N
  N3       1.0000 0.43890  0.66860  0.27161  Biso   1.000  N
  N4       1.0000 0.37050  0.66250  0.31942  Biso   1.000  N
  N5       1.0000 0.69850  0.92970  0.37510  Biso   1.000  N
  H8       1.0000 0.61340  0.93030  0.35190  Biso   1.000  H
  N6       1.0000 0.81280  0.91010  0.35060  Biso   1.000  N
  N7       1.0000 0.98420  0.84220  0.32620  Biso   1.000  N
  N8       1.0000 0.99430  0.92530  0.31040  Biso   1.000  N
  O1       1.0000 0.17330  0.65140  0.41023  Biso   1.000  O
  O2       1.0000 0.96940  0.62320  0.35295  Biso   1.000  O
  O3       1.0000 0.76060  0.67750  0.42760  Biso   1.000  O
  O4       1.0000 0.29210  0.83980  0.39486  Biso   1.000  O
  O5       1.0000 0.43030  0.90630  0.34003  Biso   1.000  O
  O6       1.0000 0.83880  0.94460  0.46950  Biso   1.000  O
  C15      1.0000 0.67180  0.96580  0.41240  Biso   1.000  C
  C16      1.0000 0.73860  0.83410  0.31150  Biso   1.000  C
  H9       1.0000 0.64250  0.83710  0.29210  Biso   1.000  H
  C17      1.0000 0.93840  0.84600  0.37850  Biso   1.000  C
  H10      1.0000 0.00650  0.86050  0.41500  Biso   1.000  H
  N9       1.0000 0.72440  0.88430  0.41680  Biso   1.000  N
  H11      1.0000 0.71450  0.84810  0.44710  Biso   1.000  H
  N10      1.0000 0.79690  0.85690  0.37140  Biso   1.000  N
  N11      1.0000 0.83910  0.80720  0.28510  Biso   1.000  N
  N12      1.0000 0.96360  0.81330  0.32800  Biso   1.000  N
  O7       1.0000 0.70660  0.02410  0.38160  Biso   1.000  O
  Cd2      1.0000 0.33716  0.73912  0.17600  Biso   1.000  Cd
  C18      1.0000 0.47090  0.55590  0.04729  Biso   1.000  C
  C19      1.0000 0.60840  0.54370  0.03965  Biso   1.000  C
  C20      1.0000 0.36500  0.51200  0.00590  Biso   1.000  C
  H12      1.0000 0.27140  0.52090  0.00920  Biso   1.000  H
  C21      1.0000 0.43990  0.61450  0.09830  Biso   1.000  C
  C22      1.0000 0.72640  0.59770  0.07880  Biso   1.000  C
  C23      1.0000 0.94250  0.62670  0.21030  Biso   1.000  C
  H13      1.0000 0.87320  0.62120  0.23410  Biso   1.000  H
  C24      1.0000 0.05110  0.61740  0.13530  Biso   1.000  C
  H14      1.0000 0.07270  0.60410  0.09620  Biso   1.000  H
  C25      1.0000 0.04790  0.94720  0.05380  Biso   1.000  C
  C26      1.0000 0.91130  0.97600  0.03880  Biso   1.000  C
  C27      1.0000 0.13370  0.97020  0.01460  Biso   1.000  C
  H15      1.0000 0.22690  0.94890  0.02390  Biso   1.000  H
  C28      1.0000 0.11250  0.89200  0.11126  Biso   1.000  C
  C29      1.0000 0.77440  0.94820  0.06230  Biso   1.000  C
  C30      1.0000 0.60800  0.96910  0.17440  Biso   1.000  C
  H16      1.0000 0.62470  0.03160  0.17980  Biso   1.000  H
  C31      1.0000 0.62060  0.82890  0.14940  Biso   1.000  C
  H17      1.0000 0.64760  0.77360  0.13430  Biso   1.000  H
  N13      1.0000 0.82020  0.54650  0.11677  Biso   1.000  N
  H18      1.0000 0.81130  0.48790  0.11870  Biso   1.000  H
  N14      1.0000 0.93390  0.59270  0.15334  Biso   1.000  N
  N15      1.0000 0.06110  0.66860  0.22839  Biso   1.000  N
  N16      1.0000 0.12950  0.66250  0.18058  Biso   1.000  N
  N17      1.0000 0.80150  0.92970  0.12490  Biso   1.000  N
  H19      1.0000 0.88660  0.93030  0.14810  Biso   1.000  H
  N18      1.0000 0.68720  0.91010  0.14940  Biso   1.000  N
  N19      1.0000 0.51580  0.84220  0.17380  Biso   1.000  N
  N20      1.0000 0.50570  0.92530  0.18960  Biso   1.000  N
  O8       1.0000 0.32670  0.65140  0.08977  Biso   1.000  O
  O9       1.0000 0.53060  0.62320  0.14705  Biso   1.000  O
  O10      1.0000 0.73940  0.67750  0.07240  Biso   1.000  O
  O11      1.0000 0.20790  0.83980  0.10514  Biso   1.000  O
  O12      1.0000 0.06970  0.90630  0.15997  Biso   1.000  O
  O13      1.0000 0.66120  0.94460  0.03050  Biso   1.000  O
  C32      1.0000 0.82820  0.96580  0.08760  Biso   1.000  C
  C33      1.0000 0.76140  0.83410  0.18850  Biso   1.000  C
  H20      1.0000 0.85750  0.83710  0.20790  Biso   1.000  H
  C34      1.0000 0.56160  0.84600  0.12150  Biso   1.000  C
  H21      1.0000 0.49350  0.86050  0.08500  Biso   1.000  H
  N21      1.0000 0.77560  0.88430  0.08320  Biso   1.000  N
  H22      1.0000 0.78550  0.84810  0.05290  Biso   1.000  H
  N22      1.0000 0.70310  0.85690  0.12860  Biso   1.000  N
  N23      1.0000 0.66090  0.80720  0.21490  Biso   1.000  N
  N24      1.0000 0.53640  0.81330  0.17200  Biso   1.000  N
  O14      1.0000 0.79340  0.02410  0.11840  Biso   1.000  O
  Cd3      1.0000 0.83716  0.26088  0.67600  Biso   1.000  Cd
  C35      1.0000 0.97090  0.44410  0.54729  Biso   1.000  C
  C36      1.0000 0.10840  0.45630  0.53965  Biso   1.000  C
  C37      1.0000 0.86500  0.48800  0.50590  Biso   1.000  C
  H23      1.0000 0.77140  0.47910  0.50920  Biso   1.000  H
  C38      1.0000 0.93990  0.38550  0.59830  Biso   1.000  C
  C39      1.0000 0.22640  0.40230  0.57880  Biso   1.000  C
  C40      1.0000 0.44250  0.37330  0.71030  Biso   1.000  C
  H24      1.0000 0.37320  0.37880  0.73410  Biso   1.000  H
  C41      1.0000 0.55110  0.38260  0.63530  Biso   1.000  C
  H25      1.0000 0.57270  0.39590  0.59620  Biso   1.000  H
  C42      1.0000 0.54790  0.05280  0.55380  Biso   1.000  C
  C43      1.0000 0.41130  0.02400  0.53880  Biso   1.000  C
  C44      1.0000 0.63370  0.02980  0.51460  Biso   1.000  C
  H26      1.0000 0.72690  0.05110  0.52390  Biso   1.000  H
  C45      1.0000 0.61250  0.10800  0.61126  Biso   1.000  C
  C46      1.0000 0.27440  0.05180  0.56230  Biso   1.000  C
  C47      1.0000 0.10800  0.03090  0.67440  Biso   1.000  C
  H27      1.0000 0.12470  0.96840  0.67980  Biso   1.000  H
  C48      1.0000 0.12060  0.17110  0.64940  Biso   1.000  C
  H28      1.0000 0.14760  0.22640  0.63430  Biso   1.000  H
  N25      1.0000 0.32020  0.45350  0.61677  Biso   1.000  N
  H29      1.0000 0.31130  0.51210  0.61870  Biso   1.000  H
  N26      1.0000 0.43390  0.40730  0.65334  Biso   1.000  N
  N27      1.0000 0.56110  0.33140  0.72839  Biso   1.000  N
  N28      1.0000 0.62950  0.33750  0.68058  Biso   1.000  N
  N29      1.0000 0.30150  0.07030  0.62490  Biso   1.000  N
  H30      1.0000 0.38660  0.06970  0.64810  Biso   1.000  H
  N30      1.0000 0.18720  0.08990  0.64940  Biso   1.000  N
  N31      1.0000 0.01580  0.15780  0.67380  Biso   1.000  N
  N32      1.0000 0.00570  0.07470  0.68960  Biso   1.000  N
  O15      1.0000 0.82670  0.34860  0.58977  Biso   1.000  O
  O16      1.0000 0.03060  0.37680  0.64705  Biso   1.000  O
  O17      1.0000 0.23940  0.32250  0.57240  Biso   1.000  O
  O18      1.0000 0.70790  0.16020  0.60514  Biso   1.000  O
  O19      1.0000 0.56970  0.09370  0.65997  Biso   1.000  O
  O20      1.0000 0.16120  0.05540  0.53050  Biso   1.000  O
  C49      1.0000 0.32820  0.03420  0.58760  Biso   1.000  C
  C50      1.0000 0.26140  0.16590  0.68850  Biso   1.000  C
  H31      1.0000 0.35750  0.16290  0.70790  Biso   1.000  H
  C51      1.0000 0.06160  0.15400  0.62150  Biso   1.000  C
  H32      1.0000 0.99350  0.13950  0.58500  Biso   1.000  H
  N33      1.0000 0.27560  0.11570  0.58320  Biso   1.000  N
  H33      1.0000 0.28550  0.15190  0.55290  Biso   1.000  H
  N34      1.0000 0.20310  0.14310  0.62860  Biso   1.000  N
  N35      1.0000 0.16090  0.19280  0.71490  Biso   1.000  N
  N36      1.0000 0.03640  0.18670  0.67200  Biso   1.000  N
  O21      1.0000 0.29340  0.97590  0.61840  Biso   1.000  O
  Cd4      1.0000 0.66284  0.26088  0.82400  Biso   1.000  Cd
  C52      1.0000 0.52910  0.44410  0.95271  Biso   1.000  C
  C53      1.0000 0.39160  0.45630  0.96035  Biso   1.000  C
  C54      1.0000 0.63500  0.48800  0.99410  Biso   1.000  C
  H34      1.0000 0.72860  0.47910  0.99080  Biso   1.000  H
  C55      1.0000 0.56010  0.38550  0.90170  Biso   1.000  C
  C56      1.0000 0.27360  0.40230  0.92120  Biso   1.000  C
  C57      1.0000 0.05750  0.37330  0.78970  Biso   1.000  C
  H35      1.0000 0.12680  0.37880  0.76590  Biso   1.000  H
  C58      1.0000 0.94890  0.38260  0.86470  Biso   1.000  C
  H36      1.0000 0.92730  0.39590  0.90380  Biso   1.000  H
  C59      1.0000 0.95210  0.05280  0.94620  Biso   1.000  C
  C60      1.0000 0.08870  0.02400  0.96120  Biso   1.000  C
  C61      1.0000 0.86630  0.02980  0.98540  Biso   1.000  C
  H37      1.0000 0.77310  0.05110  0.97610  Biso   1.000  H
  C62      1.0000 0.88750  0.10800  0.88874  Biso   1.000  C
  C63      1.0000 0.22560  0.05180  0.93770  Biso   1.000  C
  C64      1.0000 0.39200  0.03090  0.82560  Biso   1.000  C
  H38      1.0000 0.37530  0.96840  0.82020  Biso   1.000  H
  C65      1.0000 0.37940  0.17110  0.85060  Biso   1.000  C
  H39      1.0000 0.35240  0.22640  0.86570  Biso   1.000  H
  N37      1.0000 0.17980  0.45350  0.88323  Biso   1.000  N
  H40      1.0000 0.18870  0.51210  0.88130  Biso   1.000  H
  N38      1.0000 0.06610  0.40730  0.84666  Biso   1.000  N
  N39      1.0000 0.93890  0.33140  0.77161  Biso   1.000  N
  N40      1.0000 0.87050  0.33750  0.81942  Biso   1.000  N
  N41      1.0000 0.19850  0.07030  0.87510  Biso   1.000  N
  H41      1.0000 0.11340  0.06970  0.85190  Biso   1.000  H
  N42      1.0000 0.31280  0.08990  0.85060  Biso   1.000  N
  N43      1.0000 0.48420  0.15780  0.82620  Biso   1.000  N
  N44      1.0000 0.49430  0.07470  0.81040  Biso   1.000  N
  O22      1.0000 0.67330  0.34860  0.91023  Biso   1.000  O
  O23      1.0000 0.46940  0.37680  0.85295  Biso   1.000  O
  O24      1.0000 0.26060  0.32250  0.92760  Biso   1.000  O
  O25      1.0000 0.79210  0.16020  0.89486  Biso   1.000  O
  O26      1.0000 0.93030  0.09370  0.84003  Biso   1.000  O
  O27      1.0000 0.33880  0.05540  0.96950  Biso   1.000  O
  C66      1.0000 0.17180  0.03420  0.91240  Biso   1.000  C
  C67      1.0000 0.23860  0.16590  0.81150  Biso   1.000  C
  H42      1.0000 0.14250  0.16290  0.79210  Biso   1.000  H
  C68      1.0000 0.43840  0.15400  0.87850  Biso   1.000  C
  H43      1.0000 0.50650  0.13950  0.91500  Biso   1.000  H
  N45      1.0000 0.22440  0.11570  0.91680  Biso   1.000  N
  H44      1.0000 0.21450  0.15190  0.94710  Biso   1.000  H
  N46      1.0000 0.29690  0.14310  0.87140  Biso   1.000  N
  N47      1.0000 0.33910  0.19280  0.78510  Biso   1.000  N
  N48      1.0000 0.46360  0.18670  0.82800  Biso   1.000  N
  O28      1.0000 0.20660  0.97590  0.88160  Biso   1.000  O
