data_image0
_cell_length_a       22.13
_cell_length_b       7.774
_cell_length_c       6.655
_cell_angle_alpha    90
_cell_angle_beta     105.28
_cell_angle_gamma    90

_symmetry_space_group_name_H-M    "P 1"
_symmetry_int_tables_number       1

loop_
  _symmetry_equiv_pos_as_xyz
  'x, y, z'

loop_
  _atom_site_label
  _atom_site_occupancy
  _atom_site_fract_x
  _atom_site_fract_y
  _atom_site_fract_z
  _atom_site_thermal_displace_type
  _atom_site_B_iso_or_equiv
  _atom_site_type_symbol
  O1       1.0000 0.35110  0.37300  0.47600  Biso   1.000  O
  O2       1.0000 0.34700  0.31500  0.16500  Biso   1.000  O
  O3       1.0000 0.30400  0.18200  0.75000  Biso   1.000  O
  O4       1.0000 0.44700  0.33400  0.94800  Biso   1.000  O
  C1       1.0000 0.37200  0.40150  0.31900  Biso   1.000  C
  C2       1.0000 0.29500  0.18940  0.57300  Biso   1.000  C
  O5       1.0000 0.33000  0.21100  0.85700  Biso   1.000  O
  O6       1.0000 0.85110  0.87300  0.47600  Biso   1.000  O
  O7       1.0000 0.84700  0.81500  0.16500  Biso   1.000  O
  O8       1.0000 0.80400  0.68200  0.75000  Biso   1.000  O
  O9       1.0000 0.94700  0.83400  0.94800  Biso   1.000  O
  C3       1.0000 0.87200  0.90150  0.31900  Biso   1.000  C
  C4       1.0000 0.79500  0.68940  0.57300  Biso   1.000  C
  O10      1.0000 0.83000  0.71100  0.85700  Biso   1.000  O
  O11      1.0000 0.64890  0.37300  0.52400  Biso   1.000  O
  O12      1.0000 0.65300  0.31500  0.83500  Biso   1.000  O
  O13      1.0000 0.69600  0.18200  0.25000  Biso   1.000  O
  O14      1.0000 0.55300  0.33400  0.05200  Biso   1.000  O
  C5       1.0000 0.62800  0.40150  0.68100  Biso   1.000  C
  C6       1.0000 0.70500  0.18940  0.42700  Biso   1.000  C
  O15      1.0000 0.67000  0.21100  0.14300  Biso   1.000  O
  O16      1.0000 0.14890  0.87300  0.52400  Biso   1.000  O
  O17      1.0000 0.15300  0.81500  0.83500  Biso   1.000  O
  O18      1.0000 0.19600  0.68200  0.25000  Biso   1.000  O
  O19      1.0000 0.05300  0.83400  0.05200  Biso   1.000  O
  C7       1.0000 0.12800  0.90150  0.68100  Biso   1.000  C
  C8       1.0000 0.20500  0.68940  0.42700  Biso   1.000  C
  O20      1.0000 0.17000  0.71100  0.14300  Biso   1.000  O
  O21      1.0000 0.64890  0.62700  0.52400  Biso   1.000  O
  O22      1.0000 0.65300  0.68500  0.83500  Biso   1.000  O
  O23      1.0000 0.69600  0.81800  0.25000  Biso   1.000  O
  O24      1.0000 0.55300  0.66600  0.05200  Biso   1.000  O
  C9       1.0000 0.62800  0.59850  0.68100  Biso   1.000  C
  C10      1.0000 0.70500  0.81060  0.42700  Biso   1.000  C
  O25      1.0000 0.67000  0.78900  0.14300  Biso   1.000  O
  O26      1.0000 0.14890  0.12700  0.52400  Biso   1.000  O
  O27      1.0000 0.15300  0.18500  0.83500  Biso   1.000  O
  O28      1.0000 0.19600  0.31800  0.25000  Biso   1.000  O
  O29      1.0000 0.05300  0.16600  0.05200  Biso   1.000  O
  C11      1.0000 0.12800  0.09850  0.68100  Biso   1.000  C
  C12      1.0000 0.20500  0.31060  0.42700  Biso   1.000  C
  O30      1.0000 0.17000  0.28900  0.14300  Biso   1.000  O
  O31      1.0000 0.35110  0.62700  0.47600  Biso   1.000  O
  O32      1.0000 0.34700  0.68500  0.16500  Biso   1.000  O
  O33      1.0000 0.30400  0.81800  0.75000  Biso   1.000  O
  O34      1.0000 0.44700  0.66600  0.94800  Biso   1.000  O
  C13      1.0000 0.37200  0.59850  0.31900  Biso   1.000  C
  C14      1.0000 0.29500  0.81060  0.57300  Biso   1.000  C
  O35      1.0000 0.33000  0.78900  0.85700  Biso   1.000  O
  O36      1.0000 0.85110  0.12700  0.47600  Biso   1.000  O
  O37      1.0000 0.84700  0.18500  0.16500  Biso   1.000  O
  O38      1.0000 0.80400  0.31800  0.75000  Biso   1.000  O
  O39      1.0000 0.94700  0.16600  0.94800  Biso   1.000  O
  C15      1.0000 0.87200  0.09850  0.31900  Biso   1.000  C
  C16      1.0000 0.79500  0.31060  0.57300  Biso   1.000  C
  O40      1.0000 0.83000  0.28900  0.85700  Biso   1.000  O
  La1      1.0000 0.34690  0.50000  0.84650  Biso   1.000  La
  La2      1.0000 0.84690  0.00000  0.84650  Biso   1.000  La
  La3      1.0000 0.65310  0.50000  0.15350  Biso   1.000  La
  La4      1.0000 0.15310  0.00000  0.15350  Biso   1.000  La
  O41      1.0000 0.26900  0.00000  0.50500  Biso   1.000  O
  O42      1.0000 0.76900  0.50000  0.50500  Biso   1.000  O
  O43      1.0000 0.73100  0.00000  0.49500  Biso   1.000  O
  O44      1.0000 0.23100  0.50000  0.49500  Biso   1.000  O
  C17      1.0000 0.50000  0.40150  0.00000  Biso   1.000  C
  C18      1.0000 0.00000  0.90150  0.00000  Biso   1.000  C
  C19      1.0000 0.50000  0.59850  0.00000  Biso   1.000  C
  C20      1.0000 0.00000  0.09850  0.00000  Biso   1.000  C
