data_image0
_cell_length_a       29.8727
_cell_length_b       7.6518
_cell_length_c       22.1924
_cell_angle_alpha    90
_cell_angle_beta     122.867
_cell_angle_gamma    90

_symmetry_space_group_name_H-M    "P 1"
_symmetry_int_tables_number       1

loop_
  _symmetry_equiv_pos_as_xyz
  'x, y, z'

loop_
  _atom_site_label
  _atom_site_occupancy
  _atom_site_fract_x
  _atom_site_fract_y
  _atom_site_fract_z
  _atom_site_thermal_displace_type
  _atom_site_B_iso_or_equiv
  _atom_site_type_symbol
  U1       1.0000 0.59010  0.61287  0.23915  Biso   1.000  U
  S1       1.0000 0.54982  0.51545  0.48184  Biso   1.000  S
  S2       1.0000 0.76617  0.65947  0.53279  Biso   1.000  S
  O1       1.0000 0.57913  0.64280  0.33643  Biso   1.000  O
  O2       1.0000 0.50236  0.64160  0.32883  Biso   1.000  O
  O3       1.0000 0.64822  0.44920  0.68882  Biso   1.000  O
  O4       1.0000 0.56379  0.38920  0.61455  Biso   1.000  O
  C1       1.0000 0.55171  0.62840  0.36326  Biso   1.000  C
  C2       1.0000 0.58104  0.59730  0.44192  Biso   1.000  C
  C3       1.0000 0.63396  0.62420  0.49113  Biso   1.000  C
  H1       1.0000 0.65770  0.67140  0.47930  Biso   1.000  H
  C4       1.0000 0.64985  0.57510  0.56108  Biso   1.000  C
  H2       1.0000 0.68530  0.58570  0.60160  Biso   1.000  H
  C5       1.0000 0.60862  0.51050  0.56400  Biso   1.000  C
  C6       1.0000 0.60759  0.44530  0.62605  Biso   1.000  C
  O5       1.0000 0.67337  0.52870  0.33028  Biso   1.000  O
  O6       1.0000 0.73290  0.36770  0.42232  Biso   1.000  O
  O7       1.0000 0.82297  0.87340  0.66413  Biso   1.000  O
  O8       1.0000 0.78276  0.12690  0.61294  Biso   1.000  O
  C7       1.0000 0.71120  0.50590  0.39480  Biso   1.000  C
  C8       1.0000 0.72878  0.66970  0.43980  Biso   1.000  C
  C9       1.0000 0.71777  0.84090  0.41636  Biso   1.000  C
  H3       1.0000 0.69810  0.87350  0.36720  Biso   1.000  H
  C10      1.0000 0.73881  0.96160  0.47310  Biso   1.000  C
  H4       1.0000 0.73570  0.08480  0.46680  Biso   1.000  H
  C11      1.0000 0.76435  0.88070  0.53860  Biso   1.000  C
  C12      1.0000 0.79200  0.96900  0.60940  Biso   1.000  C
  U2       1.0000 0.09010  0.11287  0.23915  Biso   1.000  U
  S3       1.0000 0.04982  0.01545  0.48184  Biso   1.000  S
  S4       1.0000 0.26617  0.15947  0.53279  Biso   1.000  S
  O9       1.0000 0.07913  0.14280  0.33643  Biso   1.000  O
  O10      1.0000 0.00236  0.14160  0.32883  Biso   1.000  O
  O11      1.0000 0.14822  0.94920  0.68882  Biso   1.000  O
  O12      1.0000 0.06379  0.88920  0.61455  Biso   1.000  O
  C13      1.0000 0.05171  0.12840  0.36326  Biso   1.000  C
  C14      1.0000 0.08104  0.09730  0.44192  Biso   1.000  C
  C15      1.0000 0.13396  0.12420  0.49113  Biso   1.000  C
  H5       1.0000 0.15770  0.17140  0.47930  Biso   1.000  H
  C16      1.0000 0.14985  0.07510  0.56108  Biso   1.000  C
  H6       1.0000 0.18530  0.08570  0.60160  Biso   1.000  H
  C17      1.0000 0.10862  0.01050  0.56400  Biso   1.000  C
  C18      1.0000 0.10759  0.94530  0.62605  Biso   1.000  C
  O13      1.0000 0.17337  0.02870  0.33028  Biso   1.000  O
  O14      1.0000 0.23290  0.86770  0.42232  Biso   1.000  O
  O15      1.0000 0.32297  0.37340  0.66413  Biso   1.000  O
  O16      1.0000 0.28276  0.62690  0.61294  Biso   1.000  O
  C19      1.0000 0.21120  0.00590  0.39480  Biso   1.000  C
  C20      1.0000 0.22878  0.16970  0.43980  Biso   1.000  C
  C21      1.0000 0.21777  0.34090  0.41636  Biso   1.000  C
  H7       1.0000 0.19810  0.37350  0.36720  Biso   1.000  H
  C22      1.0000 0.23881  0.46160  0.47310  Biso   1.000  C
  H8       1.0000 0.23570  0.58480  0.46680  Biso   1.000  H
  C23      1.0000 0.26435  0.38070  0.53860  Biso   1.000  C
  C24      1.0000 0.29200  0.46900  0.60940  Biso   1.000  C
  U3       1.0000 0.40990  0.61287  0.26085  Biso   1.000  U
  S5       1.0000 0.45018  0.51545  0.01816  Biso   1.000  S
  S6       1.0000 0.23383  0.65947  0.96721  Biso   1.000  S
  O17      1.0000 0.42087  0.64280  0.16357  Biso   1.000  O
  O18      1.0000 0.49764  0.64160  0.17117  Biso   1.000  O
  O19      1.0000 0.35178  0.44920  0.81118  Biso   1.000  O
  O20      1.0000 0.43621  0.38920  0.88545  Biso   1.000  O
  C25      1.0000 0.44829  0.62840  0.13674  Biso   1.000  C
  C26      1.0000 0.41896  0.59730  0.05808  Biso   1.000  C
  C27      1.0000 0.36604  0.62420  0.00887  Biso   1.000  C
  H9       1.0000 0.34230  0.67140  0.02070  Biso   1.000  H
  C28      1.0000 0.35015  0.57510  0.93892  Biso   1.000  C
  H10      1.0000 0.31470  0.58570  0.89840  Biso   1.000  H
  C29      1.0000 0.39138  0.51050  0.93600  Biso   1.000  C
  C30      1.0000 0.39241  0.44530  0.87395  Biso   1.000  C
  O21      1.0000 0.32663  0.52870  0.16972  Biso   1.000  O
  O22      1.0000 0.26710  0.36770  0.07768  Biso   1.000  O
  O23      1.0000 0.17703  0.87340  0.83587  Biso   1.000  O
  O24      1.0000 0.21724  0.12690  0.88706  Biso   1.000  O
  C31      1.0000 0.28880  0.50590  0.10520  Biso   1.000  C
  C32      1.0000 0.27122  0.66970  0.06020  Biso   1.000  C
  C33      1.0000 0.28223  0.84090  0.08364  Biso   1.000  C
  H11      1.0000 0.30190  0.87350  0.13280  Biso   1.000  H
  C34      1.0000 0.26119  0.96160  0.02690  Biso   1.000  C
  H12      1.0000 0.26430  0.08480  0.03320  Biso   1.000  H
  C35      1.0000 0.23565  0.88070  0.96140  Biso   1.000  C
  C36      1.0000 0.20800  0.96900  0.89060  Biso   1.000  C
  U4       1.0000 0.90990  0.11287  0.26085  Biso   1.000  U
  S7       1.0000 0.95018  0.01545  0.01816  Biso   1.000  S
  S8       1.0000 0.73383  0.15947  0.96721  Biso   1.000  S
  O25      1.0000 0.92087  0.14280  0.16357  Biso   1.000  O
  O26      1.0000 0.99764  0.14160  0.17117  Biso   1.000  O
  O27      1.0000 0.85178  0.94920  0.81118  Biso   1.000  O
  O28      1.0000 0.93621  0.88920  0.88545  Biso   1.000  O
  C37      1.0000 0.94829  0.12840  0.13674  Biso   1.000  C
  C38      1.0000 0.91896  0.09730  0.05808  Biso   1.000  C
  C39      1.0000 0.86604  0.12420  0.00887  Biso   1.000  C
  H13      1.0000 0.84230  0.17140  0.02070  Biso   1.000  H
  C40      1.0000 0.85015  0.07510  0.93892  Biso   1.000  C
  H14      1.0000 0.81470  0.08570  0.89840  Biso   1.000  H
  C41      1.0000 0.89138  0.01050  0.93600  Biso   1.000  C
  C42      1.0000 0.89241  0.94530  0.87395  Biso   1.000  C
  O29      1.0000 0.82663  0.02870  0.16972  Biso   1.000  O
  O30      1.0000 0.76710  0.86770  0.07768  Biso   1.000  O
  O31      1.0000 0.67703  0.37340  0.83587  Biso   1.000  O
  O32      1.0000 0.71724  0.62690  0.88706  Biso   1.000  O
  C43      1.0000 0.78880  0.00590  0.10520  Biso   1.000  C
  C44      1.0000 0.77122  0.16970  0.06020  Biso   1.000  C
  C45      1.0000 0.78223  0.34090  0.08364  Biso   1.000  C
  H15      1.0000 0.80190  0.37350  0.13280  Biso   1.000  H
  C46      1.0000 0.76119  0.46160  0.02690  Biso   1.000  C
  H16      1.0000 0.76430  0.58480  0.03320  Biso   1.000  H
  C47      1.0000 0.73565  0.38070  0.96140  Biso   1.000  C
  C48      1.0000 0.70800  0.46900  0.89060  Biso   1.000  C
  U5       1.0000 0.40990  0.38713  0.76085  Biso   1.000  U
  S9       1.0000 0.45018  0.48455  0.51816  Biso   1.000  S
  S10      1.0000 0.23383  0.34053  0.46721  Biso   1.000  S
  O33      1.0000 0.42087  0.35720  0.66357  Biso   1.000  O
  O34      1.0000 0.49764  0.35840  0.67117  Biso   1.000  O
  O35      1.0000 0.35178  0.55080  0.31118  Biso   1.000  O
  O36      1.0000 0.43621  0.61080  0.38545  Biso   1.000  O
  C49      1.0000 0.44829  0.37160  0.63674  Biso   1.000  C
  C50      1.0000 0.41896  0.40270  0.55808  Biso   1.000  C
  C51      1.0000 0.36604  0.37580  0.50887  Biso   1.000  C
  H17      1.0000 0.34230  0.32860  0.52070  Biso   1.000  H
  C52      1.0000 0.35015  0.42490  0.43892  Biso   1.000  C
  H18      1.0000 0.31470  0.41430  0.39840  Biso   1.000  H
  C53      1.0000 0.39138  0.48950  0.43600  Biso   1.000  C
  C54      1.0000 0.39241  0.55470  0.37395  Biso   1.000  C
  O37      1.0000 0.32663  0.47130  0.66972  Biso   1.000  O
  O38      1.0000 0.26710  0.63230  0.57768  Biso   1.000  O
  O39      1.0000 0.17703  0.12660  0.33587  Biso   1.000  O
  O40      1.0000 0.21724  0.87310  0.38706  Biso   1.000  O
  C55      1.0000 0.28880  0.49410  0.60520  Biso   1.000  C
  C56      1.0000 0.27122  0.33030  0.56020  Biso   1.000  C
  C57      1.0000 0.28223  0.15910  0.58364  Biso   1.000  C
  H19      1.0000 0.30190  0.12650  0.63280  Biso   1.000  H
  C58      1.0000 0.26119  0.03840  0.52690  Biso   1.000  C
  H20      1.0000 0.26430  0.91520  0.53320  Biso   1.000  H
  C59      1.0000 0.23565  0.11930  0.46140  Biso   1.000  C
  C60      1.0000 0.20800  0.03100  0.39060  Biso   1.000  C
  U6       1.0000 0.90990  0.88713  0.76085  Biso   1.000  U
  S11      1.0000 0.95018  0.98455  0.51816  Biso   1.000  S
  S12      1.0000 0.73383  0.84053  0.46721  Biso   1.000  S
  O41      1.0000 0.92087  0.85720  0.66357  Biso   1.000  O
  O42      1.0000 0.99764  0.85840  0.67117  Biso   1.000  O
  O43      1.0000 0.85178  0.05080  0.31118  Biso   1.000  O
  O44      1.0000 0.93621  0.11080  0.38545  Biso   1.000  O
  C61      1.0000 0.94829  0.87160  0.63674  Biso   1.000  C
  C62      1.0000 0.91896  0.90270  0.55808  Biso   1.000  C
  C63      1.0000 0.86604  0.87580  0.50887  Biso   1.000  C
  H21      1.0000 0.84230  0.82860  0.52070  Biso   1.000  H
  C64      1.0000 0.85015  0.92490  0.43892  Biso   1.000  C
  H22      1.0000 0.81470  0.91430  0.39840  Biso   1.000  H
  C65      1.0000 0.89138  0.98950  0.43600  Biso   1.000  C
  C66      1.0000 0.89241  0.05470  0.37395  Biso   1.000  C
  O45      1.0000 0.82663  0.97130  0.66972  Biso   1.000  O
  O46      1.0000 0.76710  0.13230  0.57768  Biso   1.000  O
  O47      1.0000 0.67703  0.62660  0.33587  Biso   1.000  O
  O48      1.0000 0.71724  0.37310  0.38706  Biso   1.000  O
  C67      1.0000 0.78880  0.99410  0.60520  Biso   1.000  C
  C68      1.0000 0.77122  0.83030  0.56020  Biso   1.000  C
  C69      1.0000 0.78223  0.65910  0.58364  Biso   1.000  C
  H23      1.0000 0.80190  0.62650  0.63280  Biso   1.000  H
  C70      1.0000 0.76119  0.53840  0.52690  Biso   1.000  C
  H24      1.0000 0.76430  0.41520  0.53320  Biso   1.000  H
  C71      1.0000 0.73565  0.61930  0.46140  Biso   1.000  C
  C72      1.0000 0.70800  0.53100  0.39060  Biso   1.000  C
  U7       1.0000 0.59010  0.38713  0.73915  Biso   1.000  U
  S13      1.0000 0.54982  0.48455  0.98184  Biso   1.000  S
  S14      1.0000 0.76617  0.34053  0.03279  Biso   1.000  S
  O49      1.0000 0.57913  0.35720  0.83643  Biso   1.000  O
  O50      1.0000 0.50236  0.35840  0.82883  Biso   1.000  O
  O51      1.0000 0.64822  0.55080  0.18882  Biso   1.000  O
  O52      1.0000 0.56379  0.61080  0.11455  Biso   1.000  O
  C73      1.0000 0.55171  0.37160  0.86326  Biso   1.000  C
  C74      1.0000 0.58104  0.40270  0.94192  Biso   1.000  C
  C75      1.0000 0.63396  0.37580  0.99113  Biso   1.000  C
  H25      1.0000 0.65770  0.32860  0.97930  Biso   1.000  H
  C76      1.0000 0.64985  0.42490  0.06108  Biso   1.000  C
  H26      1.0000 0.68530  0.41430  0.10160  Biso   1.000  H
  C77      1.0000 0.60862  0.48950  0.06400  Biso   1.000  C
  C78      1.0000 0.60759  0.55470  0.12605  Biso   1.000  C
  O53      1.0000 0.67337  0.47130  0.83028  Biso   1.000  O
  O54      1.0000 0.73290  0.63230  0.92232  Biso   1.000  O
  O55      1.0000 0.82297  0.12660  0.16413  Biso   1.000  O
  O56      1.0000 0.78276  0.87310  0.11294  Biso   1.000  O
  C79      1.0000 0.71120  0.49410  0.89480  Biso   1.000  C
  C80      1.0000 0.72878  0.33030  0.93980  Biso   1.000  C
  C81      1.0000 0.71777  0.15910  0.91636  Biso   1.000  C
  H27      1.0000 0.69810  0.12650  0.86720  Biso   1.000  H
  C82      1.0000 0.73881  0.03840  0.97310  Biso   1.000  C
  H28      1.0000 0.73570  0.91520  0.96680  Biso   1.000  H
  C83      1.0000 0.76435  0.11930  0.03860  Biso   1.000  C
  C84      1.0000 0.79200  0.03100  0.10940  Biso   1.000  C
  U8       1.0000 0.09010  0.88713  0.73915  Biso   1.000  U
  S15      1.0000 0.04982  0.98455  0.98184  Biso   1.000  S
  S16      1.0000 0.26617  0.84053  0.03279  Biso   1.000  S
  O57      1.0000 0.07913  0.85720  0.83643  Biso   1.000  O
  O58      1.0000 0.00236  0.85840  0.82883  Biso   1.000  O
  O59      1.0000 0.14822  0.05080  0.18882  Biso   1.000  O
  O60      1.0000 0.06379  0.11080  0.11455  Biso   1.000  O
  C85      1.0000 0.05171  0.87160  0.86326  Biso   1.000  C
  C86      1.0000 0.08104  0.90270  0.94192  Biso   1.000  C
  C87      1.0000 0.13396  0.87580  0.99113  Biso   1.000  C
  H29      1.0000 0.15770  0.82860  0.97930  Biso   1.000  H
  C88      1.0000 0.14985  0.92490  0.06108  Biso   1.000  C
  H30      1.0000 0.18530  0.91430  0.10160  Biso   1.000  H
  C89      1.0000 0.10862  0.98950  0.06400  Biso   1.000  C
  C90      1.0000 0.10759  0.05470  0.12605  Biso   1.000  C
  O61      1.0000 0.17337  0.97130  0.83028  Biso   1.000  O
  O62      1.0000 0.23290  0.13230  0.92232  Biso   1.000  O
  O63      1.0000 0.32297  0.62660  0.16413  Biso   1.000  O
  O64      1.0000 0.28276  0.37310  0.11294  Biso   1.000  O
  C91      1.0000 0.21120  0.99410  0.89480  Biso   1.000  C
  C92      1.0000 0.22878  0.83030  0.93980  Biso   1.000  C
  C93      1.0000 0.21777  0.65910  0.91636  Biso   1.000  C
  H31      1.0000 0.19810  0.62650  0.86720  Biso   1.000  H
  C94      1.0000 0.23881  0.53840  0.97310  Biso   1.000  C
  H32      1.0000 0.23570  0.41520  0.96680  Biso   1.000  H
  C95      1.0000 0.26435  0.61930  0.03860  Biso   1.000  C
  C96      1.0000 0.29200  0.53100  0.10940  Biso   1.000  C
