data_image0
_cell_length_a       13.849
_cell_length_b       14.724
_cell_length_c       22.987
_cell_angle_alpha    88.25
_cell_angle_beta     74.38
_cell_angle_gamma    87.86

_symmetry_space_group_name_H-M    "P 1"
_symmetry_int_tables_number       1

loop_
  _symmetry_equiv_pos_as_xyz
  'x, y, z'

loop_
  _atom_site_label
  _atom_site_occupancy
  _atom_site_fract_x
  _atom_site_fract_y
  _atom_site_fract_z
  _atom_site_thermal_displace_type
  _atom_site_B_iso_or_equiv
  _atom_site_type_symbol
  C1       1.0000 0.94840  0.58190  0.20200  Biso   1.000  C
  H1       1.0000 0.95470  0.52880  0.18020  Biso   1.000  H
  Cd1      1.0000 0.31679  0.06089  0.09852  Biso   1.000  Cd
  Cd2      1.0000 0.20572  0.95482  0.44761  Biso   1.000  Cd
  O1       1.0000 0.25850  0.08800  0.01450  Biso   1.000  O
  O2       1.0000 0.36130  0.97020  0.00076  Biso   1.000  O
  O3       1.0000 0.15950  0.02470  0.54400  Biso   1.000  O
  O4       1.0000 0.25310  0.90050  0.53210  Biso   1.000  O
  O5       1.0000 0.24570  0.19950  0.12860  Biso   1.000  O
  O6       1.0000 0.28430  0.13200  0.20450  Biso   1.000  O
  O7       1.0000 0.14280  0.82540  0.42420  Biso   1.000  O
  N1       1.0000 0.09480  0.05430  0.41630  Biso   1.000  N
  N2       1.0000 0.32920  0.05820  0.40850  Biso   1.000  N
  N3       1.0000 0.18810  0.95780  0.14000  Biso   1.000  N
  N4       1.0000 0.41340  0.95310  0.13610  Biso   1.000  N
  C2       1.0000 0.20300  0.36610  0.18840  Biso   1.000  C
  H2       1.0000 0.18030  0.36110  0.15410  Biso   1.000  H
  C3       1.0000 0.19740  0.44910  0.21660  Biso   1.000  C
  H3       1.0000 0.17060  0.49930  0.20010  Biso   1.000  H
  C4       1.0000 0.25240  0.38330  0.29400  Biso   1.000  C
  H4       1.0000 0.26280  0.38770  0.33210  Biso   1.000  H
  C5       1.0000 0.22740  0.46100  0.26510  Biso   1.000  C
  C6       1.0000 0.22090  0.55030  0.29490  Biso   1.000  C
  C7       1.0000 0.24320  0.29130  0.21250  Biso   1.000  C
  C8       1.0000 0.26250  0.29810  0.26710  Biso   1.000  C
  H5       1.0000 0.28210  0.24690  0.28630  Biso   1.000  H
  C9       1.0000 0.21280  0.71840  0.34910  Biso   1.000  C
  C10      1.0000 0.09500  0.06120  0.36020  Biso   1.000  C
  H6       1.0000 0.12820  0.01540  0.33470  Biso   1.000  H
  C11      1.0000 0.05040  0.13020  0.33530  Biso   1.000  C
  H7       1.0000 0.05400  0.13040  0.29430  Biso   1.000  H
  C12      1.0000 0.99980  0.20030  0.37100  Biso   1.000  C
  C13      1.0000 0.99410  0.18900  0.43220  Biso   1.000  C
  H8       1.0000 0.95810  0.23160  0.45940  Biso   1.000  H
  C14      1.0000 0.04040  0.11630  0.45290  Biso   1.000  C
  H9       1.0000 0.03370  0.11000  0.49420  Biso   1.000  H
  C15      1.0000 0.95070  0.27980  0.34660  Biso   1.000  C
  C16      1.0000 0.45320  0.20610  0.36580  Biso   1.000  C
  C17      1.0000 0.16600  0.89620  0.10500  Biso   1.000  C
  H10      1.0000 0.19570  0.89980  0.06360  Biso   1.000  H
  C18      1.0000 0.10070  0.82680  0.12740  Biso   1.000  C
  H11      1.0000 0.08370  0.78840  0.10050  Biso   1.000  H
  C19      1.0000 0.06090  0.81330  0.18750  Biso   1.000  C
  C20      1.0000 0.08460  0.87820  0.22320  Biso   1.000  C
  H12      1.0000 0.05770  0.87550  0.26490  Biso   1.000  H
  C21      1.0000 0.14740  0.94590  0.19740  Biso   1.000  C
  H13      1.0000 0.16230  0.98740  0.22320  Biso   1.000  H
  C22      1.0000 0.99660  0.73490  0.21070  Biso   1.000  C
  C23      1.0000 0.01480  0.65270  0.17840  Biso   1.000  C
  H14      1.0000 0.06750  0.64580  0.14370  Biso   1.000  H
  C24      1.0000 0.30390  0.02610  0.98310  Biso   1.000  C
  C25      1.0000 0.23280  0.07970  0.89690  Biso   1.000  C
  H15      1.0000 0.20380  0.12910  0.92030  Biso   1.000  H
  C26      1.0000 0.21790  0.07390  0.83960  Biso   1.000  C
  H16      1.0000 0.18240  0.11950  0.82460  Biso   1.000  H
  C27      1.0000 0.28790  0.01690  0.92060  Biso   1.000  C
  C28      1.0000 0.32680  0.94360  0.88630  Biso   1.000  C
  H17      1.0000 0.36540  0.90030  0.90100  Biso   1.000  H
  C29      1.0000 0.31080  0.93150  0.83010  Biso   1.000  C
  H18      1.0000 0.33530  0.87930  0.80850  Biso   1.000  H
  C30      1.0000 0.25680  0.99920  0.80590  Biso   1.000  C
  C31      1.0000 0.24390  0.98990  0.74470  Biso   1.000  C
  C32      1.0000 0.51700  0.28490  0.34230  Biso   1.000  C
  C33      1.0000 0.63000  0.39660  0.35700  Biso   1.000  C
  H19      1.0000 0.66400  0.42080  0.38240  Biso   1.000  H
  C34      1.0000 0.64350  0.43120  0.30130  Biso   1.000  C
  C35      1.0000 0.56590  0.32440  0.37800  Biso   1.000  C
  H20      1.0000 0.55660  0.30310  0.41760  Biso   1.000  H
  C36      1.0000 0.60230  0.38160  0.26150  Biso   1.000  C
  H21      1.0000 0.61810  0.39860  0.22080  Biso   1.000  H
  C37      1.0000 0.53940  0.30890  0.28130  Biso   1.000  C
  H22      1.0000 0.51340  0.27750  0.25470  Biso   1.000  H
  C38      1.0000 0.71000  0.51050  0.27910  Biso   1.000  C
  C39      1.0000 0.80670  0.50770  0.27970  Biso   1.000  C
  C40      1.0000 0.85760  0.42840  0.30400  Biso   1.000  C
  C41      1.0000 0.87200  0.58810  0.25770  Biso   1.000  C
  C42      1.0000 0.70330  0.61790  0.19240  Biso   1.000  C
  H23      1.0000 0.76170  0.58950  0.16950  Biso   1.000  H
  C43      1.0000 0.65920  0.58880  0.25520  Biso   1.000  C
  C44      1.0000 0.20920  0.96740  0.56320  Biso   1.000  C
  C45      1.0000 0.22180  0.97350  0.62640  Biso   1.000  C
  C46      1.0000 0.21270  0.80640  0.38040  Biso   1.000  C
  C47      1.0000 0.46310  0.88710  0.10220  Biso   1.000  C
  H24      1.0000 0.46250  0.88720  0.06180  Biso   1.000  H
  C48      1.0000 0.41910  0.95260  0.19240  Biso   1.000  C
  H25      1.0000 0.38800  0.00060  0.21650  Biso   1.000  H
  C49      1.0000 0.46790  0.88580  0.21830  Biso   1.000  C
  H26      1.0000 0.46920  0.88890  0.25850  Biso   1.000  H
  C50      1.0000 0.51500  0.81910  0.12260  Biso   1.000  C
  H27      1.0000 0.55080  0.77590  0.09590  Biso   1.000  H
  C51      1.0000 0.51540  0.81330  0.18250  Biso   1.000  C
  C52      1.0000 0.56730  0.73590  0.20980  Biso   1.000  C
  C53      1.0000 0.65920  0.68500  0.16860  Biso   1.000  C
  H28      1.0000 0.68290  0.70130  0.12790  Biso   1.000  H
  C54      1.0000 0.53800  0.70430  0.26530  Biso   1.000  C
  H29      1.0000 0.48400  0.73300  0.29220  Biso   1.000  H
  C55      1.0000 0.25820  0.19900  0.18010  Biso   1.000  C
  C56      1.0000 0.58460  0.62960  0.28510  Biso   1.000  C
  H30      1.0000 0.55700  0.60870  0.32440  Biso   1.000  H
  C57      1.0000 0.92190  0.74140  0.26490  Biso   1.000  C
  H31      1.0000 0.91310  0.79400  0.28740  Biso   1.000  H
  C58      1.0000 0.85900  0.66540  0.28520  Biso   1.000  C
  H32      1.0000 0.80600  0.67160  0.31990  Biso   1.000  H
  C59      1.0000 0.91150  0.43280  0.34170  Biso   1.000  C
  H33      1.0000 0.91980  0.49060  0.35450  Biso   1.000  H
  C60      1.0000 0.95730  0.36350  0.36490  Biso   1.000  C
  H34      1.0000 0.99260  0.37410  0.39310  Biso   1.000  H
  C61      1.0000 0.86950  0.33890  0.27140  Biso   1.000  C
  H35      1.0000 0.84610  0.33220  0.23740  Biso   1.000  H
  C62      1.0000 0.91570  0.26920  0.29410  Biso   1.000  C
  H36      1.0000 0.92480  0.21330  0.27520  Biso   1.000  H
  C63      1.0000 0.37000  0.21190  0.41560  Biso   1.000  C
  H37      1.0000 0.35950  0.26660  0.43590  Biso   1.000  H
  C64      1.0000 0.30200  0.14450  0.43810  Biso   1.000  C
  H38      1.0000 0.24450  0.15390  0.46950  Biso   1.000  H
  C65      1.0000 0.39400  0.05500  0.35900  Biso   1.000  C
  H39      1.0000 0.39710  0.00410  0.33570  Biso   1.000  H
  C66      1.0000 0.46500  0.12800  0.33630  Biso   1.000  C
  H40      1.0000 0.51710  0.11990  0.30160  Biso   1.000  H
  C67      1.0000 0.15320  0.64880  0.37620  Biso   1.000  C
  H41      1.0000 0.11020  0.65800  0.41440  Biso   1.000  H
  C68      1.0000 0.25800  0.71180  0.28740  Biso   1.000  C
  H42      1.0000 0.28620  0.76280  0.26540  Biso   1.000  H
  C69      1.0000 0.26140  0.62830  0.25770  Biso   1.000  C
  H43      1.0000 0.28850  0.62380  0.21620  Biso   1.000  H
  C70      1.0000 0.15300  0.56830  0.35090  Biso   1.000  C
  H44      1.0000 0.10830  0.52450  0.37040  Biso   1.000  H
  C71      1.0000 0.16700  0.04200  0.72470  Biso   1.000  C
  H45      1.0000 0.12530  0.08430  0.74970  Biso   1.000  H
  C72      1.0000 0.15800  0.02800  0.67170  Biso   1.000  C
  H46      1.0000 0.10320  0.05690  0.66180  Biso   1.000  H
  C73      1.0000 0.27600  0.92230  0.70860  Biso   1.000  C
  H47      1.0000 0.29700  0.87110  0.72690  Biso   1.000  H
  C74      1.0000 0.28300  0.91400  0.64950  Biso   1.000  C
  H48      1.0000 0.32640  0.87090  0.62580  Biso   1.000  H
  O8       1.0000 0.25100  0.87470  0.34950  Biso   1.000  O
  O9       1.0000 0.29600  0.84500  0.38000  Biso   1.000  O
  C75      1.0000 0.30600  0.57660  0.30950  Biso   1.000  C
  H49      1.0000 0.36180  0.53740  0.30260  Biso   1.000  H
  C76      1.0000 0.14400  0.59100  0.31760  Biso   1.000  C
  H50      1.0000 0.08390  0.56290  0.32090  Biso   1.000  H
  C77      1.0000 0.30900  0.66890  0.33680  Biso   1.000  C
  H51      1.0000 0.36630  0.69130  0.34460  Biso   1.000  H
  C78      1.0000 0.13900  0.68380  0.34060  Biso   1.000  C
  H52      1.0000 0.07870  0.71690  0.34880  Biso   1.000  H
  C79      1.0000 0.35800  0.07500  0.35120  Biso   1.000  C
  H53      1.0000 0.33360  0.04030  0.32550  Biso   1.000  H
  C80      1.0000 0.42100  0.14150  0.32750  Biso   1.000  C
  H54      1.0000 0.44450  0.14710  0.28570  Biso   1.000  H
  C81      1.0000 0.43300  0.17900  0.42320  Biso   1.000  C
  H55      1.0000 0.46530  0.20540  0.44890  Biso   1.000  H
  C82      1.0000 0.36100  0.11000  0.44590  Biso   1.000  C
  H56      1.0000 0.33570  0.10140  0.48740  Biso   1.000  H
  C83      1.0000 0.23600  0.06720  0.70930  Biso   1.000  C
  H57      1.0000 0.24120  0.12410  0.72460  Biso   1.000  H
  C84      1.0000 0.25800  0.89800  0.71740  Biso   1.000  C
  H58      1.0000 0.27940  0.84650  0.73540  Biso   1.000  H
  C85      1.0000 0.22100  0.06190  0.64990  Biso   1.000  C
  H59      1.0000 0.21190  0.11400  0.62790  Biso   1.000  H
  C86      1.0000 0.23400  0.89800  0.65970  Biso   1.000  C
  H60      1.0000 0.22570  0.84170  0.64430  Biso   1.000  H
  C87      1.0000 0.85100  0.32780  0.38890  Biso   1.000  C
  H61      1.0000 0.82420  0.30470  0.42780  Biso   1.000  H
  C88      1.0000 0.98420  0.32390  0.29630  Biso   1.000  C
  H62      1.0000 0.04780  0.30620  0.27310  Biso   1.000  H
  C89      1.0000 0.93640  0.39450  0.27280  Biso   1.000  C
  H63      1.0000 0.96380  0.41620  0.23360  Biso   1.000  H
  C90      1.0000 0.80700  0.39810  0.37010  Biso   1.000  C
  H64      1.0000 0.75020  0.42750  0.39420  Biso   1.000  H
  C91      1.0000 0.60120  0.75420  0.25950  Biso   1.000  C
  H65      1.0000 0.59160  0.81100  0.27710  Biso   1.000  H
  C92      1.0000 0.65160  0.68090  0.28200  Biso   1.000  C
  H66      1.0000 0.67990  0.69030  0.31360  Biso   1.000  H
  C93      1.0000 0.56700  0.65370  0.19100  Biso   1.000  C
  H67      1.0000 0.53730  0.64300  0.16000  Biso   1.000  H
  C94      1.0000 0.60920  0.58170  0.21650  Biso   1.000  C
  H68      1.0000 0.60070  0.52350  0.20440  Biso   1.000  H
  C95      1.0000 0.56000  0.44120  0.35330  Biso   1.000  C
  H69      1.0000 0.54750  0.49650  0.37280  Biso   1.000  H
  C96      1.0000 0.49740  0.37000  0.37490  Biso   1.000  C
  H70      1.0000 0.44400  0.37600  0.40930  Biso   1.000  H
  C97      1.0000 0.59640  0.28320  0.29550  Biso   1.000  C
  H71      1.0000 0.61210  0.22980  0.27380  Biso   1.000  H
  C98      1.0000 0.65750  0.35610  0.27670  Biso   1.000  C
  H72      1.0000 0.71270  0.34860  0.24350  Biso   1.000  H
  C99      1.0000 0.98000  0.70620  0.27070  Biso   1.000  C
  H73      1.0000 0.01520  0.73190  0.29500  Biso   1.000  H
  C100     1.0000 0.91000  0.63820  0.29500  Biso   1.000  C
  H74      1.0000 0.88920  0.62760  0.33660  Biso   1.000  H
  C101     1.0000 0.94600  0.69300  0.17600  Biso   1.000  C
  H75      1.0000 0.95920  0.70970  0.13530  Biso   1.000  H
  C102     1.0000 0.87100  0.62190  0.20020  Biso   1.000  C
  H76      1.0000 0.82710  0.60190  0.17920  Biso   1.000  H
  C103     1.0000 0.05160  0.41810  0.79800  Biso   1.000  C
  H77      1.0000 0.04530  0.47120  0.81980  Biso   1.000  H
  Cd3      1.0000 0.68321  0.93911  0.90148  Biso   1.000  Cd
  Cd4      1.0000 0.79428  0.04518  0.55239  Biso   1.000  Cd
  O10      1.0000 0.74150  0.91200  0.98550  Biso   1.000  O
  O11      1.0000 0.63870  0.02980  0.99924  Biso   1.000  O
  O12      1.0000 0.84050  0.97530  0.45600  Biso   1.000  O
  O13      1.0000 0.74690  0.09950  0.46790  Biso   1.000  O
  O14      1.0000 0.75430  0.80050  0.87140  Biso   1.000  O
  O15      1.0000 0.71570  0.86800  0.79550  Biso   1.000  O
  O16      1.0000 0.85720  0.17460  0.57580  Biso   1.000  O
  N5       1.0000 0.90520  0.94570  0.58370  Biso   1.000  N
  N6       1.0000 0.67080  0.94180  0.59150  Biso   1.000  N
  N7       1.0000 0.81190  0.04220  0.86000  Biso   1.000  N
  N8       1.0000 0.58660  0.04690  0.86390  Biso   1.000  N
  C104     1.0000 0.79700  0.63390  0.81160  Biso   1.000  C
  H78      1.0000 0.81970  0.63890  0.84590  Biso   1.000  H
  C105     1.0000 0.80260  0.55090  0.78340  Biso   1.000  C
  H79      1.0000 0.82940  0.50070  0.79990  Biso   1.000  H
  C106     1.0000 0.74760  0.61670  0.70600  Biso   1.000  C
  H80      1.0000 0.73720  0.61230  0.66790  Biso   1.000  H
  C107     1.0000 0.77260  0.53900  0.73490  Biso   1.000  C
  C108     1.0000 0.77910  0.44970  0.70510  Biso   1.000  C
  C109     1.0000 0.75680  0.70870  0.78750  Biso   1.000  C
  C110     1.0000 0.73750  0.70190  0.73290  Biso   1.000  C
  H81      1.0000 0.71790  0.75310  0.71370  Biso   1.000  H
  C111     1.0000 0.78720  0.28160  0.65090  Biso   1.000  C
  C112     1.0000 0.90500  0.93880  0.63980  Biso   1.000  C
  H82      1.0000 0.87180  0.98460  0.66530  Biso   1.000  H
  C113     1.0000 0.94960  0.86980  0.66470  Biso   1.000  C
  H83      1.0000 0.94600  0.86960  0.70570  Biso   1.000  H
  C114     1.0000 0.00020  0.79970  0.62900  Biso   1.000  C
  C115     1.0000 0.00590  0.81100  0.56780  Biso   1.000  C
  H84      1.0000 0.04190  0.76840  0.54060  Biso   1.000  H
  C116     1.0000 0.95960  0.88370  0.54710  Biso   1.000  C
  H85      1.0000 0.96630  0.89000  0.50580  Biso   1.000  H
  C117     1.0000 0.04930  0.72020  0.65340  Biso   1.000  C
  C118     1.0000 0.54680  0.79390  0.63420  Biso   1.000  C
  C119     1.0000 0.83400  0.10380  0.89500  Biso   1.000  C
  H86      1.0000 0.80430  0.10020  0.93640  Biso   1.000  H
  C120     1.0000 0.89930  0.17320  0.87260  Biso   1.000  C
  H87      1.0000 0.91630  0.21160  0.89950  Biso   1.000  H
  C121     1.0000 0.93910  0.18670  0.81250  Biso   1.000  C
  C122     1.0000 0.91540  0.12180  0.77680  Biso   1.000  C
  H88      1.0000 0.94230  0.12450  0.73510  Biso   1.000  H
  C123     1.0000 0.85260  0.05410  0.80260  Biso   1.000  C
  H89      1.0000 0.83770  0.01260  0.77680  Biso   1.000  H
  C124     1.0000 0.00340  0.26510  0.78930  Biso   1.000  C
  C125     1.0000 0.98520  0.34730  0.82160  Biso   1.000  C
  H90      1.0000 0.93250  0.35420  0.85630  Biso   1.000  H
  C126     1.0000 0.69610  0.97390  0.01690  Biso   1.000  C
  C127     1.0000 0.76720  0.92030  0.10310  Biso   1.000  C
  H91      1.0000 0.79620  0.87090  0.07970  Biso   1.000  H
  C128     1.0000 0.78210  0.92610  0.16040  Biso   1.000  C
  H92      1.0000 0.81760  0.88050  0.17540  Biso   1.000  H
  C129     1.0000 0.71210  0.98310  0.07940  Biso   1.000  C
  C130     1.0000 0.67320  0.05640  0.11370  Biso   1.000  C
  H93      1.0000 0.63460  0.09970  0.09900  Biso   1.000  H
  C131     1.0000 0.68920  0.06850  0.16990  Biso   1.000  C
  H94      1.0000 0.66470  0.12070  0.19150  Biso   1.000  H
  C132     1.0000 0.74320  0.00080  0.19410  Biso   1.000  C
  C133     1.0000 0.75610  0.01010  0.25530  Biso   1.000  C
  C134     1.0000 0.48300  0.71510  0.65770  Biso   1.000  C
  C135     1.0000 0.37000  0.60340  0.64300  Biso   1.000  C
  H95      1.0000 0.33600  0.57920  0.61760  Biso   1.000  H
  C136     1.0000 0.35650  0.56880  0.69870  Biso   1.000  C
  C137     1.0000 0.43410  0.67560  0.62200  Biso   1.000  C
  H96      1.0000 0.44340  0.69690  0.58240  Biso   1.000  H
  C138     1.0000 0.39770  0.61840  0.73850  Biso   1.000  C
  H97      1.0000 0.38190  0.60140  0.77920  Biso   1.000  H
  C139     1.0000 0.46060  0.69110  0.71870  Biso   1.000  C
  H98      1.0000 0.48660  0.72250  0.74530  Biso   1.000  H
  C140     1.0000 0.29000  0.48950  0.72090  Biso   1.000  C
  C141     1.0000 0.19330  0.49230  0.72030  Biso   1.000  C
  C142     1.0000 0.14240  0.57160  0.69600  Biso   1.000  C
  C143     1.0000 0.12800  0.41190  0.74230  Biso   1.000  C
  C144     1.0000 0.29670  0.38210  0.80760  Biso   1.000  C
  H99      1.0000 0.23830  0.41050  0.83050  Biso   1.000  H
  C145     1.0000 0.34080  0.41120  0.74480  Biso   1.000  C
  C146     1.0000 0.79080  0.03260  0.43680  Biso   1.000  C
  C147     1.0000 0.77820  0.02650  0.37360  Biso   1.000  C
  C148     1.0000 0.78730  0.19360  0.61960  Biso   1.000  C
  C149     1.0000 0.53690  0.11290  0.89780  Biso   1.000  C
  H100     1.0000 0.53750  0.11280  0.93820  Biso   1.000  H
  C150     1.0000 0.58090  0.04740  0.80760  Biso   1.000  C
  H101     1.0000 0.61200  0.99940  0.78350  Biso   1.000  H
  C151     1.0000 0.53210  0.11420  0.78170  Biso   1.000  C
  H102     1.0000 0.53080  0.11110  0.74150  Biso   1.000  H
  C152     1.0000 0.48500  0.18090  0.87740  Biso   1.000  C
  H103     1.0000 0.44920  0.22410  0.90410  Biso   1.000  H
  C153     1.0000 0.48460  0.18670  0.81750  Biso   1.000  C
  C154     1.0000 0.43270  0.26410  0.79020  Biso   1.000  C
  C155     1.0000 0.34080  0.31500  0.83140  Biso   1.000  C
  H104     1.0000 0.31710  0.29870  0.87210  Biso   1.000  H
  C156     1.0000 0.46200  0.29570  0.73470  Biso   1.000  C
  H105     1.0000 0.51600  0.26700  0.70780  Biso   1.000  H
  C157     1.0000 0.74180  0.80100  0.81990  Biso   1.000  C
  C158     1.0000 0.41540  0.37040  0.71490  Biso   1.000  C
  H106     1.0000 0.44300  0.39130  0.67560  Biso   1.000  H
  C159     1.0000 0.07810  0.25860  0.73510  Biso   1.000  C
  H107     1.0000 0.08690  0.20600  0.71260  Biso   1.000  H
  C160     1.0000 0.14100  0.33460  0.71480  Biso   1.000  C
  H108     1.0000 0.19400  0.32840  0.68010  Biso   1.000  H
  C161     1.0000 0.08850  0.56720  0.65830  Biso   1.000  C
  H109     1.0000 0.08020  0.50940  0.64550  Biso   1.000  H
  C162     1.0000 0.04270  0.63650  0.63510  Biso   1.000  C
  H110     1.0000 0.00740  0.62590  0.60690  Biso   1.000  H
  C163     1.0000 0.13050  0.66110  0.72860  Biso   1.000  C
  H111     1.0000 0.15390  0.66780  0.76260  Biso   1.000  H
  C164     1.0000 0.08430  0.73080  0.70590  Biso   1.000  C
  H112     1.0000 0.07520  0.78670  0.72480  Biso   1.000  H
  C165     1.0000 0.63000  0.78810  0.58440  Biso   1.000  C
  H113     1.0000 0.64050  0.73340  0.56410  Biso   1.000  H
  C166     1.0000 0.69800  0.85550  0.56190  Biso   1.000  C
  H114     1.0000 0.75550  0.84610  0.53050  Biso   1.000  H
  C167     1.0000 0.60600  0.94500  0.64100  Biso   1.000  C
  H115     1.0000 0.60290  0.99590  0.66430  Biso   1.000  H
  C168     1.0000 0.53500  0.87200  0.66370  Biso   1.000  C
  H116     1.0000 0.48290  0.88010  0.69840  Biso   1.000  H
  C169     1.0000 0.84680  0.35120  0.62380  Biso   1.000  C
  H117     1.0000 0.88980  0.34200  0.58560  Biso   1.000  H
  C170     1.0000 0.74200  0.28820  0.71260  Biso   1.000  C
  H118     1.0000 0.71380  0.23720  0.73460  Biso   1.000  H
  C171     1.0000 0.73860  0.37170  0.74230  Biso   1.000  C
  H119     1.0000 0.71150  0.37620  0.78380  Biso   1.000  H
  C172     1.0000 0.84700  0.43170  0.64910  Biso   1.000  C
  H120     1.0000 0.89170  0.47550  0.62960  Biso   1.000  H
  C173     1.0000 0.83300  0.95800  0.27530  Biso   1.000  C
  H121     1.0000 0.87470  0.91570  0.25030  Biso   1.000  H
  C174     1.0000 0.84200  0.97200  0.32830  Biso   1.000  C
  H122     1.0000 0.89680  0.94310  0.33820  Biso   1.000  H
  C175     1.0000 0.72400  0.07770  0.29140  Biso   1.000  C
  H123     1.0000 0.70300  0.12890  0.27310  Biso   1.000  H
  C176     1.0000 0.71700  0.08600  0.35050  Biso   1.000  C
  H124     1.0000 0.67360  0.12910  0.37420  Biso   1.000  H
  O17      1.0000 0.74900  0.12530  0.65050  Biso   1.000  O
  O18      1.0000 0.70400  0.15500  0.62000  Biso   1.000  O
  C177     1.0000 0.69400  0.42340  0.69050  Biso   1.000  C
  H125     1.0000 0.63820  0.46260  0.69740  Biso   1.000  H
  C178     1.0000 0.85600  0.40900  0.68240  Biso   1.000  C
  H126     1.0000 0.91610  0.43710  0.67910  Biso   1.000  H
  C179     1.0000 0.69100  0.33110  0.66320  Biso   1.000  C
  H127     1.0000 0.63370  0.30870  0.65540  Biso   1.000  H
  C180     1.0000 0.86100  0.31620  0.65940  Biso   1.000  C
  H128     1.0000 0.92130  0.28310  0.65120  Biso   1.000  H
  C181     1.0000 0.64200  0.92500  0.64880  Biso   1.000  C
  H129     1.0000 0.66640  0.95970  0.67450  Biso   1.000  H
  C182     1.0000 0.57900  0.85850  0.67250  Biso   1.000  C
  H130     1.0000 0.55550  0.85290  0.71430  Biso   1.000  H
  C183     1.0000 0.56700  0.82100  0.57680  Biso   1.000  C
  H131     1.0000 0.53470  0.79460  0.55110  Biso   1.000  H
  C184     1.0000 0.63900  0.89000  0.55410  Biso   1.000  C
  H132     1.0000 0.66430  0.89860  0.51260  Biso   1.000  H
  C185     1.0000 0.76400  0.93280  0.29070  Biso   1.000  C
  H133     1.0000 0.75880  0.87590  0.27540  Biso   1.000  H
  C186     1.0000 0.74200  0.10200  0.28260  Biso   1.000  C
  H134     1.0000 0.72060  0.15350  0.26460  Biso   1.000  H
  C187     1.0000 0.77900  0.93810  0.35010  Biso   1.000  C
  H135     1.0000 0.78810  0.88600  0.37210  Biso   1.000  H
  C188     1.0000 0.76600  0.10200  0.34030  Biso   1.000  C
  H136     1.0000 0.77430  0.15830  0.35570  Biso   1.000  H
  C189     1.0000 0.14900  0.67220  0.61110  Biso   1.000  C
  H137     1.0000 0.17580  0.69530  0.57220  Biso   1.000  H
  C190     1.0000 0.01580  0.67610  0.70370  Biso   1.000  C
  H138     1.0000 0.95220  0.69380  0.72690  Biso   1.000  H
  C191     1.0000 0.06360  0.60550  0.72720  Biso   1.000  C
  H139     1.0000 0.03620  0.58380  0.76640  Biso   1.000  H
  C192     1.0000 0.19300  0.60190  0.62990  Biso   1.000  C
  H140     1.0000 0.24980  0.57250  0.60580  Biso   1.000  H
  C193     1.0000 0.39880  0.24580  0.74050  Biso   1.000  C
  H141     1.0000 0.40840  0.18900  0.72290  Biso   1.000  H
  C194     1.0000 0.34840  0.31910  0.71800  Biso   1.000  C
  H142     1.0000 0.32010  0.30970  0.68640  Biso   1.000  H
  C195     1.0000 0.43300  0.34630  0.80900  Biso   1.000  C
  H143     1.0000 0.46270  0.35700  0.84000  Biso   1.000  H
  C196     1.0000 0.39080  0.41830  0.78350  Biso   1.000  C
  H144     1.0000 0.39930  0.47650  0.79560  Biso   1.000  H
  C197     1.0000 0.44000  0.55880  0.64670  Biso   1.000  C
  H145     1.0000 0.45250  0.50350  0.62720  Biso   1.000  H
  C198     1.0000 0.50260  0.63000  0.62510  Biso   1.000  C
  H146     1.0000 0.55600  0.62400  0.59070  Biso   1.000  H
  C199     1.0000 0.40360  0.71680  0.70450  Biso   1.000  C
  H147     1.0000 0.38790  0.77020  0.72620  Biso   1.000  H
  C200     1.0000 0.34250  0.64390  0.72330  Biso   1.000  C
  H148     1.0000 0.28730  0.65140  0.75650  Biso   1.000  H
  C201     1.0000 0.02000  0.29380  0.72930  Biso   1.000  C
  H149     1.0000 0.98480  0.26810  0.70500  Biso   1.000  H
  C202     1.0000 0.09000  0.36180  0.70500  Biso   1.000  C
  H150     1.0000 0.11080  0.37240  0.66340  Biso   1.000  H
  C203     1.0000 0.05400  0.30700  0.82400  Biso   1.000  C
  H151     1.0000 0.04080  0.29030  0.86470  Biso   1.000  H
  C204     1.0000 0.12900  0.37810  0.79980  Biso   1.000  C
  H152     1.0000 0.17290  0.39810  0.82080  Biso   1.000  H
