data_image0
_cell_length_a       23.985
_cell_length_b       15.449
_cell_length_c       7.34
_cell_angle_alpha    90
_cell_angle_beta     107.6
_cell_angle_gamma    90

_symmetry_space_group_name_H-M    "P 1"
_symmetry_int_tables_number       1

loop_
  _symmetry_equiv_pos_as_xyz
  'x, y, z'

loop_
  _atom_site_label
  _atom_site_occupancy
  _atom_site_fract_x
  _atom_site_fract_y
  _atom_site_fract_z
  _atom_site_thermal_displace_type
  _atom_site_B_iso_or_equiv
  _atom_site_type_symbol
  N1       1.0000 0.27880  0.61770  0.02600  Biso   1.000  N
  C1       1.0000 0.06190  0.71620  0.31620  Biso   1.000  C
  N2       1.0000 0.18480  0.71800  0.74150  Biso   1.000  N
  N3       1.0000 0.18960  0.71970  0.15900  Biso   1.000  N
  C2       1.0000 0.12620  0.71750  0.38390  Biso   1.000  C
  C3       1.0000 0.03150  0.71610  0.11960  Biso   1.000  C
  H1       1.0000 0.05230  0.71620  0.03140  Biso   1.000  H
  C4       1.0000 0.16000  0.71830  0.26230  Biso   1.000  C
  C5       1.0000 0.15770  0.71760  0.58140  Biso   1.000  C
  C6       1.0000 0.02910  0.71580  0.44450  Biso   1.000  C
  H2       1.0000 0.04820  0.71530  0.57520  Biso   1.000  H
  C7       1.0000 0.25940  0.46610  0.01850  Biso   1.000  C
  H3       1.0000 0.23300  0.42160  0.01440  Biso   1.000  H
  C8       1.0000 0.24200  0.55170  0.01640  Biso   1.000  C
  H4       1.0000 0.20330  0.56360  0.00800  Biso   1.000  H
  O1       1.0000 0.43950  0.57080  0.96010  Biso   1.000  O
  N4       1.0000 0.43950  0.43010  0.02930  Biso   1.000  N
  H5       1.0000 0.47220  0.42250  0.00610  Biso   1.000  H
  H6       1.0000 0.42240  0.38700  0.06440  Biso   1.000  H
  C9       1.0000 0.31660  0.44730  0.02670  Biso   1.000  C
  H7       1.0000 0.32940  0.39030  0.03200  Biso   1.000  H
  C10      1.0000 0.35450  0.51620  0.02690  Biso   1.000  C
  C11      1.0000 0.33410  0.59920  0.03370  Biso   1.000  C
  H8       1.0000 0.36010  0.64490  0.04430  Biso   1.000  H
  C12      1.0000 0.41590  0.50630  0.01120  Biso   1.000  C
  O2       1.0000 0.44110  0.57210  0.39300  Biso   1.000  O
  C13      1.0000 0.35430  0.51300  0.19700  Biso   1.000  C
  N5       1.0000 0.44250  0.42800  0.32000  Biso   1.000  N
  H9       1.0000 0.47910  0.42140  0.37800  Biso   1.000  H
  H10      1.0000 0.42170  0.38540  0.26290  Biso   1.000  H
  C14      1.0000 0.41700  0.50800  0.31900  Biso   1.000  C
  C15      1.0000 0.33360  0.60100  0.15600  Biso   1.000  C
  H11      1.0000 0.35700  0.64640  0.21690  Biso   1.000  H
  C16      1.0000 0.31790  0.44900  0.11700  Biso   1.000  C
  H12      1.0000 0.33160  0.39190  0.12670  Biso   1.000  H
  N6       1.0000 0.77880  0.11770  0.02600  Biso   1.000  N
  C17      1.0000 0.56190  0.21620  0.31620  Biso   1.000  C
  N7       1.0000 0.68480  0.21800  0.74150  Biso   1.000  N
  N8       1.0000 0.68960  0.21970  0.15900  Biso   1.000  N
  C18      1.0000 0.62620  0.21750  0.38390  Biso   1.000  C
  C19      1.0000 0.53150  0.21610  0.11960  Biso   1.000  C
  H13      1.0000 0.55230  0.21620  0.03140  Biso   1.000  H
  C20      1.0000 0.66000  0.21830  0.26230  Biso   1.000  C
  C21      1.0000 0.65770  0.21760  0.58140  Biso   1.000  C
  C22      1.0000 0.52910  0.21580  0.44450  Biso   1.000  C
  H14      1.0000 0.54820  0.21530  0.57520  Biso   1.000  H
  C23      1.0000 0.75940  0.96610  0.01850  Biso   1.000  C
  H15      1.0000 0.73300  0.92160  0.01440  Biso   1.000  H
  C24      1.0000 0.74200  0.05170  0.01640  Biso   1.000  C
  H16      1.0000 0.70330  0.06360  0.00800  Biso   1.000  H
  O3       1.0000 0.93950  0.07080  0.96010  Biso   1.000  O
  N9       1.0000 0.93950  0.93010  0.02930  Biso   1.000  N
  H17      1.0000 0.97220  0.92250  0.00610  Biso   1.000  H
  H18      1.0000 0.92240  0.88700  0.06440  Biso   1.000  H
  C25      1.0000 0.81660  0.94730  0.02670  Biso   1.000  C
  H19      1.0000 0.82940  0.89030  0.03200  Biso   1.000  H
  C26      1.0000 0.85450  0.01620  0.02690  Biso   1.000  C
  C27      1.0000 0.83410  0.09920  0.03370  Biso   1.000  C
  H20      1.0000 0.86010  0.14490  0.04430  Biso   1.000  H
  C28      1.0000 0.91590  0.00630  0.01120  Biso   1.000  C
  O4       1.0000 0.94110  0.07210  0.39300  Biso   1.000  O
  C29      1.0000 0.85430  0.01300  0.19700  Biso   1.000  C
  N10      1.0000 0.94250  0.92800  0.32000  Biso   1.000  N
  H21      1.0000 0.97910  0.92140  0.37800  Biso   1.000  H
  H22      1.0000 0.92170  0.88540  0.26290  Biso   1.000  H
  C30      1.0000 0.91700  0.00800  0.31900  Biso   1.000  C
  C31      1.0000 0.83360  0.10100  0.15600  Biso   1.000  C
  H23      1.0000 0.85700  0.14640  0.21690  Biso   1.000  H
  C32      1.0000 0.81790  0.94900  0.11700  Biso   1.000  C
  H24      1.0000 0.83160  0.89190  0.12670  Biso   1.000  H
  N11      1.0000 0.72120  0.61770  0.47400  Biso   1.000  N
  C33      1.0000 0.93810  0.71620  0.18380  Biso   1.000  C
  N12      1.0000 0.81520  0.71800  0.75850  Biso   1.000  N
  N13      1.0000 0.81040  0.71970  0.34100  Biso   1.000  N
  C34      1.0000 0.87380  0.71750  0.11610  Biso   1.000  C
  C35      1.0000 0.96850  0.71610  0.38040  Biso   1.000  C
  H25      1.0000 0.94770  0.71620  0.46860  Biso   1.000  H
  C36      1.0000 0.84000  0.71830  0.23770  Biso   1.000  C
  C37      1.0000 0.84230  0.71760  0.91860  Biso   1.000  C
  C38      1.0000 0.97090  0.71580  0.05550  Biso   1.000  C
  H26      1.0000 0.95180  0.71530  0.92480  Biso   1.000  H
  C39      1.0000 0.74060  0.46610  0.48150  Biso   1.000  C
  H27      1.0000 0.76700  0.42160  0.48560  Biso   1.000  H
  C40      1.0000 0.75800  0.55170  0.48360  Biso   1.000  C
  H28      1.0000 0.79670  0.56360  0.49200  Biso   1.000  H
  O5       1.0000 0.56050  0.57080  0.53990  Biso   1.000  O
  N14      1.0000 0.56050  0.43010  0.47070  Biso   1.000  N
  H29      1.0000 0.52780  0.42250  0.49390  Biso   1.000  H
  H30      1.0000 0.57760  0.38700  0.43560  Biso   1.000  H
  C41      1.0000 0.68340  0.44730  0.47330  Biso   1.000  C
  H31      1.0000 0.67060  0.39030  0.46800  Biso   1.000  H
  C42      1.0000 0.64550  0.51620  0.47310  Biso   1.000  C
  C43      1.0000 0.66590  0.59920  0.46630  Biso   1.000  C
  H32      1.0000 0.63990  0.64490  0.45570  Biso   1.000  H
  C44      1.0000 0.58410  0.50630  0.48880  Biso   1.000  C
  O6       1.0000 0.55890  0.57210  0.10700  Biso   1.000  O
  C45      1.0000 0.64570  0.51300  0.30300  Biso   1.000  C
  N15      1.0000 0.55750  0.42800  0.18000  Biso   1.000  N
  H33      1.0000 0.52090  0.42140  0.12200  Biso   1.000  H
  H34      1.0000 0.57830  0.38540  0.23710  Biso   1.000  H
  C46      1.0000 0.58300  0.50800  0.18100  Biso   1.000  C
  C47      1.0000 0.66640  0.60100  0.34400  Biso   1.000  C
  H35      1.0000 0.64300  0.64640  0.28310  Biso   1.000  H
  C48      1.0000 0.68210  0.44900  0.38300  Biso   1.000  C
  H36      1.0000 0.66840  0.39190  0.37330  Biso   1.000  H
  N16      1.0000 0.22120  0.11770  0.47400  Biso   1.000  N
  C49      1.0000 0.43810  0.21620  0.18380  Biso   1.000  C
  N17      1.0000 0.31520  0.21800  0.75850  Biso   1.000  N
  N18      1.0000 0.31040  0.21970  0.34100  Biso   1.000  N
  C50      1.0000 0.37380  0.21750  0.11610  Biso   1.000  C
  C51      1.0000 0.46850  0.21610  0.38040  Biso   1.000  C
  H37      1.0000 0.44770  0.21620  0.46860  Biso   1.000  H
  C52      1.0000 0.34000  0.21830  0.23770  Biso   1.000  C
  C53      1.0000 0.34230  0.21760  0.91860  Biso   1.000  C
  C54      1.0000 0.47090  0.21580  0.05550  Biso   1.000  C
  H38      1.0000 0.45180  0.21530  0.92480  Biso   1.000  H
  C55      1.0000 0.24060  0.96610  0.48150  Biso   1.000  C
  H39      1.0000 0.26700  0.92160  0.48560  Biso   1.000  H
  C56      1.0000 0.25800  0.05170  0.48360  Biso   1.000  C
  H40      1.0000 0.29670  0.06360  0.49200  Biso   1.000  H
  O7       1.0000 0.06050  0.07080  0.53990  Biso   1.000  O
  N19      1.0000 0.06050  0.93010  0.47070  Biso   1.000  N
  H41      1.0000 0.02780  0.92250  0.49390  Biso   1.000  H
  H42      1.0000 0.07760  0.88700  0.43560  Biso   1.000  H
  C57      1.0000 0.18340  0.94730  0.47330  Biso   1.000  C
  H43      1.0000 0.17060  0.89030  0.46800  Biso   1.000  H
  C58      1.0000 0.14550  0.01620  0.47310  Biso   1.000  C
  C59      1.0000 0.16590  0.09920  0.46630  Biso   1.000  C
  H44      1.0000 0.13990  0.14490  0.45570  Biso   1.000  H
  C60      1.0000 0.08410  0.00630  0.48880  Biso   1.000  C
  O8       1.0000 0.05890  0.07210  0.10700  Biso   1.000  O
  C61      1.0000 0.14570  0.01300  0.30300  Biso   1.000  C
  N20      1.0000 0.05750  0.92800  0.18000  Biso   1.000  N
  H45      1.0000 0.02090  0.92140  0.12200  Biso   1.000  H
  H46      1.0000 0.07830  0.88540  0.23710  Biso   1.000  H
  C62      1.0000 0.08300  0.00800  0.18100  Biso   1.000  C
  C63      1.0000 0.16640  0.10100  0.34400  Biso   1.000  C
  H47      1.0000 0.14300  0.14640  0.28310  Biso   1.000  H
  C64      1.0000 0.18210  0.94900  0.38300  Biso   1.000  C
  H48      1.0000 0.16840  0.89190  0.37330  Biso   1.000  H
  N21      1.0000 0.72120  0.38230  0.97400  Biso   1.000  N
  C65      1.0000 0.93810  0.28380  0.68380  Biso   1.000  C
  N22      1.0000 0.81520  0.28200  0.25850  Biso   1.000  N
  N23      1.0000 0.81040  0.28030  0.84100  Biso   1.000  N
  C66      1.0000 0.87380  0.28250  0.61610  Biso   1.000  C
  C67      1.0000 0.96850  0.28390  0.88040  Biso   1.000  C
  H49      1.0000 0.94770  0.28380  0.96860  Biso   1.000  H
  C68      1.0000 0.84000  0.28170  0.73770  Biso   1.000  C
  C69      1.0000 0.84230  0.28240  0.41860  Biso   1.000  C
  C70      1.0000 0.97090  0.28420  0.55550  Biso   1.000  C
  H50      1.0000 0.95180  0.28470  0.42480  Biso   1.000  H
  C71      1.0000 0.74060  0.53390  0.98150  Biso   1.000  C
  H51      1.0000 0.76700  0.57840  0.98560  Biso   1.000  H
  C72      1.0000 0.75800  0.44830  0.98360  Biso   1.000  C
  H52      1.0000 0.79670  0.43640  0.99200  Biso   1.000  H
  O9       1.0000 0.56050  0.42920  0.03990  Biso   1.000  O
  N24      1.0000 0.56050  0.56990  0.97070  Biso   1.000  N
  H53      1.0000 0.52780  0.57750  0.99390  Biso   1.000  H
  H54      1.0000 0.57760  0.61300  0.93560  Biso   1.000  H
  C73      1.0000 0.68340  0.55270  0.97330  Biso   1.000  C
  H55      1.0000 0.67060  0.60970  0.96800  Biso   1.000  H
  C74      1.0000 0.64550  0.48380  0.97310  Biso   1.000  C
  C75      1.0000 0.66590  0.40080  0.96630  Biso   1.000  C
  H56      1.0000 0.63990  0.35510  0.95570  Biso   1.000  H
  C76      1.0000 0.58410  0.49370  0.98880  Biso   1.000  C
  O10      1.0000 0.55890  0.42790  0.60700  Biso   1.000  O
  C77      1.0000 0.64570  0.48700  0.80300  Biso   1.000  C
  N25      1.0000 0.55750  0.57200  0.68000  Biso   1.000  N
  H57      1.0000 0.52090  0.57860  0.62200  Biso   1.000  H
  H58      1.0000 0.57830  0.61460  0.73710  Biso   1.000  H
  C78      1.0000 0.58300  0.49200  0.68100  Biso   1.000  C
  C79      1.0000 0.66640  0.39900  0.84400  Biso   1.000  C
  H59      1.0000 0.64300  0.35360  0.78310  Biso   1.000  H
  C80      1.0000 0.68210  0.55100  0.88300  Biso   1.000  C
  H60      1.0000 0.66840  0.60810  0.87330  Biso   1.000  H
  N26      1.0000 0.22120  0.88230  0.97400  Biso   1.000  N
  C81      1.0000 0.43810  0.78380  0.68380  Biso   1.000  C
  N27      1.0000 0.31520  0.78200  0.25850  Biso   1.000  N
  N28      1.0000 0.31040  0.78030  0.84100  Biso   1.000  N
  C82      1.0000 0.37380  0.78250  0.61610  Biso   1.000  C
  C83      1.0000 0.46850  0.78390  0.88040  Biso   1.000  C
  H61      1.0000 0.44770  0.78380  0.96860  Biso   1.000  H
  C84      1.0000 0.34000  0.78170  0.73770  Biso   1.000  C
  C85      1.0000 0.34230  0.78240  0.41860  Biso   1.000  C
  C86      1.0000 0.47090  0.78420  0.55550  Biso   1.000  C
  H62      1.0000 0.45180  0.78470  0.42480  Biso   1.000  H
  C87      1.0000 0.24060  0.03390  0.98150  Biso   1.000  C
  H63      1.0000 0.26700  0.07840  0.98560  Biso   1.000  H
  C88      1.0000 0.25800  0.94830  0.98360  Biso   1.000  C
  H64      1.0000 0.29670  0.93640  0.99200  Biso   1.000  H
  O11      1.0000 0.06050  0.92920  0.03990  Biso   1.000  O
  N29      1.0000 0.06050  0.06990  0.97070  Biso   1.000  N
  H65      1.0000 0.02780  0.07750  0.99390  Biso   1.000  H
  H66      1.0000 0.07760  0.11300  0.93560  Biso   1.000  H
  C89      1.0000 0.18340  0.05270  0.97330  Biso   1.000  C
  H67      1.0000 0.17060  0.10970  0.96800  Biso   1.000  H
  C90      1.0000 0.14550  0.98380  0.97310  Biso   1.000  C
  C91      1.0000 0.16590  0.90080  0.96630  Biso   1.000  C
  H68      1.0000 0.13990  0.85510  0.95570  Biso   1.000  H
  C92      1.0000 0.08410  0.99370  0.98880  Biso   1.000  C
  O12      1.0000 0.05890  0.92790  0.60700  Biso   1.000  O
  C93      1.0000 0.14570  0.98700  0.80300  Biso   1.000  C
  N30      1.0000 0.05750  0.07200  0.68000  Biso   1.000  N
  H69      1.0000 0.02090  0.07860  0.62200  Biso   1.000  H
  H70      1.0000 0.07830  0.11460  0.73710  Biso   1.000  H
  C94      1.0000 0.08300  0.99200  0.68100  Biso   1.000  C
  C95      1.0000 0.16640  0.89900  0.84400  Biso   1.000  C
  H71      1.0000 0.14300  0.85360  0.78310  Biso   1.000  H
  C96      1.0000 0.18210  0.05100  0.88300  Biso   1.000  C
  H72      1.0000 0.16840  0.10810  0.87330  Biso   1.000  H
  N31      1.0000 0.27880  0.38230  0.52600  Biso   1.000  N
  C97      1.0000 0.06190  0.28380  0.81620  Biso   1.000  C
  N32      1.0000 0.18480  0.28200  0.24150  Biso   1.000  N
  N33      1.0000 0.18960  0.28030  0.65900  Biso   1.000  N
  C98      1.0000 0.12620  0.28250  0.88390  Biso   1.000  C
  C99      1.0000 0.03150  0.28390  0.61960  Biso   1.000  C
  H73      1.0000 0.05230  0.28380  0.53140  Biso   1.000  H
  C100     1.0000 0.16000  0.28170  0.76230  Biso   1.000  C
  C101     1.0000 0.15770  0.28240  0.08140  Biso   1.000  C
  C102     1.0000 0.02910  0.28420  0.94450  Biso   1.000  C
  H74      1.0000 0.04820  0.28470  0.07520  Biso   1.000  H
  C103     1.0000 0.25940  0.53390  0.51850  Biso   1.000  C
  H75      1.0000 0.23300  0.57840  0.51440  Biso   1.000  H
  C104     1.0000 0.24200  0.44830  0.51640  Biso   1.000  C
  H76      1.0000 0.20330  0.43640  0.50800  Biso   1.000  H
  O13      1.0000 0.43950  0.42920  0.46010  Biso   1.000  O
  N34      1.0000 0.43950  0.56990  0.52930  Biso   1.000  N
  H77      1.0000 0.47220  0.57750  0.50610  Biso   1.000  H
  H78      1.0000 0.42240  0.61300  0.56440  Biso   1.000  H
  C105     1.0000 0.31660  0.55270  0.52670  Biso   1.000  C
  H79      1.0000 0.32940  0.60970  0.53200  Biso   1.000  H
  C106     1.0000 0.35450  0.48380  0.52690  Biso   1.000  C
  C107     1.0000 0.33410  0.40080  0.53370  Biso   1.000  C
  H80      1.0000 0.36010  0.35510  0.54430  Biso   1.000  H
  C108     1.0000 0.41590  0.49370  0.51120  Biso   1.000  C
  O14      1.0000 0.44110  0.42790  0.89300  Biso   1.000  O
  C109     1.0000 0.35430  0.48700  0.69700  Biso   1.000  C
  N35      1.0000 0.44250  0.57200  0.82000  Biso   1.000  N
  H81      1.0000 0.47910  0.57860  0.87800  Biso   1.000  H
  H82      1.0000 0.42170  0.61460  0.76290  Biso   1.000  H
  C110     1.0000 0.41700  0.49200  0.81900  Biso   1.000  C
  C111     1.0000 0.33360  0.39900  0.65600  Biso   1.000  C
  H83      1.0000 0.35700  0.35360  0.71690  Biso   1.000  H
  C112     1.0000 0.31790  0.55100  0.61700  Biso   1.000  C
  H84      1.0000 0.33160  0.60810  0.62670  Biso   1.000  H
  N36      1.0000 0.77880  0.88230  0.52600  Biso   1.000  N
  C113     1.0000 0.56190  0.78380  0.81620  Biso   1.000  C
  N37      1.0000 0.68480  0.78200  0.24150  Biso   1.000  N
  N38      1.0000 0.68960  0.78030  0.65900  Biso   1.000  N
  C114     1.0000 0.62620  0.78250  0.88390  Biso   1.000  C
  C115     1.0000 0.53150  0.78390  0.61960  Biso   1.000  C
  H85      1.0000 0.55230  0.78380  0.53140  Biso   1.000  H
  C116     1.0000 0.66000  0.78170  0.76230  Biso   1.000  C
  C117     1.0000 0.65770  0.78240  0.08140  Biso   1.000  C
  C118     1.0000 0.52910  0.78420  0.94450  Biso   1.000  C
  H86      1.0000 0.54820  0.78470  0.07520  Biso   1.000  H
  C119     1.0000 0.75940  0.03390  0.51850  Biso   1.000  C
  H87      1.0000 0.73300  0.07840  0.51440  Biso   1.000  H
  C120     1.0000 0.74200  0.94830  0.51640  Biso   1.000  C
  H88      1.0000 0.70330  0.93640  0.50800  Biso   1.000  H
  O15      1.0000 0.93950  0.92920  0.46010  Biso   1.000  O
  N39      1.0000 0.93950  0.06990  0.52930  Biso   1.000  N
  H89      1.0000 0.97220  0.07750  0.50610  Biso   1.000  H
  H90      1.0000 0.92240  0.11300  0.56440  Biso   1.000  H
  C121     1.0000 0.81660  0.05270  0.52670  Biso   1.000  C
  H91      1.0000 0.82940  0.10970  0.53200  Biso   1.000  H
  C122     1.0000 0.85450  0.98380  0.52690  Biso   1.000  C
  C123     1.0000 0.83410  0.90080  0.53370  Biso   1.000  C
  H92      1.0000 0.86010  0.85510  0.54430  Biso   1.000  H
  C124     1.0000 0.91590  0.99370  0.51120  Biso   1.000  C
  O16      1.0000 0.94110  0.92790  0.89300  Biso   1.000  O
  C125     1.0000 0.85430  0.98700  0.69700  Biso   1.000  C
  N40      1.0000 0.94250  0.07200  0.82000  Biso   1.000  N
  H93      1.0000 0.97910  0.07860  0.87800  Biso   1.000  H
  H94      1.0000 0.92170  0.11460  0.76290  Biso   1.000  H
  C126     1.0000 0.91700  0.99200  0.81900  Biso   1.000  C
  C127     1.0000 0.83360  0.89900  0.65600  Biso   1.000  C
  H95      1.0000 0.85700  0.85360  0.71690  Biso   1.000  H
  C128     1.0000 0.81790  0.05100  0.61700  Biso   1.000  C
  H96      1.0000 0.83160  0.10810  0.62670  Biso   1.000  H
  Zn1      1.0000 0.25000  0.75000  0.00000  Biso   1.000  Zn
  Zn2      1.0000 0.75000  0.75000  0.50000  Biso   1.000  Zn
  Zn3      1.0000 0.75000  0.25000  0.00000  Biso   1.000  Zn
  Zn4      1.0000 0.25000  0.25000  0.50000  Biso   1.000  Zn
