data_image0
_cell_length_a       10.8014
_cell_length_b       10.8014
_cell_length_c       13.6319
_cell_angle_alpha    90
_cell_angle_beta     90
_cell_angle_gamma    120

_symmetry_space_group_name_H-M    "P 1"
_symmetry_int_tables_number       1

loop_
  _symmetry_equiv_pos_as_xyz
  'x, y, z'

loop_
  _atom_site_label
  _atom_site_occupancy
  _atom_site_fract_x
  _atom_site_fract_y
  _atom_site_fract_z
  _atom_site_thermal_displace_type
  _atom_site_B_iso_or_equiv
  _atom_site_type_symbol
  C1       1.0000 0.47040  0.46370  0.28890  Biso   1.000  C
  N1       1.0000 0.50230  0.37220  0.33870  Biso   1.000  N
  N2       1.0000 0.37640  0.49090  0.33970  Biso   1.000  N
  N3       1.0000 0.41390  0.33030  0.40650  Biso   1.000  N
  N4       1.0000 0.34340  0.39630  0.40620  Biso   1.000  N
  C2       1.0000 0.31290  0.43500  0.45000  Biso   1.000  C
  H1       1.0000 0.25870  0.46580  0.48390  Biso   1.000  H
  C3       1.0000 0.34740  0.33670  0.48830  Biso   1.000  C
  H2       1.0000 0.30160  0.28840  0.54540  Biso   1.000  H
  C4       1.0000 0.44500  0.30700  0.44650  Biso   1.000  C
  H3       1.0000 0.47750  0.25260  0.47880  Biso   1.000  H
  C5       1.0000 0.53630  0.00670  0.28890  Biso   1.000  C
  N5       1.0000 0.62780  0.13010  0.33870  Biso   1.000  N
  N6       1.0000 0.50910  0.88550  0.33970  Biso   1.000  N
  N7       1.0000 0.66970  0.08360  0.40650  Biso   1.000  N
  N8       1.0000 0.60370  0.94710  0.40620  Biso   1.000  N
  C6       1.0000 0.56500  0.87790  0.45000  Biso   1.000  C
  H4       1.0000 0.53420  0.79290  0.48390  Biso   1.000  H
  C7       1.0000 0.66330  0.01070  0.48830  Biso   1.000  C
  H5       1.0000 0.71160  0.01320  0.54540  Biso   1.000  H
  C8       1.0000 0.69300  0.13800  0.44650  Biso   1.000  C
  H6       1.0000 0.74740  0.22490  0.47880  Biso   1.000  H
  C9       1.0000 0.99330  0.52960  0.28890  Biso   1.000  C
  N9       1.0000 0.86990  0.49770  0.33870  Biso   1.000  N
  N10      1.0000 0.11450  0.62360  0.33970  Biso   1.000  N
  N11      1.0000 0.91640  0.58610  0.40650  Biso   1.000  N
  N12      1.0000 0.05290  0.65660  0.40620  Biso   1.000  N
  C10      1.0000 0.12210  0.68710  0.45000  Biso   1.000  C
  H7       1.0000 0.20710  0.74130  0.48390  Biso   1.000  H
  C11      1.0000 0.98930  0.65260  0.48830  Biso   1.000  C
  H8       1.0000 0.98680  0.69840  0.54540  Biso   1.000  H
  C12      1.0000 0.86200  0.55500  0.44650  Biso   1.000  C
  H9       1.0000 0.77510  0.52250  0.47880  Biso   1.000  H
  C13      1.0000 0.53630  0.52960  0.21110  Biso   1.000  C
  N13      1.0000 0.62780  0.49770  0.16130  Biso   1.000  N
  N14      1.0000 0.50910  0.62360  0.16030  Biso   1.000  N
  N15      1.0000 0.66970  0.58610  0.09350  Biso   1.000  N
  N16      1.0000 0.60370  0.65660  0.09380  Biso   1.000  N
  C14      1.0000 0.56500  0.68710  0.05000  Biso   1.000  C
  H10      1.0000 0.53420  0.74130  0.01610  Biso   1.000  H
  C15      1.0000 0.66330  0.65260  0.01170  Biso   1.000  C
  H11      1.0000 0.71160  0.69840  0.95460  Biso   1.000  H
  C16      1.0000 0.69300  0.55500  0.05350  Biso   1.000  C
  H12      1.0000 0.74740  0.52250  0.02120  Biso   1.000  H
  C17      1.0000 0.99330  0.46370  0.21110  Biso   1.000  C
  N17      1.0000 0.86990  0.37220  0.16130  Biso   1.000  N
  N18      1.0000 0.11450  0.49090  0.16030  Biso   1.000  N
  N19      1.0000 0.91640  0.33030  0.09350  Biso   1.000  N
  N20      1.0000 0.05290  0.39630  0.09380  Biso   1.000  N
  C18      1.0000 0.12210  0.43500  0.05000  Biso   1.000  C
  H13      1.0000 0.20710  0.46580  0.01610  Biso   1.000  H
  C19      1.0000 0.98930  0.33670  0.01170  Biso   1.000  C
  H14      1.0000 0.98680  0.28840  0.95460  Biso   1.000  H
  C20      1.0000 0.86200  0.30700  0.05350  Biso   1.000  C
  H15      1.0000 0.77510  0.25260  0.02120  Biso   1.000  H
  C21      1.0000 0.47040  0.00670  0.21110  Biso   1.000  C
  N21      1.0000 0.50230  0.13010  0.16130  Biso   1.000  N
  N22      1.0000 0.37640  0.88550  0.16030  Biso   1.000  N
  N23      1.0000 0.41390  0.08360  0.09350  Biso   1.000  N
  N24      1.0000 0.34340  0.94710  0.09380  Biso   1.000  N
  C22      1.0000 0.31290  0.87790  0.05000  Biso   1.000  C
  H16      1.0000 0.25870  0.79290  0.01610  Biso   1.000  H
  C23      1.0000 0.34740  0.01070  0.01170  Biso   1.000  C
  H17      1.0000 0.30160  0.01320  0.95460  Biso   1.000  H
  C24      1.0000 0.44500  0.13800  0.05350  Biso   1.000  C
  H18      1.0000 0.47750  0.22490  0.02120  Biso   1.000  H
  C25      1.0000 0.52960  0.53630  0.71110  Biso   1.000  C
  N25      1.0000 0.49770  0.62780  0.66130  Biso   1.000  N
  N26      1.0000 0.62360  0.50910  0.66030  Biso   1.000  N
  N27      1.0000 0.58610  0.66970  0.59350  Biso   1.000  N
  N28      1.0000 0.65660  0.60370  0.59380  Biso   1.000  N
  C26      1.0000 0.68710  0.56500  0.55000  Biso   1.000  C
  H19      1.0000 0.74130  0.53420  0.51610  Biso   1.000  H
  C27      1.0000 0.65260  0.66330  0.51170  Biso   1.000  C
  H20      1.0000 0.69840  0.71160  0.45460  Biso   1.000  H
  C28      1.0000 0.55500  0.69300  0.55350  Biso   1.000  C
  H21      1.0000 0.52250  0.74740  0.52120  Biso   1.000  H
  C29      1.0000 0.46370  0.99330  0.71110  Biso   1.000  C
  N29      1.0000 0.37220  0.86990  0.66130  Biso   1.000  N
  N30      1.0000 0.49090  0.11450  0.66030  Biso   1.000  N
  N31      1.0000 0.33030  0.91640  0.59350  Biso   1.000  N
  N32      1.0000 0.39630  0.05290  0.59380  Biso   1.000  N
  C30      1.0000 0.43500  0.12210  0.55000  Biso   1.000  C
  H22      1.0000 0.46580  0.20710  0.51610  Biso   1.000  H
  C31      1.0000 0.33670  0.98930  0.51170  Biso   1.000  C
  H23      1.0000 0.28840  0.98680  0.45460  Biso   1.000  H
  C32      1.0000 0.30700  0.86200  0.55350  Biso   1.000  C
  H24      1.0000 0.25260  0.77510  0.52120  Biso   1.000  H
  C33      1.0000 0.00670  0.47040  0.71110  Biso   1.000  C
  N33      1.0000 0.13010  0.50230  0.66130  Biso   1.000  N
  N34      1.0000 0.88550  0.37640  0.66030  Biso   1.000  N
  N35      1.0000 0.08360  0.41390  0.59350  Biso   1.000  N
  N36      1.0000 0.94710  0.34340  0.59380  Biso   1.000  N
  C34      1.0000 0.87790  0.31290  0.55000  Biso   1.000  C
  H25      1.0000 0.79290  0.25870  0.51610  Biso   1.000  H
  C35      1.0000 0.01070  0.34740  0.51170  Biso   1.000  C
  H26      1.0000 0.01320  0.30160  0.45460  Biso   1.000  H
  C36      1.0000 0.13800  0.44500  0.55350  Biso   1.000  C
  H27      1.0000 0.22490  0.47750  0.52120  Biso   1.000  H
  C37      1.0000 0.46370  0.47040  0.78890  Biso   1.000  C
  N37      1.0000 0.37220  0.50230  0.83870  Biso   1.000  N
  N38      1.0000 0.49090  0.37640  0.83970  Biso   1.000  N
  N39      1.0000 0.33030  0.41390  0.90650  Biso   1.000  N
  N40      1.0000 0.39630  0.34340  0.90620  Biso   1.000  N
  C38      1.0000 0.43500  0.31290  0.95000  Biso   1.000  C
  H28      1.0000 0.46580  0.25870  0.98390  Biso   1.000  H
  C39      1.0000 0.33670  0.34740  0.98830  Biso   1.000  C
  H29      1.0000 0.28840  0.30160  0.04540  Biso   1.000  H
  C40      1.0000 0.30700  0.44500  0.94650  Biso   1.000  C
  H30      1.0000 0.25260  0.47750  0.97880  Biso   1.000  H
  C41      1.0000 0.00670  0.53630  0.78890  Biso   1.000  C
  N41      1.0000 0.13010  0.62780  0.83870  Biso   1.000  N
  N42      1.0000 0.88550  0.50910  0.83970  Biso   1.000  N
  N43      1.0000 0.08360  0.66970  0.90650  Biso   1.000  N
  N44      1.0000 0.94710  0.60370  0.90620  Biso   1.000  N
  C42      1.0000 0.87790  0.56500  0.95000  Biso   1.000  C
  H31      1.0000 0.79290  0.53420  0.98390  Biso   1.000  H
  C43      1.0000 0.01070  0.66330  0.98830  Biso   1.000  C
  H32      1.0000 0.01320  0.71160  0.04540  Biso   1.000  H
  C44      1.0000 0.13800  0.69300  0.94650  Biso   1.000  C
  H33      1.0000 0.22490  0.74740  0.97880  Biso   1.000  H
  C45      1.0000 0.52960  0.99330  0.78890  Biso   1.000  C
  N45      1.0000 0.49770  0.86990  0.83870  Biso   1.000  N
  N46      1.0000 0.62360  0.11450  0.83970  Biso   1.000  N
  N47      1.0000 0.58610  0.91640  0.90650  Biso   1.000  N
  N48      1.0000 0.65660  0.05290  0.90620  Biso   1.000  N
  C46      1.0000 0.68710  0.12210  0.95000  Biso   1.000  C
  H34      1.0000 0.74130  0.20710  0.98390  Biso   1.000  H
  C47      1.0000 0.65260  0.98930  0.98830  Biso   1.000  C
  H35      1.0000 0.69840  0.98680  0.04540  Biso   1.000  H
  C48      1.0000 0.55500  0.86200  0.94650  Biso   1.000  C
  H36      1.0000 0.52250  0.77510  0.97880  Biso   1.000  H
  Na1      1.0000 0.33333  0.66667  0.25000  Biso   1.000  Na
  Na2      1.0000 0.66667  0.33333  0.75000  Biso   1.000  Na
  Na3      1.0000 0.66667  0.33333  0.25000  Biso   1.000  Na
  Na4      1.0000 0.33333  0.66667  0.75000  Biso   1.000  Na
