data_image0
_cell_length_a       11.092
_cell_length_b       12.199
_cell_length_c       28.767
_cell_angle_alpha    97.64
_cell_angle_beta     92.01
_cell_angle_gamma    115.936

_symmetry_space_group_name_H-M    "P 1"
_symmetry_int_tables_number       1

loop_
  _symmetry_equiv_pos_as_xyz
  'x, y, z'

loop_
  _atom_site_label
  _atom_site_occupancy
  _atom_site_fract_x
  _atom_site_fract_y
  _atom_site_fract_z
  _atom_site_thermal_displace_type
  _atom_site_B_iso_or_equiv
  _atom_site_type_symbol
  C1       1.0000 0.27030  0.94680  0.85240  Biso   1.000  C
  H1       1.0000 0.21560  0.98330  0.84510  Biso   1.000  H
  C2       1.0000 0.40740  0.01750  0.85790  Biso   1.000  C
  H2       1.0000 0.44390  0.09990  0.85400  Biso   1.000  H
  C3       1.0000 0.49080  0.96610  0.86914  Biso   1.000  C
  C4       1.0000 0.43230  0.84590  0.87620  Biso   1.000  C
  H3       1.0000 0.48540  0.80950  0.88560  Biso   1.000  H
  C5       1.0000 0.29330  0.77880  0.86930  Biso   1.000  C
  H4       1.0000 0.25490  0.69640  0.87330  Biso   1.000  H
  C6       1.0000 0.63930  0.03990  0.87087  Biso   1.000  C
  C7       1.0000 0.69220  0.11500  0.83808  Biso   1.000  C
  H5       1.0000 0.63430  0.12040  0.81530  Biso   1.000  H
  C8       1.0000 0.82890  0.18250  0.83806  Biso   1.000  C
  H6       1.0000 0.86260  0.23340  0.81560  Biso   1.000  H
  C9       1.0000 0.73050  0.03520  0.90440  Biso   1.000  C
  H7       1.0000 0.69920  0.98460  0.92710  Biso   1.000  H
  C10      1.0000 0.86660  0.10530  0.90370  Biso   1.000  C
  H8       1.0000 0.92710  0.10430  0.92660  Biso   1.000  H
  C11      1.0000 0.05760  0.24730  0.86818  Biso   1.000  C
  C12      1.0000 0.13210  0.35630  0.89840  Biso   1.000  C
  H9       1.0000 0.09380  0.38060  0.92350  Biso   1.000  H
  C13      1.0000 0.26510  0.43020  0.89140  Biso   1.000  C
  H10      1.0000 0.31150  0.50890  0.90900  Biso   1.000  H
  C14      1.0000 0.32520  0.38980  0.86030  Biso   1.000  C
  C15      1.0000 0.25830  0.27000  0.83390  Biso   1.000  C
  H11      1.0000 0.30580  0.23680  0.81570  Biso   1.000  H
  C16      1.0000 0.12190  0.20240  0.83530  Biso   1.000  C
  H12      1.0000 0.07340  0.12820  0.81490  Biso   1.000  H
  C17      1.0000 0.47220  0.47040  0.85300  Biso   1.000  C
  C18      1.0000 0.02220  0.86700  0.58020  Biso   1.000  C
  H13      1.0000 0.07570  0.82610  0.57570  Biso   1.000  H
  C19      1.0000 0.88540  0.79940  0.58320  Biso   1.000  C
  H14      1.0000 0.84880  0.71430  0.58220  Biso   1.000  H
  C20      1.0000 0.80270  0.85840  0.58768  Biso   1.000  C
  C21      1.0000 0.86090  0.98040  0.58160  Biso   1.000  C
  H15      1.0000 0.80750  0.02100  0.57890  Biso   1.000  H
  C22      1.0000 0.99970  0.04330  0.57950  Biso   1.000  C
  H16      1.0000 0.03670  0.12510  0.57480  Biso   1.000  H
  C23      1.0000 0.65590  0.78770  0.59146  Biso   1.000  C
  C24      1.0000 0.61020  0.69190  0.61773  Biso   1.000  C
  H17      1.0000 0.67120  0.67050  0.63220  Biso   1.000  H
  C25      1.0000 0.47510  0.62910  0.62230  Biso   1.000  C
  H18      1.0000 0.44530  0.56550  0.64000  Biso   1.000  H
  C26      1.0000 0.42720  0.74910  0.57544  Biso   1.000  C
  H19      1.0000 0.36410  0.76750  0.56060  Biso   1.000  H
  C27      1.0000 0.56200  0.81550  0.57025  Biso   1.000  C
  H20      1.0000 0.58930  0.87900  0.55240  Biso   1.000  H
  C28      1.0000 0.24310  0.59490  0.60909  Biso   1.000  C
  C29      1.0000 0.18240  0.46870  0.60638  Biso   1.000  C
  H21      1.0000 0.22980  0.42290  0.59930  Biso   1.000  H
  C30      1.0000 0.04720  0.41140  0.61465  Biso   1.000  C
  H22      1.0000 0.00290  0.32600  0.61250  Biso   1.000  H
  C31      1.0000 0.97900  0.48050  0.62598  Biso   1.000  C
  C32      1.0000 0.04300  0.60650  0.62889  Biso   1.000  C
  H23      1.0000 0.99670  0.65300  0.63660  Biso   1.000  H
  C33      1.0000 0.17730  0.66440  0.62036  Biso   1.000  C
  H24      1.0000 0.22160  0.74980  0.62240  Biso   1.000  H
  C34      1.0000 0.83140  0.41720  0.63500  Biso   1.000  C
  C35      1.0000 0.71270  0.86670  0.77728  Biso   1.000  C
  C36      1.0000 0.63950  0.90470  0.74258  Biso   1.000  C
  C37      1.0000 0.49950  0.85100  0.73782  Biso   1.000  C
  H25      1.0000 0.45130  0.79020  0.75540  Biso   1.000  H
  C38      1.0000 0.43150  0.88790  0.70691  Biso   1.000  C
  H26      1.0000 0.33780  0.85160  0.70380  Biso   1.000  H
  C39      1.0000 0.50300  0.97950  0.68027  Biso   1.000  C
  C40      1.0000 0.64350  0.03340  0.68479  Biso   1.000  C
  H27      1.0000 0.69170  0.09490  0.66750  Biso   1.000  H
  C41      1.0000 0.71180  0.99430  0.71564  Biso   1.000  C
  H28      1.0000 0.80530  0.02820  0.71810  Biso   1.000  H
  C42      1.0000 0.42660  0.02050  0.64818  Biso   1.000  C
  C43      1.0000 0.33100  0.30200  0.67358  Biso   1.000  C
  C44      1.0000 0.24920  0.35190  0.70183  Biso   1.000  C
  C45      1.0000 0.11230  0.27650  0.70376  Biso   1.000  C
  H29      1.0000 0.07370  0.19510  0.68840  Biso   1.000  H
  C46      1.0000 0.03280  0.32100  0.72820  Biso   1.000  C
  H30      1.0000 0.94170  0.26990  0.72890  Biso   1.000  H
  C47      1.0000 0.09050  0.44260  0.75163  Biso   1.000  C
  C48      1.0000 0.22650  0.51800  0.75020  Biso   1.000  C
  H31      1.0000 0.26490  0.59960  0.76540  Biso   1.000  H
  C49      1.0000 0.30500  0.47300  0.72630  Biso   1.000  C
  H32      1.0000 0.39660  0.52380  0.72640  Biso   1.000  H
  C50      1.0000 0.00510  0.49190  0.77873  Biso   1.000  C
  C51      1.0000 0.44140  0.31020  0.55788  Biso   1.000  C
  C52      1.0000 0.46960  0.40790  0.52741  Biso   1.000  C
  C53      1.0000 0.60370  0.48050  0.52013  Biso   1.000  C
  H33      1.0000 0.67250  0.46670  0.53330  Biso   1.000  H
  C54      1.0000 0.63330  0.57350  0.49304  Biso   1.000  C
  H34      1.0000 0.72230  0.62330  0.48860  Biso   1.000  H
  C55      1.0000 0.91260  0.52740  0.90751  Biso   1.000  C
  C56      1.0000 0.95780  0.51420  0.95581  Biso   1.000  C
  C57      1.0000 0.07090  0.60880  0.98242  Biso   1.000  C
  H35      1.0000 0.11830  0.68190  0.97080  Biso   1.000  H
  C58      1.0000 0.11440  0.59550  0.02636  Biso   1.000  C
  H36      1.0000 0.19100  0.65900  0.04380  Biso   1.000  H
  C59      1.0000 0.88910  0.84190  0.90988  Biso   1.000  C
  C60      1.0000 0.94650  0.92050  0.95744  Biso   1.000  C
  C61      1.0000 0.08460  0.99630  0.96609  Biso   1.000  C
  H37      1.0000 0.14080  0.99310  0.94320  Biso   1.000  H
  C62      1.0000 0.13950  0.07680  0.00852  Biso   1.000  C
  H38      1.0000 0.23170  0.12790  0.01420  Biso   1.000  H
  C63      1.0000 0.57120  0.26050  0.74579  Biso   1.000  C
  H39      1.0000 0.49620  0.18800  0.73250  Biso   1.000  H
  N1       1.0000 0.91270  0.17520  0.86995  Biso   1.000  N
  N2       1.0000 0.21180  0.82720  0.85720  Biso   1.000  N
  N3       1.0000 0.07910  0.99120  0.58377  Biso   1.000  N
  N4       1.0000 0.38580  0.65850  0.60148  Biso   1.000  N
  O1       1.0000 0.50240  0.57680  0.85013  Biso   1.000  O
  O2       1.0000 0.55420  0.42580  0.85610  Biso   1.000  O
  O3       1.0000 0.77300  0.48370  0.64578  Biso   1.000  O
  O4       1.0000 0.77360  0.30190  0.63055  Biso   1.000  O
  O5       1.0000 0.63810  0.78110  0.79881  Biso   1.000  O
  O6       1.0000 0.83780  0.92330  0.78410  Biso   1.000  O
  O7       1.0000 0.30310  0.95640  0.63769  Biso   1.000  O
  O8       1.0000 0.48830  0.11880  0.63173  Biso   1.000  O
  O9       1.0000 0.27520  0.18890  0.65713  Biso   1.000  O
  O10      1.0000 0.44930  0.37740  0.66720  Biso   1.000  O
  O11      1.0000 0.89360  0.41480  0.78894  Biso   1.000  O
  O12      1.0000 0.05410  0.60710  0.78973  Biso   1.000  O
  O13      1.0000 0.32020  0.23840  0.56086  Biso   1.000  O
  O14      1.0000 0.54200  0.30630  0.57820  Biso   1.000  O
  O15      1.0000 0.80900  0.43780  0.88542  Biso   1.000  O
  O16      1.0000 0.98310  0.62520  0.89280  Biso   1.000  O
  O17      1.0000 0.76280  0.77210  0.90397  Biso   1.000  O
  O18      1.0000 0.96690  0.85150  0.87844  Biso   1.000  O
  O19      1.0000 0.79030  0.60980  0.81060  Biso   1.000  O
  H40      1.0000 0.77980  0.59780  0.77670  Biso   1.000  H
  O20      1.0000 0.63280  0.32820  0.71913  Biso   1.000  O
  O21      1.0000 0.59820  0.27810  0.78978  Biso   1.000  O
  O22      1.0000 0.32320  0.99830  0.53583  Biso   1.000  O
  H41      1.0000 0.42080  0.00560  0.52480  Biso   1.000  H
  Zn1      1.0000 0.68440  0.68858  0.83989  Biso   1.000  Zn
  Zn2      1.0000 0.74020  0.43871  0.82139  Biso   1.000  Zn
  Zn3      1.0000 0.99922  0.71540  0.83516  Biso   1.000  Zn
  Zn4      1.0000 0.29018  0.09178  0.59387  Biso   1.000  Zn
  Zn5      1.0000 0.58611  0.30869  0.64770  Biso   1.000  Zn
  C64      1.0000 0.02250  0.94590  0.63030  Biso   1.000  C
  C65      1.0000 0.88780  0.87270  0.63120  Biso   1.000  C
  H42      1.0000 0.85250  0.83500  0.65690  Biso   1.000  H
  C66      1.0000 0.99600  0.98600  0.55800  Biso   1.000  C
  H43      1.0000 0.02570  0.03550  0.53480  Biso   1.000  H
  C67      1.0000 0.85870  0.92000  0.55590  Biso   1.000  C
  H44      1.0000 0.80520  0.92030  0.53030  Biso   1.000  H
  C68      1.0000 0.27820  0.26500  0.86550  Biso   1.000  C
  H45      1.0000 0.33790  0.23050  0.86690  Biso   1.000  H
  C69      1.0000 0.14120  0.19360  0.86860  Biso   1.000  C
  H46      1.0000 0.10810  0.11030  0.87100  Biso   1.000  H
  C70      1.0000 0.23800  0.44120  0.86350  Biso   1.000  C
  H47      1.0000 0.27020  0.52540  0.86300  Biso   1.000  H
  C71      1.0000 0.10290  0.37110  0.86760  Biso   1.000  C
  H48      1.0000 0.04410  0.40700  0.86980  Biso   1.000  H
  H49      1.0000 0.08100  0.96890  0.65770  Biso   1.000  H
  C72      1.0000 0.72970  0.05320  0.14760  Biso   1.000  C
  H50      1.0000 0.78440  0.01670  0.15490  Biso   1.000  H
  C73      1.0000 0.59260  0.98250  0.14210  Biso   1.000  C
  H51      1.0000 0.55610  0.90010  0.14600  Biso   1.000  H
  C74      1.0000 0.50920  0.03390  0.13086  Biso   1.000  C
  C75      1.0000 0.56770  0.15410  0.12380  Biso   1.000  C
  H52      1.0000 0.51460  0.19050  0.11440  Biso   1.000  H
  C76      1.0000 0.70670  0.22120  0.13070  Biso   1.000  C
  H53      1.0000 0.74510  0.30360  0.12670  Biso   1.000  H
  C77      1.0000 0.36070  0.96010  0.12913  Biso   1.000  C
  C78      1.0000 0.30780  0.88500  0.16192  Biso   1.000  C
  H54      1.0000 0.36570  0.87960  0.18470  Biso   1.000  H
  C79      1.0000 0.17110  0.81750  0.16194  Biso   1.000  C
  H55      1.0000 0.13740  0.76660  0.18440  Biso   1.000  H
  C80      1.0000 0.26950  0.96480  0.09560  Biso   1.000  C
  H56      1.0000 0.30080  0.01540  0.07290  Biso   1.000  H
  C81      1.0000 0.13340  0.89470  0.09630  Biso   1.000  C
  H57      1.0000 0.07290  0.89570  0.07340  Biso   1.000  H
  C82      1.0000 0.94240  0.75270  0.13182  Biso   1.000  C
  C83      1.0000 0.86790  0.64370  0.10160  Biso   1.000  C
  H58      1.0000 0.90620  0.61940  0.07650  Biso   1.000  H
  C84      1.0000 0.73490  0.56980  0.10860  Biso   1.000  C
  H59      1.0000 0.68850  0.49110  0.09100  Biso   1.000  H
  C85      1.0000 0.67480  0.61020  0.13970  Biso   1.000  C
  C86      1.0000 0.74170  0.73000  0.16610  Biso   1.000  C
  H60      1.0000 0.69420  0.76320  0.18430  Biso   1.000  H
  C87      1.0000 0.87810  0.79760  0.16470  Biso   1.000  C
  H61      1.0000 0.92660  0.87180  0.18510  Biso   1.000  H
  C88      1.0000 0.52780  0.52960  0.14700  Biso   1.000  C
  C89      1.0000 0.97780  0.13300  0.41980  Biso   1.000  C
  H62      1.0000 0.92430  0.17390  0.42430  Biso   1.000  H
  C90      1.0000 0.11460  0.20060  0.41680  Biso   1.000  C
  H63      1.0000 0.15120  0.28570  0.41780  Biso   1.000  H
  C91      1.0000 0.19730  0.14160  0.41232  Biso   1.000  C
  C92      1.0000 0.13910  0.01960  0.41840  Biso   1.000  C
  H64      1.0000 0.19250  0.97900  0.42110  Biso   1.000  H
  C93      1.0000 0.00030  0.95670  0.42050  Biso   1.000  C
  H65      1.0000 0.96330  0.87490  0.42520  Biso   1.000  H
  C94      1.0000 0.34410  0.21230  0.40854  Biso   1.000  C
  C95      1.0000 0.38980  0.30810  0.38227  Biso   1.000  C
  H66      1.0000 0.32880  0.32950  0.36780  Biso   1.000  H
  C96      1.0000 0.52490  0.37090  0.37770  Biso   1.000  C
  H67      1.0000 0.55470  0.43450  0.36000  Biso   1.000  H
  C97      1.0000 0.57280  0.25090  0.42456  Biso   1.000  C
  H68      1.0000 0.63590  0.23250  0.43940  Biso   1.000  H
  C98      1.0000 0.43800  0.18450  0.42975  Biso   1.000  C
  H69      1.0000 0.41070  0.12100  0.44760  Biso   1.000  H
  C99      1.0000 0.75690  0.40510  0.39091  Biso   1.000  C
  C100     1.0000 0.81760  0.53130  0.39362  Biso   1.000  C
  H70      1.0000 0.77020  0.57710  0.40070  Biso   1.000  H
  C101     1.0000 0.95280  0.58860  0.38535  Biso   1.000  C
  H71      1.0000 0.99710  0.67400  0.38750  Biso   1.000  H
  C102     1.0000 0.02100  0.51950  0.37402  Biso   1.000  C
  C103     1.0000 0.95700  0.39350  0.37111  Biso   1.000  C
  H72      1.0000 0.00330  0.34700  0.36340  Biso   1.000  H
  C104     1.0000 0.82270  0.33560  0.37964  Biso   1.000  C
  H73      1.0000 0.77840  0.25020  0.37760  Biso   1.000  H
  C105     1.0000 0.16860  0.58280  0.36500  Biso   1.000  C
  C106     1.0000 0.28730  0.13330  0.22272  Biso   1.000  C
  C107     1.0000 0.36050  0.09530  0.25742  Biso   1.000  C
  C108     1.0000 0.50050  0.14900  0.26218  Biso   1.000  C
  H74      1.0000 0.54870  0.20980  0.24460  Biso   1.000  H
  C109     1.0000 0.56850  0.11210  0.29309  Biso   1.000  C
  H75      1.0000 0.66220  0.14840  0.29620  Biso   1.000  H
  C110     1.0000 0.49700  0.02050  0.31973  Biso   1.000  C
  C111     1.0000 0.35650  0.96660  0.31521  Biso   1.000  C
  H76      1.0000 0.30830  0.90510  0.33250  Biso   1.000  H
  C112     1.0000 0.28820  0.00570  0.28436  Biso   1.000  C
  H77      1.0000 0.19470  0.97180  0.28190  Biso   1.000  H
  C113     1.0000 0.57340  0.97950  0.35182  Biso   1.000  C
  C114     1.0000 0.66900  0.69800  0.32642  Biso   1.000  C
  C115     1.0000 0.75080  0.64810  0.29817  Biso   1.000  C
  C116     1.0000 0.88770  0.72350  0.29624  Biso   1.000  C
  H78      1.0000 0.92630  0.80490  0.31160  Biso   1.000  H
  C117     1.0000 0.96720  0.67900  0.27180  Biso   1.000  C
  H79      1.0000 0.05830  0.73010  0.27110  Biso   1.000  H
  C118     1.0000 0.90950  0.55740  0.24837  Biso   1.000  C
  C119     1.0000 0.77350  0.48200  0.24980  Biso   1.000  C
  H80      1.0000 0.73510  0.40040  0.23460  Biso   1.000  H
  C120     1.0000 0.69500  0.52700  0.27370  Biso   1.000  C
  H81      1.0000 0.60340  0.47620  0.27360  Biso   1.000  H
  C121     1.0000 0.99490  0.50810  0.22127  Biso   1.000  C
  C122     1.0000 0.55860  0.68980  0.44212  Biso   1.000  C
  C123     1.0000 0.53040  0.59210  0.47259  Biso   1.000  C
  C124     1.0000 0.39630  0.51950  0.47987  Biso   1.000  C
  H82      1.0000 0.32750  0.53330  0.46670  Biso   1.000  H
  C125     1.0000 0.36670  0.42650  0.50696  Biso   1.000  C
  H83      1.0000 0.27770  0.37670  0.51140  Biso   1.000  H
  C126     1.0000 0.08740  0.47260  0.09249  Biso   1.000  C
  C127     1.0000 0.04220  0.48580  0.04419  Biso   1.000  C
  C128     1.0000 0.92910  0.39120  0.01758  Biso   1.000  C
  H84      1.0000 0.88170  0.31810  0.02920  Biso   1.000  H
  C129     1.0000 0.88560  0.40450  0.97364  Biso   1.000  C
  H85      1.0000 0.80900  0.34100  0.95620  Biso   1.000  H
  C130     1.0000 0.11090  0.15810  0.09012  Biso   1.000  C
  C131     1.0000 0.05350  0.07950  0.04256  Biso   1.000  C
  C132     1.0000 0.91540  0.00370  0.03391  Biso   1.000  C
  H86      1.0000 0.85920  0.00690  0.05680  Biso   1.000  H
  C133     1.0000 0.86050  0.92320  0.99148  Biso   1.000  C
  H87      1.0000 0.76830  0.87210  0.98580  Biso   1.000  H
  C134     1.0000 0.42880  0.73950  0.25421  Biso   1.000  C
  H88      1.0000 0.50380  0.81200  0.26750  Biso   1.000  H
  N5       1.0000 0.08730  0.82480  0.13005  Biso   1.000  N
  N6       1.0000 0.78820  0.17280  0.14280  Biso   1.000  N
  N7       1.0000 0.92090  0.00880  0.41623  Biso   1.000  N
  N8       1.0000 0.61420  0.34150  0.39852  Biso   1.000  N
  O23      1.0000 0.49760  0.42320  0.14987  Biso   1.000  O
  O24      1.0000 0.44580  0.57420  0.14390  Biso   1.000  O
  O25      1.0000 0.22700  0.51630  0.35422  Biso   1.000  O
  O26      1.0000 0.22640  0.69810  0.36945  Biso   1.000  O
  O27      1.0000 0.36190  0.21890  0.20119  Biso   1.000  O
  O28      1.0000 0.16220  0.07670  0.21590  Biso   1.000  O
  O29      1.0000 0.69690  0.04360  0.36231  Biso   1.000  O
  O30      1.0000 0.51170  0.88120  0.36827  Biso   1.000  O
  O31      1.0000 0.72480  0.81110  0.34287  Biso   1.000  O
  O32      1.0000 0.55070  0.62260  0.33280  Biso   1.000  O
  O33      1.0000 0.10640  0.58520  0.21106  Biso   1.000  O
  O34      1.0000 0.94590  0.39290  0.21027  Biso   1.000  O
  O35      1.0000 0.67980  0.76160  0.43914  Biso   1.000  O
  O36      1.0000 0.45800  0.69370  0.42180  Biso   1.000  O
  O37      1.0000 0.19100  0.56220  0.11458  Biso   1.000  O
  O38      1.0000 0.01690  0.37480  0.10720  Biso   1.000  O
  O39      1.0000 0.23720  0.22790  0.09603  Biso   1.000  O
  O40      1.0000 0.03310  0.14850  0.12156  Biso   1.000  O
  O41      1.0000 0.20970  0.39020  0.18940  Biso   1.000  O
  H89      1.0000 0.22020  0.40220  0.22330  Biso   1.000  H
  O42      1.0000 0.36720  0.67180  0.28087  Biso   1.000  O
  O43      1.0000 0.40180  0.72190  0.21022  Biso   1.000  O
  O44      1.0000 0.67680  0.00170  0.46417  Biso   1.000  O
  H90      1.0000 0.57920  0.99440  0.47520  Biso   1.000  H
  Zn6      1.0000 0.31560  0.31142  0.16011  Biso   1.000  Zn
  Zn7      1.0000 0.25980  0.56129  0.17861  Biso   1.000  Zn
  Zn8      1.0000 0.00078  0.28460  0.16484  Biso   1.000  Zn
  Zn9      1.0000 0.70982  0.90822  0.40613  Biso   1.000  Zn
  Zn10     1.0000 0.41389  0.69131  0.35230  Biso   1.000  Zn
  C135     1.0000 0.97750  0.05410  0.36970  Biso   1.000  C
  C136     1.0000 0.11220  0.12730  0.36880  Biso   1.000  C
  H91      1.0000 0.14750  0.16500  0.34310  Biso   1.000  H
  C137     1.0000 0.00400  0.01400  0.44200  Biso   1.000  C
  H92      1.0000 0.97430  0.96450  0.46520  Biso   1.000  H
  C138     1.0000 0.14130  0.08000  0.44410  Biso   1.000  C
  H93      1.0000 0.19480  0.07970  0.46970  Biso   1.000  H
  C139     1.0000 0.72180  0.73500  0.13450  Biso   1.000  C
  H94      1.0000 0.66210  0.76950  0.13310  Biso   1.000  H
  C140     1.0000 0.85880  0.80640  0.13140  Biso   1.000  C
  H95      1.0000 0.89190  0.88970  0.12900  Biso   1.000  H
  C141     1.0000 0.76200  0.55880  0.13650  Biso   1.000  C
  H96      1.0000 0.72980  0.47460  0.13700  Biso   1.000  H
  C142     1.0000 0.89710  0.62890  0.13240  Biso   1.000  C
  H97      1.0000 0.95590  0.59300  0.13020  Biso   1.000  H
  H98      1.0000 0.91900  0.03110  0.34230  Biso   1.000  H
