data_image0
_cell_length_a       11.478
_cell_length_b       12.3775
_cell_length_c       25.794
_cell_angle_alpha    80.25
_cell_angle_beta     88.094
_cell_angle_gamma    65.252

_symmetry_space_group_name_H-M    "P 1"
_symmetry_int_tables_number       1

loop_
  _symmetry_equiv_pos_as_xyz
  'x, y, z'

loop_
  _atom_site_label
  _atom_site_occupancy
  _atom_site_fract_x
  _atom_site_fract_y
  _atom_site_fract_z
  _atom_site_thermal_displace_type
  _atom_site_B_iso_or_equiv
  _atom_site_type_symbol
  C1       1.0000 0.50710  0.21440  0.36090  Biso   1.000  C
  H1       1.0000 0.46760  0.29450  0.36570  Biso   1.000  H
  C2       1.0000 0.43780  0.14740  0.36950  Biso   1.000  C
  H2       1.0000 0.35340  0.18120  0.37980  Biso   1.000  H
  C3       1.0000 0.49590  0.02540  0.36240  Biso   1.000  C
  C4       1.0000 0.62250  0.98060  0.34970  Biso   1.000  C
  H3       1.0000 0.66660  0.89970  0.34660  Biso   1.000  H
  C5       1.0000 0.68370  0.05660  0.34160  Biso   1.000  C
  H4       1.0000 0.76910  0.02560  0.33250  Biso   1.000  H
  C6       1.0000 0.42030  0.95250  0.36610  Biso   1.000  C
  C7       1.0000 0.31700  0.97230  0.39800  Biso   1.000  C
  H5       1.0000 0.29460  0.03020  0.41970  Biso   1.000  H
  C8       1.0000 0.24820  0.90540  0.39710  Biso   1.000  C
  H6       1.0000 0.17800  0.91980  0.41840  Biso   1.000  H
  C9       1.0000 0.45390  0.86110  0.33620  Biso   1.000  C
  H7       1.0000 0.52620  0.84320  0.31600  Biso   1.000  H
  C10      1.0000 0.38070  0.79720  0.33640  Biso   1.000  C
  H8       1.0000 0.40180  0.73800  0.31540  Biso   1.000  H
  C11      1.0000 0.19830  0.75450  0.36480  Biso   1.000  C
  C12      1.0000 0.07280  0.81900  0.34700  Biso   1.000  C
  H9       1.0000 0.03680  0.90280  0.33890  Biso   1.000  H
  C13      1.0000 0.00130  0.75370  0.34150  Biso   1.000  C
  H10      1.0000 0.91530  0.79440  0.33030  Biso   1.000  H
  C14      1.0000 0.05680  0.63020  0.35260  Biso   1.000  C
  C15      1.0000 0.18110  0.57040  0.37080  Biso   1.000  C
  H11      1.0000 0.21780  0.48660  0.37900  Biso   1.000  H
  C16      1.0000 0.25250  0.63160  0.37710  Biso   1.000  C
  H12      1.0000 0.33740  0.59020  0.38960  Biso   1.000  H
  C17      1.0000 0.98240  0.55890  0.34190  Biso   1.000  C
  C18      1.0000 0.01100  0.99920  0.06490  Biso   1.000  C
  H13      1.0000 0.02950  0.94610  0.04110  Biso   1.000  H
  C19      1.0000 0.07750  0.07270  0.06030  Biso   1.000  C
  H14      1.0000 0.13110  0.07270  0.03250  Biso   1.000  H
  C20      1.0000 0.06340  0.14080  0.09530  Biso   1.000  C
  C21      1.0000 0.98110  0.13660  0.13820  Biso   1.000  C
  H15      1.0000 0.97020  0.18290  0.16430  Biso   1.000  H
  C22      1.0000 0.92010  0.06360  0.13950  Biso   1.000  C
  H16      1.0000 0.87150  0.05620  0.16830  Biso   1.000  H
  C23      1.0000 0.14010  0.21280  0.09590  Biso   1.000  C
  C24      1.0000 0.25780  0.17750  0.07180  Biso   1.000  C
  H17      1.0000 0.28450  0.11330  0.05340  Biso   1.000  H
  C25      1.0000 0.33400  0.23650  0.07490  Biso   1.000  C
  H18      1.0000 0.41200  0.21280  0.05840  Biso   1.000  H
  C26      1.0000 0.17830  0.37140  0.12200  Biso   1.000  C
  H19      1.0000 0.14970  0.44000  0.13760  Biso   1.000  H
  C27      1.0000 0.10190  0.31350  0.11950  Biso   1.000  C
  H20      1.0000 0.02160  0.34240  0.13410  Biso   1.000  H
  C28      1.0000 0.39100  0.37620  0.11280  Biso   1.000  C
  C29      1.0000 0.35240  0.49860  0.11100  Biso   1.000  C
  H21      1.0000 0.26830  0.55380  0.10140  Biso   1.000  H
  C30      1.0000 0.44520  0.53590  0.12420  Biso   1.000  C
  H22      1.0000 0.42310  0.61770  0.12290  Biso   1.000  H
  C31      1.0000 0.57090  0.45190  0.13950  Biso   1.000  C
  C32      1.0000 0.60390  0.33310  0.13920  Biso   1.000  C
  H23      1.0000 0.68760  0.27760  0.14920  Biso   1.000  H
  C33      1.0000 0.51830  0.29260  0.12460  Biso   1.000  C
  H24      1.0000 0.54380  0.21160  0.12260  Biso   1.000  H
  C34      1.0000 0.66770  0.49330  0.15750  Biso   1.000  C
  C35      1.0000 0.60570  0.93890  0.15320  Biso   1.000  C
  C36      1.0000 0.48910  0.98790  0.18420  Biso   1.000  C
  C37      1.0000 0.46980  0.08160  0.21160  Biso   1.000  C
  H25      1.0000 0.53330  0.10930  0.21290  Biso   1.000  H
  C38      1.0000 0.35630  0.13360  0.23700  Biso   1.000  C
  H26      1.0000 0.34320  0.19800  0.25400  Biso   1.000  H
  C39      1.0000 0.26150  0.09060  0.23720  Biso   1.000  C
  C40      1.0000 0.28320  0.99330  0.21210  Biso   1.000  C
  H27      1.0000 0.22210  0.96210  0.21280  Biso   1.000  H
  C41      1.0000 0.39680  0.94240  0.18560  Biso   1.000  C
  H28      1.0000 0.41060  0.87750  0.16890  Biso   1.000  H
  C42      1.0000 0.14150  0.14780  0.26430  Biso   1.000  C
  C43      1.0000 0.96750  0.68350  0.18600  Biso   1.000  C
  C44      1.0000 0.10360  0.63600  0.20790  Biso   1.000  C
  C45      1.0000 0.16150  0.71520  0.20700  Biso   1.000  C
  H29      1.0000 0.11580  0.79670  0.19330  Biso   1.000  H
  C46      1.0000 0.28580  0.67370  0.22620  Biso   1.000  C
  H30      1.0000 0.32340  0.72750  0.22530  Biso   1.000  H
  C47      1.0000 0.35690  0.55110  0.24710  Biso   1.000  C
  C48      1.0000 0.29830  0.47230  0.24870  Biso   1.000  C
  H31      1.0000 0.34380  0.39100  0.26280  Biso   1.000  H
  C49      1.0000 0.17380  0.51330  0.22950  Biso   1.000  C
  H32      1.0000 0.13580  0.45970  0.23090  Biso   1.000  H
  C50      1.0000 0.49290  0.50670  0.26770  Biso   1.000  C
  C51      1.0000 0.96510  0.70280  0.05210  Biso   1.000  C
  C52      1.0000 0.98240  0.59710  0.02510  Biso   1.000  C
  C53      1.0000 0.09700  0.53900  0.00090  Biso   1.000  C
  H33      1.0000 0.16230  0.56460  0.00160  Biso   1.000  H
  C54      1.0000 0.88590  0.55710  0.02440  Biso   1.000  C
  H34      1.0000 0.80970  0.59460  0.04100  Biso   1.000  H
  C55      1.0000 0.94400  0.16660  0.40070  Biso   1.000  C
  C56      1.0000 0.97140  0.08120  0.45310  Biso   1.000  C
  C57      1.0000 0.05470  0.08290  0.49080  Biso   1.000  C
  H35      1.0000 0.09140  0.13790  0.48440  Biso   1.000  H
  C58      1.0000 0.08270  0.00190  0.53820  Biso   1.000  C
  H36      1.0000 0.13710  0.00320  0.56370  Biso   1.000  H
  C59      1.0000 0.63200  0.47200  0.40180  Biso   1.000  C
  C60      1.0000 0.56540  0.48580  0.45310  Biso   1.000  C
  C61      1.0000 0.52870  0.59200  0.47320  Biso   1.000  C
  H37      1.0000 0.54780  0.65420  0.45540  Biso   1.000  H
  C62      1.0000 0.53660  0.39410  0.48030  Biso   1.000  C
  H38      1.0000 0.56130  0.32250  0.46720  Biso   1.000  H
  N1       1.0000 0.27670  0.82070  0.36740  Biso   1.000  N
  N2       1.0000 0.62520  0.17340  0.34638  Biso   1.000  N
  N3       1.0000 0.92770  0.99810  0.09860  Biso   1.000  N
  N4       1.0000 0.29610  0.32930  0.10190  Biso   1.000  N
  O1       1.0000 0.04770  0.44790  0.34306  Biso   1.000  O
  O2       1.0000 0.86340  0.61320  0.33304  Biso   1.000  O
  O3       1.0000 0.76890  0.41560  0.18233  Biso   1.000  O
  O4       1.0000 0.63950  0.60460  0.14744  Biso   1.000  O
  O5       1.0000 0.67050  0.99910  0.14245  Biso   1.000  O
  O6       1.0000 0.63420  0.84210  0.13591  Biso   1.000  O
  O7       1.0000 0.12570  0.24320  0.28162  Biso   1.000  O
  O8       1.0000 0.06270  0.10180  0.26800  Biso   1.000  O
  O9       1.0000 0.90520  0.79470  0.17387  Biso   1.000  O
  O10      1.0000 0.92530  0.60480  0.18191  Biso   1.000  O
  O11      1.0000 0.53020  0.58430  0.27699  Biso   1.000  O
  O12      1.0000 0.55870  0.39430  0.27505  Biso   1.000  O
  O13      1.0000 0.85510  0.76700  0.06270  Biso   1.000  O
  O14      1.0000 0.06210  0.71830  0.06120  Biso   1.000  O
  O15      1.0000 0.87700  0.15580  0.36676  Biso   1.000  O
  O16      1.0000 0.99660  0.23900  0.39540  Biso   1.000  O
  O17      1.0000 0.65680  0.37560  0.38468  Biso   1.000  O
  O18      1.0000 0.65270  0.56010  0.37818  Biso   1.000  O
  O19      1.0000 0.81780  0.40270  0.29203  Biso   1.000  O
  H39      1.0000 0.84160  0.42110  0.25740  Biso   1.000  H
  O20      1.0000 0.69020  0.70420  0.24971  Biso   1.000  O
  H40      1.0000 0.71940  0.76260  0.25050  Biso   1.000  H
  O21      1.0000 0.71630  0.02050  0.03050  Biso   1.000  O
  H41      1.0000 0.64030  0.01140  0.03110  Biso   1.000  H
  Zn1      1.0000 0.98956  0.33149  0.32507  Biso   1.000  Zn
  Zn2      1.0000 0.70734  0.56975  0.30506  Biso   1.000  Zn
  Zn3      1.0000 0.72004  0.29026  0.32037  Biso   1.000  Zn
  Zn4      1.0000 0.81856  0.90064  0.10000  Biso   1.000  Zn
  Zn5      1.0000 0.73408  0.67784  0.17784  Biso   1.000  Zn
  H42      1.0000 0.88090  0.28200  0.08160  Biso   1.000  H
  C63      1.0000 0.92560  0.19840  0.08810  Biso   1.000  C
  C64      1.0000 0.86200  0.12270  0.09140  Biso   1.000  C
  H43      1.0000 0.77320  0.15720  0.08860  Biso   1.000  H
  C65      1.0000 0.12700  0.01700  0.08900  Biso   1.000  C
  H44      1.0000 0.21450  0.98050  0.08430  Biso   1.000  H
  C66      1.0000 0.04800  0.95100  0.09020  Biso   1.000  C
  H45      1.0000 0.08590  0.87170  0.08470  Biso   1.000  H
  C67      1.0000 0.49290  0.78560  0.63910  Biso   1.000  C
  H46      1.0000 0.53240  0.70550  0.63430  Biso   1.000  H
  C68      1.0000 0.56220  0.85260  0.63050  Biso   1.000  C
  H47      1.0000 0.64660  0.81880  0.62020  Biso   1.000  H
  C69      1.0000 0.50410  0.97460  0.63760  Biso   1.000  C
  C70      1.0000 0.37750  0.01940  0.65030  Biso   1.000  C
  H48      1.0000 0.33340  0.10030  0.65340  Biso   1.000  H
  C71      1.0000 0.31630  0.94340  0.65840  Biso   1.000  C
  H49      1.0000 0.23090  0.97440  0.66750  Biso   1.000  H
  C72      1.0000 0.57970  0.04750  0.63390  Biso   1.000  C
  C73      1.0000 0.68300  0.02770  0.60200  Biso   1.000  C
  H50      1.0000 0.70540  0.96980  0.58030  Biso   1.000  H
  C74      1.0000 0.75180  0.09460  0.60290  Biso   1.000  C
  H51      1.0000 0.82200  0.08020  0.58160  Biso   1.000  H
  C75      1.0000 0.54610  0.13890  0.66380  Biso   1.000  C
  H52      1.0000 0.47380  0.15680  0.68400  Biso   1.000  H
  C76      1.0000 0.61930  0.20280  0.66360  Biso   1.000  C
  H53      1.0000 0.59820  0.26200  0.68460  Biso   1.000  H
  C77      1.0000 0.80170  0.24550  0.63520  Biso   1.000  C
  C78      1.0000 0.92720  0.18100  0.65300  Biso   1.000  C
  H54      1.0000 0.96320  0.09720  0.66110  Biso   1.000  H
  C79      1.0000 0.99870  0.24630  0.65850  Biso   1.000  C
  H55      1.0000 0.08470  0.20560  0.66970  Biso   1.000  H
  C80      1.0000 0.94320  0.36980  0.64740  Biso   1.000  C
  C81      1.0000 0.81890  0.42960  0.62920  Biso   1.000  C
  H56      1.0000 0.78220  0.51340  0.62100  Biso   1.000  H
  C82      1.0000 0.74750  0.36840  0.62290  Biso   1.000  C
  H57      1.0000 0.66260  0.40980  0.61040  Biso   1.000  H
  C83      1.0000 0.01760  0.44110  0.65810  Biso   1.000  C
  C84      1.0000 0.98900  0.00080  0.93510  Biso   1.000  C
  H58      1.0000 0.97050  0.05390  0.95890  Biso   1.000  H
  C85      1.0000 0.92250  0.92730  0.93970  Biso   1.000  C
  H59      1.0000 0.86890  0.92730  0.96750  Biso   1.000  H
  C86      1.0000 0.93660  0.85920  0.90470  Biso   1.000  C
  C87      1.0000 0.01890  0.86340  0.86180  Biso   1.000  C
  H60      1.0000 0.02980  0.81710  0.83570  Biso   1.000  H
  C88      1.0000 0.07990  0.93640  0.86050  Biso   1.000  C
  H61      1.0000 0.12850  0.94380  0.83170  Biso   1.000  H
  C89      1.0000 0.85990  0.78720  0.90410  Biso   1.000  C
  C90      1.0000 0.74220  0.82250  0.92820  Biso   1.000  C
  H62      1.0000 0.71550  0.88670  0.94660  Biso   1.000  H
  C91      1.0000 0.66600  0.76350  0.92510  Biso   1.000  C
  H63      1.0000 0.58800  0.78720  0.94160  Biso   1.000  H
  C92      1.0000 0.82170  0.62860  0.87800  Biso   1.000  C
  H64      1.0000 0.85030  0.56000  0.86240  Biso   1.000  H
  C93      1.0000 0.89810  0.68650  0.88050  Biso   1.000  C
  H65      1.0000 0.97840  0.65760  0.86590  Biso   1.000  H
  C94      1.0000 0.60900  0.62380  0.88720  Biso   1.000  C
  C95      1.0000 0.64760  0.50140  0.88900  Biso   1.000  C
  H66      1.0000 0.73170  0.44620  0.89860  Biso   1.000  H
  C96      1.0000 0.55480  0.46410  0.87580  Biso   1.000  C
  H67      1.0000 0.57690  0.38230  0.87710  Biso   1.000  H
  C97      1.0000 0.42910  0.54810  0.86050  Biso   1.000  C
  C98      1.0000 0.39610  0.66690  0.86080  Biso   1.000  C
  H68      1.0000 0.31240  0.72240  0.85080  Biso   1.000  H
  C99      1.0000 0.48170  0.70740  0.87540  Biso   1.000  C
  H69      1.0000 0.45620  0.78840  0.87740  Biso   1.000  H
  C100     1.0000 0.33230  0.50670  0.84250  Biso   1.000  C
  C101     1.0000 0.39430  0.06110  0.84680  Biso   1.000  C
  C102     1.0000 0.51090  0.01210  0.81580  Biso   1.000  C
  C103     1.0000 0.53020  0.91840  0.78840  Biso   1.000  C
  H70      1.0000 0.46670  0.89070  0.78710  Biso   1.000  H
  C104     1.0000 0.64370  0.86640  0.76300  Biso   1.000  C
  H71      1.0000 0.65680  0.80200  0.74600  Biso   1.000  H
  C105     1.0000 0.73850  0.90940  0.76280  Biso   1.000  C
  C106     1.0000 0.71680  0.00670  0.78790  Biso   1.000  C
  H72      1.0000 0.77790  0.03790  0.78720  Biso   1.000  H
  C107     1.0000 0.60320  0.05760  0.81440  Biso   1.000  C
  H73      1.0000 0.58940  0.12250  0.83110  Biso   1.000  H
  C108     1.0000 0.85850  0.85220  0.73570  Biso   1.000  C
  C109     1.0000 0.03250  0.31650  0.81400  Biso   1.000  C
  C110     1.0000 0.89640  0.36400  0.79210  Biso   1.000  C
  C111     1.0000 0.83850  0.28480  0.79300  Biso   1.000  C
  H74      1.0000 0.88420  0.20330  0.80670  Biso   1.000  H
  C112     1.0000 0.71420  0.32630  0.77380  Biso   1.000  C
  H75      1.0000 0.67660  0.27250  0.77470  Biso   1.000  H
  C113     1.0000 0.64310  0.44890  0.75290  Biso   1.000  C
  C114     1.0000 0.70170  0.52770  0.75130  Biso   1.000  C
  H76      1.0000 0.65620  0.60900  0.73720  Biso   1.000  H
  C115     1.0000 0.82620  0.48670  0.77050  Biso   1.000  C
  H77      1.0000 0.86420  0.54030  0.76910  Biso   1.000  H
  C116     1.0000 0.50710  0.49330  0.73230  Biso   1.000  C
  C117     1.0000 0.03490  0.29720  0.94790  Biso   1.000  C
  C118     1.0000 0.01760  0.40290  0.97490  Biso   1.000  C
  C119     1.0000 0.90300  0.46100  0.99910  Biso   1.000  C
  H78      1.0000 0.83770  0.43540  0.99840  Biso   1.000  H
  C120     1.0000 0.11410  0.44290  0.97560  Biso   1.000  C
  H79      1.0000 0.19030  0.40540  0.95900  Biso   1.000  H
  C121     1.0000 0.05600  0.83340  0.59930  Biso   1.000  C
  C122     1.0000 0.02860  0.91880  0.54690  Biso   1.000  C
  C123     1.0000 0.94530  0.91710  0.50920  Biso   1.000  C
  H80      1.0000 0.90860  0.86210  0.51560  Biso   1.000  H
  C124     1.0000 0.91730  0.99810  0.46180  Biso   1.000  C
  H81      1.0000 0.86290  0.99680  0.43630  Biso   1.000  H
  C125     1.0000 0.36800  0.52800  0.59820  Biso   1.000  C
  C126     1.0000 0.43460  0.51420  0.54690  Biso   1.000  C
  C127     1.0000 0.47130  0.40800  0.52680  Biso   1.000  C
  H82      1.0000 0.45220  0.34580  0.54460  Biso   1.000  H
  C128     1.0000 0.46340  0.60590  0.51970  Biso   1.000  C
  H83      1.0000 0.43870  0.67750  0.53280  Biso   1.000  H
  N5       1.0000 0.72330  0.17930  0.63260  Biso   1.000  N
  N6       1.0000 0.37480  0.82660  0.65362  Biso   1.000  N
  N7       1.0000 0.07230  0.00190  0.90140  Biso   1.000  N
  N8       1.0000 0.70390  0.67070  0.89810  Biso   1.000  N
  O22      1.0000 0.95230  0.55210  0.65694  Biso   1.000  O
  O23      1.0000 0.13660  0.38680  0.66696  Biso   1.000  O
  O24      1.0000 0.23110  0.58440  0.81767  Biso   1.000  O
  O25      1.0000 0.36050  0.39540  0.85256  Biso   1.000  O
  O26      1.0000 0.32950  0.00090  0.85755  Biso   1.000  O
  O27      1.0000 0.36580  0.15790  0.86409  Biso   1.000  O
  O28      1.0000 0.87430  0.75680  0.71838  Biso   1.000  O
  O29      1.0000 0.93730  0.89820  0.73200  Biso   1.000  O
  O30      1.0000 0.09480  0.20530  0.82613  Biso   1.000  O
  O31      1.0000 0.07470  0.39520  0.81809  Biso   1.000  O
  O32      1.0000 0.46980  0.41570  0.72301  Biso   1.000  O
  O33      1.0000 0.44130  0.60570  0.72495  Biso   1.000  O
  O34      1.0000 0.14490  0.23300  0.93730  Biso   1.000  O
  O35      1.0000 0.93790  0.28170  0.93880  Biso   1.000  O
  O36      1.0000 0.12300  0.84420  0.63324  Biso   1.000  O
  O37      1.0000 0.00340  0.76100  0.60460  Biso   1.000  O
  O38      1.0000 0.34320  0.62440  0.61532  Biso   1.000  O
  O39      1.0000 0.34730  0.43990  0.62182  Biso   1.000  O
  O40      1.0000 0.18220  0.59730  0.70797  Biso   1.000  O
  H84      1.0000 0.15840  0.57890  0.74260  Biso   1.000  H
  O41      1.0000 0.30980  0.29580  0.75029  Biso   1.000  O
  H85      1.0000 0.28060  0.23740  0.74950  Biso   1.000  H
  O42      1.0000 0.28370  0.97950  0.96950  Biso   1.000  O
  H86      1.0000 0.35970  0.98860  0.96890  Biso   1.000  H
  Zn6      1.0000 0.01044  0.66851  0.67493  Biso   1.000  Zn
  Zn7      1.0000 0.29266  0.43025  0.69494  Biso   1.000  Zn
  Zn8      1.0000 0.27996  0.70974  0.67963  Biso   1.000  Zn
  Zn9      1.0000 0.18144  0.09936  0.90000  Biso   1.000  Zn
  Zn10     1.0000 0.26592  0.32216  0.82216  Biso   1.000  Zn
  H87      1.0000 0.11910  0.71800  0.91840  Biso   1.000  H
  C129     1.0000 0.07440  0.80160  0.91190  Biso   1.000  C
  C130     1.0000 0.13800  0.87730  0.90860  Biso   1.000  C
  H88      1.0000 0.22680  0.84280  0.91140  Biso   1.000  H
  C131     1.0000 0.87300  0.98300  0.91100  Biso   1.000  C
  H89      1.0000 0.78550  0.01950  0.91570  Biso   1.000  H
  C132     1.0000 0.95200  0.04900  0.90980  Biso   1.000  C
  H90      1.0000 0.91410  0.12830  0.91530  Biso   1.000  H
