data_image0
_cell_length_a       12.104
_cell_length_b       12.104
_cell_length_c       12.104
_cell_angle_alpha    90
_cell_angle_beta     90
_cell_angle_gamma    90

_symmetry_space_group_name_H-M    "P 1"
_symmetry_int_tables_number       1

loop_
  _symmetry_equiv_pos_as_xyz
  'x, y, z'

loop_
  _atom_site_label
  _atom_site_occupancy
  _atom_site_fract_x
  _atom_site_fract_y
  _atom_site_fract_z
  _atom_site_thermal_displace_type
  _atom_site_B_iso_or_equiv
  _atom_site_type_symbol
  Fe1      1.0000 0.00000  0.50000  0.00000  Biso   1.000  Fe
  Fe2      1.0000 0.50000  0.50000  0.50000  Biso   1.000  Fe
  Fe3      1.0000 0.00000  0.00000  0.50000  Biso   1.000  Fe
  Fe4      1.0000 0.50000  0.00000  0.00000  Biso   1.000  Fe
  K1       1.0000 0.00000  0.50000  0.50000  Biso   1.000  K
  K2       1.0000 0.00000  0.00000  0.00000  Biso   1.000  K
  K3       1.0000 0.50000  0.00000  0.50000  Biso   1.000  K
  K4       1.0000 0.50000  0.50000  0.00000  Biso   1.000  K
  C1       1.0000 0.98410  0.48410  0.15960  Biso   1.000  C
  N1       1.0000 0.01900  0.51900  0.25380  Biso   1.000  N
  C2       1.0000 0.98410  0.98410  0.65960  Biso   1.000  C
  N2       1.0000 0.01900  0.01900  0.75380  Biso   1.000  N
  C3       1.0000 0.48410  0.48410  0.65960  Biso   1.000  C
  N3       1.0000 0.51900  0.51900  0.75380  Biso   1.000  N
  C4       1.0000 0.01590  0.51590  0.15960  Biso   1.000  C
  N4       1.0000 0.98100  0.48100  0.25380  Biso   1.000  N
  C5       1.0000 0.01590  0.01590  0.65960  Biso   1.000  C
  N5       1.0000 0.98100  0.98100  0.75380  Biso   1.000  N
  C6       1.0000 0.01590  0.48410  0.84040  Biso   1.000  C
  N6       1.0000 0.98100  0.51900  0.74620  Biso   1.000  N
  C7       1.0000 0.01590  0.98410  0.34040  Biso   1.000  C
  N7       1.0000 0.98100  0.01900  0.24620  Biso   1.000  N
  C8       1.0000 0.98410  0.51590  0.84040  Biso   1.000  C
  N8       1.0000 0.01900  0.48100  0.74620  Biso   1.000  N
  C9       1.0000 0.98410  0.01590  0.34040  Biso   1.000  C
  N9       1.0000 0.01900  0.98100  0.24620  Biso   1.000  N
  C10      1.0000 0.48410  0.01590  0.84040  Biso   1.000  C
  N10      1.0000 0.51900  0.98100  0.74620  Biso   1.000  N
  C11      1.0000 0.15960  0.98410  0.48410  Biso   1.000  C
  N11      1.0000 0.25380  0.01900  0.51900  Biso   1.000  N
  C12      1.0000 0.65960  0.98410  0.98410  Biso   1.000  C
  N12      1.0000 0.75380  0.01900  0.01900  Biso   1.000  N
  C13      1.0000 0.65960  0.48410  0.48410  Biso   1.000  C
  N13      1.0000 0.75380  0.51900  0.51900  Biso   1.000  N
  C14      1.0000 0.15960  0.01590  0.51590  Biso   1.000  C
  N14      1.0000 0.25380  0.98100  0.48100  Biso   1.000  N
  C15      1.0000 0.65960  0.01590  0.01590  Biso   1.000  C
  N15      1.0000 0.75380  0.98100  0.98100  Biso   1.000  N
  C16      1.0000 0.84040  0.01590  0.48410  Biso   1.000  C
  N16      1.0000 0.74620  0.98100  0.51900  Biso   1.000  N
  C17      1.0000 0.34040  0.01590  0.98410  Biso   1.000  C
  N17      1.0000 0.24620  0.98100  0.01900  Biso   1.000  N
  C18      1.0000 0.84040  0.98410  0.51590  Biso   1.000  C
  N18      1.0000 0.74620  0.01900  0.48100  Biso   1.000  N
  C19      1.0000 0.84040  0.48410  0.01590  Biso   1.000  C
  N19      1.0000 0.74620  0.51900  0.98100  Biso   1.000  N
  C20      1.0000 0.34040  0.98410  0.01590  Biso   1.000  C
  N20      1.0000 0.24620  0.01900  0.98100  Biso   1.000  N
  C21      1.0000 0.48410  0.15960  0.98410  Biso   1.000  C
  N21      1.0000 0.51900  0.25380  0.01900  Biso   1.000  N
  C22      1.0000 0.48410  0.65960  0.48410  Biso   1.000  C
  N22      1.0000 0.51900  0.75380  0.51900  Biso   1.000  N
  C23      1.0000 0.51590  0.15960  0.01590  Biso   1.000  C
  N23      1.0000 0.48100  0.25380  0.98100  Biso   1.000  N
  C24      1.0000 0.51590  0.65960  0.51590  Biso   1.000  C
  N24      1.0000 0.48100  0.75380  0.48100  Biso   1.000  N
  C25      1.0000 0.01590  0.65960  0.01590  Biso   1.000  C
  N25      1.0000 0.98100  0.75380  0.98100  Biso   1.000  N
  C26      1.0000 0.48410  0.84040  0.01590  Biso   1.000  C
  N26      1.0000 0.51900  0.74620  0.98100  Biso   1.000  N
  C27      1.0000 0.48410  0.34040  0.51590  Biso   1.000  C
  N27      1.0000 0.51900  0.24620  0.48100  Biso   1.000  N
  C28      1.0000 0.51590  0.84040  0.98410  Biso   1.000  C
  N28      1.0000 0.48100  0.74620  0.01900  Biso   1.000  N
  C29      1.0000 0.51590  0.34040  0.48410  Biso   1.000  C
  N29      1.0000 0.48100  0.24620  0.51900  Biso   1.000  N
  C30      1.0000 0.01590  0.84040  0.48410  Biso   1.000  C
  N30      1.0000 0.98100  0.74620  0.51900  Biso   1.000  N
  C31      1.0000 0.48410  0.98410  0.84040  Biso   1.000  C
  N31      1.0000 0.51900  0.01900  0.74620  Biso   1.000  N
  C32      1.0000 0.48410  0.48410  0.34040  Biso   1.000  C
  N32      1.0000 0.51900  0.51900  0.24620  Biso   1.000  N
  C33      1.0000 0.51590  0.01590  0.84040  Biso   1.000  C
  N33      1.0000 0.48100  0.98100  0.74620  Biso   1.000  N
  C34      1.0000 0.51590  0.51590  0.34040  Biso   1.000  C
  N34      1.0000 0.48100  0.48100  0.24620  Biso   1.000  N
  C35      1.0000 0.01590  0.01590  0.34040  Biso   1.000  C
  N35      1.0000 0.98100  0.98100  0.24620  Biso   1.000  N
  C36      1.0000 0.48410  0.01590  0.15960  Biso   1.000  C
  N36      1.0000 0.51900  0.98100  0.25380  Biso   1.000  N
  C37      1.0000 0.48410  0.51590  0.65960  Biso   1.000  C
  N37      1.0000 0.51900  0.48100  0.75380  Biso   1.000  N
  C38      1.0000 0.51590  0.98410  0.15960  Biso   1.000  C
  N38      1.0000 0.48100  0.01900  0.25380  Biso   1.000  N
  C39      1.0000 0.51590  0.48410  0.65960  Biso   1.000  C
  N39      1.0000 0.48100  0.51900  0.75380  Biso   1.000  N
  C40      1.0000 0.01590  0.48410  0.15960  Biso   1.000  C
  N40      1.0000 0.98100  0.51900  0.25380  Biso   1.000  N
  C41      1.0000 0.98410  0.15960  0.51590  Biso   1.000  C
  N41      1.0000 0.01900  0.25380  0.48100  Biso   1.000  N
  C42      1.0000 0.98410  0.65960  0.01590  Biso   1.000  C
  N42      1.0000 0.01900  0.75380  0.98100  Biso   1.000  N
  C43      1.0000 0.48410  0.15960  0.01590  Biso   1.000  C
  N43      1.0000 0.51900  0.25380  0.98100  Biso   1.000  N
  C44      1.0000 0.01590  0.15960  0.48410  Biso   1.000  C
  N44      1.0000 0.98100  0.25380  0.51900  Biso   1.000  N
  C45      1.0000 0.01590  0.65960  0.98410  Biso   1.000  C
  N45      1.0000 0.98100  0.75380  0.01900  Biso   1.000  N
  C46      1.0000 0.01590  0.84040  0.51590  Biso   1.000  C
  N46      1.0000 0.98100  0.74620  0.48100  Biso   1.000  N
  C47      1.0000 0.01590  0.34040  0.01590  Biso   1.000  C
  N47      1.0000 0.98100  0.24620  0.98100  Biso   1.000  N
  C48      1.0000 0.98410  0.84040  0.48410  Biso   1.000  C
  N48      1.0000 0.01900  0.74620  0.51900  Biso   1.000  N
  C49      1.0000 0.98410  0.34040  0.98410  Biso   1.000  C
  N49      1.0000 0.01900  0.24620  0.01900  Biso   1.000  N
  C50      1.0000 0.48410  0.34040  0.48410  Biso   1.000  C
  N50      1.0000 0.51900  0.24620  0.51900  Biso   1.000  N
  C51      1.0000 0.15960  0.48410  0.01590  Biso   1.000  C
  N51      1.0000 0.25380  0.51900  0.98100  Biso   1.000  N
  C52      1.0000 0.65960  0.48410  0.51590  Biso   1.000  C
  N52      1.0000 0.75380  0.51900  0.48100  Biso   1.000  N
  C53      1.0000 0.15960  0.51590  0.98410  Biso   1.000  C
  N53      1.0000 0.25380  0.48100  0.01900  Biso   1.000  N
  C54      1.0000 0.15960  0.01590  0.48410  Biso   1.000  C
  N54      1.0000 0.25380  0.98100  0.51900  Biso   1.000  N
  C55      1.0000 0.65960  0.51590  0.48410  Biso   1.000  C
  N55      1.0000 0.75380  0.48100  0.51900  Biso   1.000  N
  C56      1.0000 0.84040  0.48410  0.98410  Biso   1.000  C
  N56      1.0000 0.74620  0.51900  0.01900  Biso   1.000  N
  C57      1.0000 0.34040  0.48410  0.48410  Biso   1.000  C
  N57      1.0000 0.24620  0.51900  0.51900  Biso   1.000  N
  C58      1.0000 0.84040  0.51590  0.01590  Biso   1.000  C
  N58      1.0000 0.74620  0.48100  0.98100  Biso   1.000  N
  C59      1.0000 0.34040  0.51590  0.51590  Biso   1.000  C
  N59      1.0000 0.24620  0.48100  0.48100  Biso   1.000  N
  C60      1.0000 0.34040  0.01590  0.01590  Biso   1.000  C
  N60      1.0000 0.24620  0.98100  0.98100  Biso   1.000  N
  C61      1.0000 0.01590  0.51590  0.84040  Biso   1.000  C
  N61      1.0000 0.98100  0.48100  0.74620  Biso   1.000  N
  C62      1.0000 0.98410  0.48410  0.84040  Biso   1.000  C
  N62      1.0000 0.01900  0.51900  0.74620  Biso   1.000  N
  C63      1.0000 0.98410  0.98410  0.34040  Biso   1.000  C
  N63      1.0000 0.01900  0.01900  0.24620  Biso   1.000  N
  C64      1.0000 0.98410  0.51590  0.15960  Biso   1.000  C
  N64      1.0000 0.01900  0.48100  0.25380  Biso   1.000  N
  C65      1.0000 0.98410  0.01590  0.65960  Biso   1.000  C
  N65      1.0000 0.01900  0.98100  0.75380  Biso   1.000  N
  C66      1.0000 0.01590  0.98410  0.65960  Biso   1.000  C
  N66      1.0000 0.98100  0.01900  0.75380  Biso   1.000  N
  C67      1.0000 0.84040  0.01590  0.51590  Biso   1.000  C
  N67      1.0000 0.74620  0.98100  0.48100  Biso   1.000  N
  C68      1.0000 0.84040  0.98410  0.48410  Biso   1.000  C
  N68      1.0000 0.74620  0.01900  0.51900  Biso   1.000  N
  C69      1.0000 0.34040  0.98410  0.98410  Biso   1.000  C
  N69      1.0000 0.24620  0.01900  0.01900  Biso   1.000  N
  C70      1.0000 0.15960  0.98410  0.51590  Biso   1.000  C
  N70      1.0000 0.25380  0.01900  0.48100  Biso   1.000  N
  C71      1.0000 0.65960  0.98410  0.01590  Biso   1.000  C
  N71      1.0000 0.75380  0.01900  0.98100  Biso   1.000  N
  C72      1.0000 0.65960  0.01590  0.98410  Biso   1.000  C
  N72      1.0000 0.75380  0.98100  0.01900  Biso   1.000  N
  C73      1.0000 0.51590  0.84040  0.01590  Biso   1.000  C
  N73      1.0000 0.48100  0.74620  0.98100  Biso   1.000  N
  C74      1.0000 0.51590  0.34040  0.51590  Biso   1.000  C
  N74      1.0000 0.48100  0.24620  0.48100  Biso   1.000  N
  C75      1.0000 0.48410  0.84040  0.98410  Biso   1.000  C
  N75      1.0000 0.51900  0.74620  0.01900  Biso   1.000  N
  C76      1.0000 0.51590  0.15960  0.98410  Biso   1.000  C
  N76      1.0000 0.48100  0.25380  0.01900  Biso   1.000  N
  C77      1.0000 0.51590  0.65960  0.48410  Biso   1.000  C
  N77      1.0000 0.48100  0.75380  0.51900  Biso   1.000  N
  C78      1.0000 0.48410  0.65960  0.51590  Biso   1.000  C
  N78      1.0000 0.51900  0.75380  0.48100  Biso   1.000  N
  C79      1.0000 0.51590  0.01590  0.15960  Biso   1.000  C
  N79      1.0000 0.48100  0.98100  0.25380  Biso   1.000  N
  C80      1.0000 0.51590  0.51590  0.65960  Biso   1.000  C
  N80      1.0000 0.48100  0.48100  0.75380  Biso   1.000  N
  C81      1.0000 0.48410  0.98410  0.15960  Biso   1.000  C
  N81      1.0000 0.51900  0.01900  0.25380  Biso   1.000  N
  C82      1.0000 0.51590  0.98410  0.84040  Biso   1.000  C
  N82      1.0000 0.48100  0.01900  0.74620  Biso   1.000  N
  C83      1.0000 0.51590  0.48410  0.34040  Biso   1.000  C
  N83      1.0000 0.48100  0.51900  0.24620  Biso   1.000  N
  C84      1.0000 0.48410  0.51590  0.34040  Biso   1.000  C
  N84      1.0000 0.51900  0.48100  0.24620  Biso   1.000  N
  C85      1.0000 0.01590  0.34040  0.98410  Biso   1.000  C
  N85      1.0000 0.98100  0.24620  0.01900  Biso   1.000  N
  C86      1.0000 0.98410  0.84040  0.51590  Biso   1.000  C
  N86      1.0000 0.01900  0.74620  0.48100  Biso   1.000  N
  C87      1.0000 0.98410  0.34040  0.01590  Biso   1.000  C
  N87      1.0000 0.01900  0.24620  0.98100  Biso   1.000  N
  C88      1.0000 0.98410  0.15960  0.48410  Biso   1.000  C
  N88      1.0000 0.01900  0.25380  0.51900  Biso   1.000  N
  C89      1.0000 0.98410  0.65960  0.98410  Biso   1.000  C
  N89      1.0000 0.01900  0.75380  0.01900  Biso   1.000  N
  C90      1.0000 0.01590  0.15960  0.51590  Biso   1.000  C
  N90      1.0000 0.98100  0.25380  0.48100  Biso   1.000  N
  C91      1.0000 0.84040  0.51590  0.98410  Biso   1.000  C
  N91      1.0000 0.74620  0.48100  0.01900  Biso   1.000  N
  C92      1.0000 0.34040  0.51590  0.48410  Biso   1.000  C
  N92      1.0000 0.24620  0.48100  0.51900  Biso   1.000  N
  C93      1.0000 0.34040  0.48410  0.51590  Biso   1.000  C
  N93      1.0000 0.24620  0.51900  0.48100  Biso   1.000  N
  C94      1.0000 0.15960  0.51590  0.01590  Biso   1.000  C
  N94      1.0000 0.25380  0.48100  0.98100  Biso   1.000  N
  C95      1.0000 0.65960  0.51590  0.51590  Biso   1.000  C
  N95      1.0000 0.75380  0.48100  0.48100  Biso   1.000  N
  C96      1.0000 0.15960  0.48410  0.98410  Biso   1.000  C
  N96      1.0000 0.25380  0.51900  0.01900  Biso   1.000  N
