data_image0
_cell_length_a       20.9939
_cell_length_b       20.9939
_cell_length_c       20.9939
_cell_angle_alpha    90
_cell_angle_beta     90
_cell_angle_gamma    90

_symmetry_space_group_name_H-M    "P 1"
_symmetry_int_tables_number       1

loop_
  _symmetry_equiv_pos_as_xyz
  'x, y, z'

loop_
  _atom_site_label
  _atom_site_occupancy
  _atom_site_fract_x
  _atom_site_fract_y
  _atom_site_fract_z
  _atom_site_thermal_displace_type
  _atom_site_B_iso_or_equiv
  _atom_site_type_symbol
  O1       1.0000 0.35860  0.07301  0.43330  Biso   1.000  O
  S1       1.0000 0.39548  0.18604  0.28850  Biso   1.000  S
  C1       1.0000 0.31050  0.18730  0.37360  Biso   1.000  C
  C2       1.0000 0.33730  0.24290  0.29060  Biso   1.000  C
  H1       1.0000 0.28730  0.17650  0.41090  Biso   1.000  H
  O2       1.0000 0.64140  0.92699  0.43330  Biso   1.000  O
  S2       1.0000 0.60452  0.81396  0.28850  Biso   1.000  S
  C3       1.0000 0.68950  0.81270  0.37360  Biso   1.000  C
  C4       1.0000 0.66270  0.75710  0.29060  Biso   1.000  C
  H2       1.0000 0.71270  0.82350  0.41090  Biso   1.000  H
  O3       1.0000 0.64140  0.07301  0.56670  Biso   1.000  O
  S3       1.0000 0.60452  0.18604  0.71150  Biso   1.000  S
  C5       1.0000 0.68950  0.18730  0.62640  Biso   1.000  C
  C6       1.0000 0.66270  0.24290  0.70940  Biso   1.000  C
  H3       1.0000 0.71270  0.17650  0.58910  Biso   1.000  H
  O4       1.0000 0.35860  0.92699  0.56670  Biso   1.000  O
  S4       1.0000 0.39548  0.81396  0.71150  Biso   1.000  S
  C7       1.0000 0.31050  0.81270  0.62640  Biso   1.000  C
  C8       1.0000 0.33730  0.75710  0.70940  Biso   1.000  C
  H4       1.0000 0.28730  0.82350  0.58910  Biso   1.000  H
  O5       1.0000 0.43330  0.35860  0.07301  Biso   1.000  O
  S5       1.0000 0.28850  0.39548  0.18604  Biso   1.000  S
  C9       1.0000 0.37360  0.31050  0.18730  Biso   1.000  C
  C10      1.0000 0.29060  0.33730  0.24290  Biso   1.000  C
  H5       1.0000 0.41090  0.28730  0.17650  Biso   1.000  H
  O6       1.0000 0.43330  0.64140  0.92699  Biso   1.000  O
  S6       1.0000 0.28850  0.60452  0.81396  Biso   1.000  S
  C11      1.0000 0.37360  0.68950  0.81270  Biso   1.000  C
  C12      1.0000 0.29060  0.66270  0.75710  Biso   1.000  C
  H6       1.0000 0.41090  0.71270  0.82350  Biso   1.000  H
  O7       1.0000 0.56670  0.64140  0.07301  Biso   1.000  O
  S7       1.0000 0.71150  0.60452  0.18604  Biso   1.000  S
  C13      1.0000 0.62640  0.68950  0.18730  Biso   1.000  C
  C14      1.0000 0.70940  0.66270  0.24290  Biso   1.000  C
  H7       1.0000 0.58910  0.71270  0.17650  Biso   1.000  H
  O8       1.0000 0.56670  0.35860  0.92699  Biso   1.000  O
  S8       1.0000 0.71150  0.39548  0.81396  Biso   1.000  S
  C15      1.0000 0.62640  0.31050  0.81270  Biso   1.000  C
  C16      1.0000 0.70940  0.33730  0.75710  Biso   1.000  C
  H8       1.0000 0.58910  0.28730  0.82350  Biso   1.000  H
  O9       1.0000 0.07301  0.43330  0.35860  Biso   1.000  O
  S9       1.0000 0.18604  0.28850  0.39548  Biso   1.000  S
  C17      1.0000 0.18730  0.37360  0.31050  Biso   1.000  C
  C18      1.0000 0.24290  0.29060  0.33730  Biso   1.000  C
  H9       1.0000 0.17650  0.41090  0.28730  Biso   1.000  H
  O10      1.0000 0.92699  0.43330  0.64140  Biso   1.000  O
  S10      1.0000 0.81396  0.28850  0.60452  Biso   1.000  S
  C19      1.0000 0.81270  0.37360  0.68950  Biso   1.000  C
  C20      1.0000 0.75710  0.29060  0.66270  Biso   1.000  C
  H10      1.0000 0.82350  0.41090  0.71270  Biso   1.000  H
  O11      1.0000 0.07301  0.56670  0.64140  Biso   1.000  O
  S11      1.0000 0.18604  0.71150  0.60452  Biso   1.000  S
  C21      1.0000 0.18730  0.62640  0.68950  Biso   1.000  C
  C22      1.0000 0.24290  0.70940  0.66270  Biso   1.000  C
  H11      1.0000 0.17650  0.58910  0.71270  Biso   1.000  H
  O12      1.0000 0.92699  0.56670  0.35860  Biso   1.000  O
  S12      1.0000 0.81396  0.71150  0.39548  Biso   1.000  S
  C23      1.0000 0.81270  0.62640  0.31050  Biso   1.000  C
  C24      1.0000 0.75710  0.70940  0.33730  Biso   1.000  C
  H12      1.0000 0.82350  0.58910  0.28730  Biso   1.000  H
  O13      1.0000 0.07301  0.35860  0.56670  Biso   1.000  O
  S13      1.0000 0.18604  0.39548  0.71150  Biso   1.000  S
  C25      1.0000 0.18730  0.31050  0.62640  Biso   1.000  C
  C26      1.0000 0.24290  0.33730  0.70940  Biso   1.000  C
  H13      1.0000 0.17650  0.28730  0.58910  Biso   1.000  H
  O14      1.0000 0.92699  0.64140  0.56670  Biso   1.000  O
  S14      1.0000 0.81396  0.60452  0.71150  Biso   1.000  S
  C27      1.0000 0.81270  0.68950  0.62640  Biso   1.000  C
  C28      1.0000 0.75710  0.66270  0.70940  Biso   1.000  C
  H14      1.0000 0.82350  0.71270  0.58910  Biso   1.000  H
  O15      1.0000 0.07301  0.64140  0.43330  Biso   1.000  O
  S15      1.0000 0.18604  0.60452  0.28850  Biso   1.000  S
  C29      1.0000 0.18730  0.68950  0.37360  Biso   1.000  C
  C30      1.0000 0.24290  0.66270  0.29060  Biso   1.000  C
  H15      1.0000 0.17650  0.71270  0.41090  Biso   1.000  H
  O16      1.0000 0.92699  0.35860  0.43330  Biso   1.000  O
  S16      1.0000 0.81396  0.39548  0.28850  Biso   1.000  S
  C31      1.0000 0.81270  0.31050  0.37360  Biso   1.000  C
  C32      1.0000 0.75710  0.33730  0.29060  Biso   1.000  C
  H16      1.0000 0.82350  0.28730  0.41090  Biso   1.000  H
  O17      1.0000 0.35860  0.43330  0.92699  Biso   1.000  O
  S17      1.0000 0.39548  0.28850  0.81396  Biso   1.000  S
  C33      1.0000 0.31050  0.37360  0.81270  Biso   1.000  C
  C34      1.0000 0.33730  0.29060  0.75710  Biso   1.000  C
  H17      1.0000 0.28730  0.41090  0.82350  Biso   1.000  H
  O18      1.0000 0.64140  0.43330  0.07301  Biso   1.000  O
  S18      1.0000 0.60452  0.28850  0.18604  Biso   1.000  S
  C35      1.0000 0.68950  0.37360  0.18730  Biso   1.000  C
  C36      1.0000 0.66270  0.29060  0.24290  Biso   1.000  C
  H18      1.0000 0.71270  0.41090  0.17650  Biso   1.000  H
  O19      1.0000 0.64140  0.56670  0.92699  Biso   1.000  O
  S19      1.0000 0.60452  0.71150  0.81396  Biso   1.000  S
  C37      1.0000 0.68950  0.62640  0.81270  Biso   1.000  C
  C38      1.0000 0.66270  0.70940  0.75710  Biso   1.000  C
  H19      1.0000 0.71270  0.58910  0.82350  Biso   1.000  H
  O20      1.0000 0.35860  0.56670  0.07301  Biso   1.000  O
  S20      1.0000 0.39548  0.71150  0.18604  Biso   1.000  S
  C39      1.0000 0.31050  0.62640  0.18730  Biso   1.000  C
  C40      1.0000 0.33730  0.70940  0.24290  Biso   1.000  C
  H20      1.0000 0.28730  0.58910  0.17650  Biso   1.000  H
  O21      1.0000 0.43330  0.07301  0.64140  Biso   1.000  O
  S21      1.0000 0.28850  0.18604  0.60452  Biso   1.000  S
  C41      1.0000 0.37360  0.18730  0.68950  Biso   1.000  C
  C42      1.0000 0.29060  0.24290  0.66270  Biso   1.000  C
  H21      1.0000 0.41090  0.17650  0.71270  Biso   1.000  H
  O22      1.0000 0.43330  0.92699  0.35860  Biso   1.000  O
  S22      1.0000 0.28850  0.81396  0.39548  Biso   1.000  S
  C43      1.0000 0.37360  0.81270  0.31050  Biso   1.000  C
  C44      1.0000 0.29060  0.75710  0.33730  Biso   1.000  C
  H22      1.0000 0.41090  0.82350  0.28730  Biso   1.000  H
  O23      1.0000 0.56670  0.07301  0.35860  Biso   1.000  O
  S23      1.0000 0.71150  0.18604  0.39548  Biso   1.000  S
  C45      1.0000 0.62640  0.18730  0.31050  Biso   1.000  C
  C46      1.0000 0.70940  0.24290  0.33730  Biso   1.000  C
  H23      1.0000 0.58910  0.17650  0.28730  Biso   1.000  H
  O24      1.0000 0.56670  0.92699  0.64140  Biso   1.000  O
  S24      1.0000 0.71150  0.81396  0.60452  Biso   1.000  S
  C47      1.0000 0.62640  0.81270  0.68950  Biso   1.000  C
  C48      1.0000 0.70940  0.75710  0.66270  Biso   1.000  C
  H24      1.0000 0.58910  0.82350  0.71270  Biso   1.000  H
  O25      1.0000 0.64140  0.92699  0.56670  Biso   1.000  O
  S25      1.0000 0.60452  0.81396  0.71150  Biso   1.000  S
  C49      1.0000 0.68950  0.81270  0.62640  Biso   1.000  C
  C50      1.0000 0.66270  0.75710  0.70940  Biso   1.000  C
  H25      1.0000 0.71270  0.82350  0.58910  Biso   1.000  H
  O26      1.0000 0.35860  0.07301  0.56670  Biso   1.000  O
  S26      1.0000 0.39548  0.18604  0.71150  Biso   1.000  S
  C51      1.0000 0.31050  0.18730  0.62640  Biso   1.000  C
  C52      1.0000 0.33730  0.24290  0.70940  Biso   1.000  C
  H26      1.0000 0.28730  0.17650  0.58910  Biso   1.000  H
  O27      1.0000 0.35860  0.92699  0.43330  Biso   1.000  O
  S27      1.0000 0.39548  0.81396  0.28850  Biso   1.000  S
  C53      1.0000 0.31050  0.81270  0.37360  Biso   1.000  C
  C54      1.0000 0.33730  0.75710  0.29060  Biso   1.000  C
  H27      1.0000 0.28730  0.82350  0.41090  Biso   1.000  H
  O28      1.0000 0.64140  0.07301  0.43330  Biso   1.000  O
  S28      1.0000 0.60452  0.18604  0.28850  Biso   1.000  S
  C55      1.0000 0.68950  0.18730  0.37360  Biso   1.000  C
  C56      1.0000 0.66270  0.24290  0.29060  Biso   1.000  C
  H28      1.0000 0.71270  0.17650  0.41090  Biso   1.000  H
  O29      1.0000 0.56670  0.64140  0.92699  Biso   1.000  O
  S29      1.0000 0.71150  0.60452  0.81396  Biso   1.000  S
  C57      1.0000 0.62640  0.68950  0.81270  Biso   1.000  C
  C58      1.0000 0.70940  0.66270  0.75710  Biso   1.000  C
  H29      1.0000 0.58910  0.71270  0.82350  Biso   1.000  H
  O30      1.0000 0.56670  0.35860  0.07301  Biso   1.000  O
  S30      1.0000 0.71150  0.39548  0.18604  Biso   1.000  S
  C59      1.0000 0.62640  0.31050  0.18730  Biso   1.000  C
  C60      1.0000 0.70940  0.33730  0.24290  Biso   1.000  C
  H30      1.0000 0.58910  0.28730  0.17650  Biso   1.000  H
  O31      1.0000 0.43330  0.35860  0.92699  Biso   1.000  O
  S31      1.0000 0.28850  0.39548  0.81396  Biso   1.000  S
  C61      1.0000 0.37360  0.31050  0.81270  Biso   1.000  C
  C62      1.0000 0.29060  0.33730  0.75710  Biso   1.000  C
  H31      1.0000 0.41090  0.28730  0.82350  Biso   1.000  H
  O32      1.0000 0.43330  0.64140  0.07301  Biso   1.000  O
  S32      1.0000 0.28850  0.60452  0.18604  Biso   1.000  S
  C63      1.0000 0.37360  0.68950  0.18730  Biso   1.000  C
  C64      1.0000 0.29060  0.66270  0.24290  Biso   1.000  C
  H32      1.0000 0.41090  0.71270  0.17650  Biso   1.000  H
  O33      1.0000 0.92699  0.56670  0.64140  Biso   1.000  O
  S33      1.0000 0.81396  0.71150  0.60452  Biso   1.000  S
  C65      1.0000 0.81270  0.62640  0.68950  Biso   1.000  C
  C66      1.0000 0.75710  0.70940  0.66270  Biso   1.000  C
  H33      1.0000 0.82350  0.58910  0.71270  Biso   1.000  H
  O34      1.0000 0.07301  0.56670  0.35860  Biso   1.000  O
  S34      1.0000 0.18604  0.71150  0.39548  Biso   1.000  S
  C67      1.0000 0.18730  0.62640  0.31050  Biso   1.000  C
  C68      1.0000 0.24290  0.70940  0.33730  Biso   1.000  C
  H34      1.0000 0.17650  0.58910  0.28730  Biso   1.000  H
  O35      1.0000 0.92699  0.43330  0.35860  Biso   1.000  O
  S35      1.0000 0.81396  0.28850  0.39548  Biso   1.000  S
  C69      1.0000 0.81270  0.37360  0.31050  Biso   1.000  C
  C70      1.0000 0.75710  0.29060  0.33730  Biso   1.000  C
  H35      1.0000 0.82350  0.41090  0.28730  Biso   1.000  H
  O36      1.0000 0.07301  0.43330  0.64140  Biso   1.000  O
  S36      1.0000 0.18604  0.28850  0.60452  Biso   1.000  S
  C71      1.0000 0.18730  0.37360  0.68950  Biso   1.000  C
  C72      1.0000 0.24290  0.29060  0.66270  Biso   1.000  C
  H36      1.0000 0.17650  0.41090  0.71270  Biso   1.000  H
  O37      1.0000 0.92699  0.64140  0.43330  Biso   1.000  O
  S37      1.0000 0.81396  0.60452  0.28850  Biso   1.000  S
  C73      1.0000 0.81270  0.68950  0.37360  Biso   1.000  C
  C74      1.0000 0.75710  0.66270  0.29060  Biso   1.000  C
  H37      1.0000 0.82350  0.71270  0.41090  Biso   1.000  H
  O38      1.0000 0.07301  0.35860  0.43330  Biso   1.000  O
  S38      1.0000 0.18604  0.39548  0.28850  Biso   1.000  S
  C75      1.0000 0.18730  0.31050  0.37360  Biso   1.000  C
  C76      1.0000 0.24290  0.33730  0.29060  Biso   1.000  C
  H38      1.0000 0.17650  0.28730  0.41090  Biso   1.000  H
  O39      1.0000 0.92699  0.35860  0.56670  Biso   1.000  O
  S39      1.0000 0.81396  0.39548  0.71150  Biso   1.000  S
  C77      1.0000 0.81270  0.31050  0.62640  Biso   1.000  C
  C78      1.0000 0.75710  0.33730  0.70940  Biso   1.000  C
  H39      1.0000 0.82350  0.28730  0.58910  Biso   1.000  H
  O40      1.0000 0.07301  0.64140  0.56670  Biso   1.000  O
  S40      1.0000 0.18604  0.60452  0.71150  Biso   1.000  S
  C79      1.0000 0.18730  0.68950  0.62640  Biso   1.000  C
  C80      1.0000 0.24290  0.66270  0.70940  Biso   1.000  C
  H40      1.0000 0.17650  0.71270  0.58910  Biso   1.000  H
  O41      1.0000 0.64140  0.56670  0.07301  Biso   1.000  O
  S41      1.0000 0.60452  0.71150  0.18604  Biso   1.000  S
  C81      1.0000 0.68950  0.62640  0.18730  Biso   1.000  C
  C82      1.0000 0.66270  0.70940  0.24290  Biso   1.000  C
  H41      1.0000 0.71270  0.58910  0.17650  Biso   1.000  H
  O42      1.0000 0.35860  0.56670  0.92699  Biso   1.000  O
  S42      1.0000 0.39548  0.71150  0.81396  Biso   1.000  S
  C83      1.0000 0.31050  0.62640  0.81270  Biso   1.000  C
  C84      1.0000 0.33730  0.70940  0.75710  Biso   1.000  C
  H42      1.0000 0.28730  0.58910  0.82350  Biso   1.000  H
  O43      1.0000 0.35860  0.43330  0.07301  Biso   1.000  O
  S43      1.0000 0.39548  0.28850  0.18604  Biso   1.000  S
  C85      1.0000 0.31050  0.37360  0.18730  Biso   1.000  C
  C86      1.0000 0.33730  0.29060  0.24290  Biso   1.000  C
  H43      1.0000 0.28730  0.41090  0.17650  Biso   1.000  H
  O44      1.0000 0.64140  0.43330  0.92699  Biso   1.000  O
  S44      1.0000 0.60452  0.28850  0.81396  Biso   1.000  S
  C87      1.0000 0.68950  0.37360  0.81270  Biso   1.000  C
  C88      1.0000 0.66270  0.29060  0.75710  Biso   1.000  C
  H44      1.0000 0.71270  0.41090  0.82350  Biso   1.000  H
  O45      1.0000 0.56670  0.92699  0.35860  Biso   1.000  O
  S45      1.0000 0.71150  0.81396  0.39548  Biso   1.000  S
  C89      1.0000 0.62640  0.81270  0.31050  Biso   1.000  C
  C90      1.0000 0.70940  0.75710  0.33730  Biso   1.000  C
  H45      1.0000 0.58910  0.82350  0.28730  Biso   1.000  H
  O46      1.0000 0.56670  0.07301  0.64140  Biso   1.000  O
  S46      1.0000 0.71150  0.18604  0.60452  Biso   1.000  S
  C91      1.0000 0.62640  0.18730  0.68950  Biso   1.000  C
  C92      1.0000 0.70940  0.24290  0.66270  Biso   1.000  C
  H46      1.0000 0.58910  0.17650  0.71270  Biso   1.000  H
  O47      1.0000 0.43330  0.92699  0.64140  Biso   1.000  O
  S47      1.0000 0.28850  0.81396  0.60452  Biso   1.000  S
  C93      1.0000 0.37360  0.81270  0.68950  Biso   1.000  C
  C94      1.0000 0.29060  0.75710  0.66270  Biso   1.000  C
  H47      1.0000 0.41090  0.82350  0.71270  Biso   1.000  H
  O48      1.0000 0.43330  0.07301  0.35860  Biso   1.000  O
  S48      1.0000 0.28850  0.18604  0.39548  Biso   1.000  S
  C95      1.0000 0.37360  0.18730  0.31050  Biso   1.000  C
  C96      1.0000 0.29060  0.24290  0.33730  Biso   1.000  C
  H48      1.0000 0.41090  0.17650  0.28730  Biso   1.000  H
  Mn1      1.0000 0.36541  0.00000  0.50000  Biso   1.000  Mn
  Mn2      1.0000 0.63459  0.00000  0.50000  Biso   1.000  Mn
  Mn3      1.0000 0.50000  0.36541  0.00000  Biso   1.000  Mn
  Mn4      1.0000 0.50000  0.63459  0.00000  Biso   1.000  Mn
  Mn5      1.0000 0.00000  0.50000  0.36541  Biso   1.000  Mn
  Mn6      1.0000 0.00000  0.50000  0.63459  Biso   1.000  Mn
  Mn7      1.0000 0.00000  0.36541  0.50000  Biso   1.000  Mn
  Mn8      1.0000 0.00000  0.63459  0.50000  Biso   1.000  Mn
  Mn9      1.0000 0.36541  0.50000  0.00000  Biso   1.000  Mn
  Mn10     1.0000 0.63459  0.50000  0.00000  Biso   1.000  Mn
  Mn11     1.0000 0.50000  0.00000  0.63459  Biso   1.000  Mn
  Mn12     1.0000 0.50000  0.00000  0.36541  Biso   1.000  Mn
  C97      1.0000 0.38540  0.09450  0.38540  Biso   1.000  C
  C98      1.0000 0.35750  0.15360  0.35750  Biso   1.000  C
  C99      1.0000 0.61460  0.90550  0.38540  Biso   1.000  C
  C100     1.0000 0.64250  0.84640  0.35750  Biso   1.000  C
  C101     1.0000 0.61460  0.09450  0.61460  Biso   1.000  C
  C102     1.0000 0.64250  0.15360  0.64250  Biso   1.000  C
  C103     1.0000 0.38540  0.90550  0.61460  Biso   1.000  C
  C104     1.0000 0.35750  0.84640  0.64250  Biso   1.000  C
  C105     1.0000 0.38540  0.38540  0.09450  Biso   1.000  C
  C106     1.0000 0.35750  0.35750  0.15360  Biso   1.000  C
  C107     1.0000 0.38540  0.61460  0.90550  Biso   1.000  C
  C108     1.0000 0.35750  0.64250  0.84640  Biso   1.000  C
  C109     1.0000 0.61460  0.61460  0.09450  Biso   1.000  C
  C110     1.0000 0.64250  0.64250  0.15360  Biso   1.000  C
  C111     1.0000 0.61460  0.38540  0.90550  Biso   1.000  C
  C112     1.0000 0.64250  0.35750  0.84640  Biso   1.000  C
  C113     1.0000 0.09450  0.38540  0.38540  Biso   1.000  C
  C114     1.0000 0.15360  0.35750  0.35750  Biso   1.000  C
  C115     1.0000 0.90550  0.38540  0.61460  Biso   1.000  C
  C116     1.0000 0.84640  0.35750  0.64250  Biso   1.000  C
  C117     1.0000 0.09450  0.61460  0.61460  Biso   1.000  C
  C118     1.0000 0.15360  0.64250  0.64250  Biso   1.000  C
  C119     1.0000 0.90550  0.61460  0.38540  Biso   1.000  C
  C120     1.0000 0.84640  0.64250  0.35750  Biso   1.000  C
  C121     1.0000 0.09450  0.38540  0.61460  Biso   1.000  C
  C122     1.0000 0.15360  0.35750  0.64250  Biso   1.000  C
  C123     1.0000 0.90550  0.61460  0.61460  Biso   1.000  C
  C124     1.0000 0.84640  0.64250  0.64250  Biso   1.000  C
  C125     1.0000 0.09450  0.61460  0.38540  Biso   1.000  C
  C126     1.0000 0.15360  0.64250  0.35750  Biso   1.000  C
  C127     1.0000 0.90550  0.38540  0.38540  Biso   1.000  C
  C128     1.0000 0.84640  0.35750  0.35750  Biso   1.000  C
  C129     1.0000 0.38540  0.38540  0.90550  Biso   1.000  C
  C130     1.0000 0.35750  0.35750  0.84640  Biso   1.000  C
  C131     1.0000 0.61460  0.38540  0.09450  Biso   1.000  C
  C132     1.0000 0.64250  0.35750  0.15360  Biso   1.000  C
  C133     1.0000 0.61460  0.61460  0.90550  Biso   1.000  C
  C134     1.0000 0.64250  0.64250  0.84640  Biso   1.000  C
  C135     1.0000 0.38540  0.61460  0.09450  Biso   1.000  C
  C136     1.0000 0.35750  0.64250  0.15360  Biso   1.000  C
  C137     1.0000 0.38540  0.09450  0.61460  Biso   1.000  C
  C138     1.0000 0.35750  0.15360  0.64250  Biso   1.000  C
  C139     1.0000 0.38540  0.90550  0.38540  Biso   1.000  C
  C140     1.0000 0.35750  0.84640  0.35750  Biso   1.000  C
  C141     1.0000 0.61460  0.09450  0.38540  Biso   1.000  C
  C142     1.0000 0.64250  0.15360  0.35750  Biso   1.000  C
  C143     1.0000 0.61460  0.90550  0.61460  Biso   1.000  C
  C144     1.0000 0.64250  0.84640  0.64250  Biso   1.000  C
