data_image0
_cell_length_a       10.361
_cell_length_b       10.39
_cell_length_c       9.135
_cell_angle_alpha    90
_cell_angle_beta     90
_cell_angle_gamma    90

_symmetry_space_group_name_H-M    "P 1"
_symmetry_int_tables_number       1

loop_
  _symmetry_equiv_pos_as_xyz
  'x, y, z'

loop_
  _atom_site_label
  _atom_site_occupancy
  _atom_site_fract_x
  _atom_site_fract_y
  _atom_site_fract_z
  _atom_site_thermal_displace_type
  _atom_site_B_iso_or_equiv
  _atom_site_type_symbol
  Fe1      1.0000 0.87730  0.37740  0.15740  Biso   1.000  Fe
  P1       1.0000 0.10010  0.59950  0.19610  Biso   1.000  P
  O1       1.0000 0.00100  0.50120  0.24320  Biso   1.000  O
  O2       1.0000 0.06200  0.65290  0.04370  Biso   1.000  O
  O3       1.0000 0.84900  0.43850  0.95730  Biso   1.000  O
  O4       1.0000 0.05770  0.73490  0.20500  Biso   1.000  O
  O5       1.0000 0.92500  0.20580  0.18760  Biso   1.000  O
  O6       1.0000 0.20680  0.58000  0.31450  Biso   1.000  O
  O7       1.0000 0.73150  0.44220  0.29500  Biso   1.000  O
  Fe2      1.0000 0.62270  0.12260  0.15740  Biso   1.000  Fe
  P2       1.0000 0.39990  0.90050  0.19610  Biso   1.000  P
  O8       1.0000 0.49900  0.99880  0.24320  Biso   1.000  O
  O9       1.0000 0.43800  0.84710  0.04370  Biso   1.000  O
  O10      1.0000 0.65100  0.06150  0.95730  Biso   1.000  O
  O11      1.0000 0.44230  0.76510  0.20500  Biso   1.000  O
  O12      1.0000 0.57500  0.29420  0.18760  Biso   1.000  O
  O13      1.0000 0.29320  0.92000  0.31450  Biso   1.000  O
  O14      1.0000 0.76850  0.05780  0.29500  Biso   1.000  O
  Fe3      1.0000 0.12270  0.87740  0.34260  Biso   1.000  Fe
  P3       1.0000 0.89990  0.09950  0.30390  Biso   1.000  P
  O15      1.0000 0.99900  0.00120  0.25680  Biso   1.000  O
  O16      1.0000 0.93800  0.15290  0.45630  Biso   1.000  O
  O17      1.0000 0.15100  0.93850  0.54270  Biso   1.000  O
  O18      1.0000 0.94230  0.23490  0.29500  Biso   1.000  O
  O19      1.0000 0.07500  0.70580  0.31240  Biso   1.000  O
  O20      1.0000 0.79320  0.08000  0.18550  Biso   1.000  O
  O21      1.0000 0.26850  0.94220  0.20500  Biso   1.000  O
  Fe4      1.0000 0.37730  0.62260  0.34260  Biso   1.000  Fe
  P4       1.0000 0.60010  0.40050  0.30390  Biso   1.000  P
  O22      1.0000 0.50100  0.49880  0.25680  Biso   1.000  O
  O23      1.0000 0.56200  0.34710  0.45630  Biso   1.000  O
  O24      1.0000 0.34900  0.56150  0.54270  Biso   1.000  O
  O25      1.0000 0.55770  0.26510  0.29500  Biso   1.000  O
  O26      1.0000 0.42500  0.79420  0.31240  Biso   1.000  O
  O27      1.0000 0.70680  0.42000  0.18550  Biso   1.000  O
  O28      1.0000 0.23150  0.55780  0.20500  Biso   1.000  O
  Fe5      1.0000 0.12270  0.62260  0.84260  Biso   1.000  Fe
  P5       1.0000 0.89990  0.40050  0.80390  Biso   1.000  P
  O29      1.0000 0.99900  0.49880  0.75680  Biso   1.000  O
  O30      1.0000 0.93800  0.34710  0.95630  Biso   1.000  O
  O31      1.0000 0.15100  0.56150  0.04270  Biso   1.000  O
  O32      1.0000 0.94230  0.26510  0.79500  Biso   1.000  O
  O33      1.0000 0.07500  0.79420  0.81240  Biso   1.000  O
  O34      1.0000 0.79320  0.42000  0.68550  Biso   1.000  O
  O35      1.0000 0.26850  0.55780  0.70500  Biso   1.000  O
  Fe6      1.0000 0.37730  0.87740  0.84260  Biso   1.000  Fe
  P6       1.0000 0.60010  0.09950  0.80390  Biso   1.000  P
  O36      1.0000 0.50100  0.00120  0.75680  Biso   1.000  O
  O37      1.0000 0.56200  0.15290  0.95630  Biso   1.000  O
  O38      1.0000 0.34900  0.93850  0.04270  Biso   1.000  O
  O39      1.0000 0.55770  0.23490  0.79500  Biso   1.000  O
  O40      1.0000 0.42500  0.70580  0.81240  Biso   1.000  O
  O41      1.0000 0.70680  0.08000  0.68550  Biso   1.000  O
  O42      1.0000 0.23150  0.94220  0.70500  Biso   1.000  O
  Fe7      1.0000 0.87730  0.12260  0.65740  Biso   1.000  Fe
  P7       1.0000 0.10010  0.90050  0.69610  Biso   1.000  P
  O43      1.0000 0.00100  0.99880  0.74320  Biso   1.000  O
  O44      1.0000 0.06200  0.84710  0.54370  Biso   1.000  O
  O45      1.0000 0.84900  0.06150  0.45730  Biso   1.000  O
  O46      1.0000 0.05770  0.76510  0.70500  Biso   1.000  O
  O47      1.0000 0.92500  0.29420  0.68760  Biso   1.000  O
  O48      1.0000 0.20680  0.92000  0.81450  Biso   1.000  O
  O49      1.0000 0.73150  0.05780  0.79500  Biso   1.000  O
  Fe8      1.0000 0.62270  0.37740  0.65740  Biso   1.000  Fe
  P8       1.0000 0.39990  0.59950  0.69610  Biso   1.000  P
  O50      1.0000 0.49900  0.50120  0.74320  Biso   1.000  O
  O51      1.0000 0.43800  0.65290  0.54370  Biso   1.000  O
  O52      1.0000 0.65100  0.43850  0.45730  Biso   1.000  O
  O53      1.0000 0.44230  0.73490  0.70500  Biso   1.000  O
  O54      1.0000 0.57500  0.20580  0.68760  Biso   1.000  O
  O55      1.0000 0.29320  0.58000  0.81450  Biso   1.000  O
  O56      1.0000 0.76850  0.44220  0.79500  Biso   1.000  O
