data_image0
_cell_length_a       28.8471
_cell_length_b       14.4534
_cell_length_c       12.252
_cell_angle_alpha    90
_cell_angle_beta     90
_cell_angle_gamma    90

_symmetry_space_group_name_H-M    "P 1"
_symmetry_int_tables_number       1

loop_
  _symmetry_equiv_pos_as_xyz
  'x, y, z'

loop_
  _atom_site_label
  _atom_site_occupancy
  _atom_site_fract_x
  _atom_site_fract_y
  _atom_site_fract_z
  _atom_site_thermal_displace_type
  _atom_site_B_iso_or_equiv
  _atom_site_type_symbol
  Dy1      1.0000 0.15720  0.39056  0.73698  Biso   1.000  Dy
  Dy2      1.0000 0.09343  0.07287  0.52302  Biso   1.000  Dy
  Co1      1.0000 0.96307  0.38032  0.53843  Biso   1.000  Co
  Co2      1.0000 0.20310  0.17064  0.12248  Biso   1.000  Co
  O1       1.0000 0.12370  0.41810  0.91750  Biso   1.000  O
  O2       1.0000 0.06260  0.49590  0.98160  Biso   1.000  O
  O3       1.0000 0.21190  0.47270  0.83480  Biso   1.000  O
  O4       1.0000 0.24020  0.48220  0.00170  Biso   1.000  O
  O5       1.0000 0.01230  0.11540  0.50900  Biso   1.000  O
  O6       1.0000 0.98220  0.24510  0.57230  Biso   1.000  O
  O7       1.0000 0.07290  0.07890  0.33820  Biso   1.000  O
  O8       1.0000 0.01290  0.04340  0.24240  Biso   1.000  O
  O9       1.0000 0.15840  0.24070  0.81720  Biso   1.000  O
  O10      1.0000 0.19900  0.23500  0.97330  Biso   1.000  O
  O11      1.0000 0.07060  0.11990  0.71050  Biso   1.000  O
  O12      1.0000 0.14030  0.06010  0.69200  Biso   1.000  O
  O13      1.0000 0.25870  0.55860  0.57540  Biso   1.000  O
  O14      1.0000 0.19030  0.48950  0.60090  Biso   1.000  O
  O15      1.0000 0.11010  0.52300  0.71440  Biso   1.000  O
  O16      1.0000 0.08690  0.59760  0.56820  Biso   1.000  O
  O17      1.0000 0.19430  0.10870  0.27630  Biso   1.000  O
  O18      1.0000 0.16340  0.12880  0.44260  Biso   1.000  O
  O19      1.0000 0.14180  0.33490  0.56150  Biso   1.000  O
  O20      1.0000 0.08970  0.23340  0.51730  Biso   1.000  O
  O21      1.0000 0.12470  0.92830  0.44700  Biso   1.000  O
  O22      1.0000 0.84770  0.05040  0.98000  Biso   1.000  O
  N1       1.0000 0.10820  0.65080  0.00550  Biso   1.000  N
  N2       1.0000 0.98850  0.33190  0.38420  Biso   1.000  N
  N3       1.0000 0.14480  0.10560  0.04910  Biso   1.000  N
  N4       1.0000 0.22790  0.71420  0.66390  Biso   1.000  N
  N5       1.0000 0.16620  0.27260  0.20620  Biso   1.000  N
  C1       1.0000 0.13140  0.57920  0.97350  Biso   1.000  C
  C2       1.0000 0.18270  0.58690  0.95740  Biso   1.000  C
  C3       1.0000 0.20310  0.67130  0.97310  Biso   1.000  C
  H1       1.0000 0.23500  0.67860  0.96570  Biso   1.000  H
  C4       1.0000 0.17450  0.74760  0.00100  Biso   1.000  C
  H2       1.0000 0.18730  0.80620  0.00980  Biso   1.000  H
  C5       1.0000 0.12690  0.73380  0.01490  Biso   1.000  C
  H3       1.0000 0.10800  0.78420  0.03120  Biso   1.000  H
  C6       1.0000 0.10530  0.49060  0.95550  Biso   1.000  C
  C7       1.0000 0.21410  0.50620  0.93070  Biso   1.000  C
  C8       1.0000 0.00440  0.24290  0.38200  Biso   1.000  C
  C9       1.0000 0.02180  0.19810  0.29300  Biso   1.000  C
  C10      1.0000 0.02550  0.25000  0.19850  Biso   1.000  C
  H4       1.0000 0.03730  0.22330  0.13520  Biso   1.000  H
  C11      1.0000 0.01210  0.33810  0.19810  Biso   1.000  C
  H5       1.0000 0.01650  0.37340  0.13550  Biso   1.000  H
  C12      1.0000 0.99150  0.37890  0.28910  Biso   1.000  C
  H6       1.0000 0.97980  0.43870  0.28430  Biso   1.000  H
  C13      1.0000 0.99950  0.19660  0.49720  Biso   1.000  C
  C14      1.0000 0.03610  0.09890  0.29250  Biso   1.000  C
  C15      1.0000 0.14050  0.12570  0.94410  Biso   1.000  C
  C16      1.0000 0.11090  0.07720  0.87310  Biso   1.000  C
  C17      1.0000 0.08010  0.01170  0.92170  Biso   1.000  C
  H7       1.0000 0.05750  0.98160  0.88100  Biso   1.000  H
  C18      1.0000 0.08540  0.99530  0.03050  Biso   1.000  C
  H8       1.0000 0.06680  0.95130  0.06430  Biso   1.000  H
  C19      1.0000 0.11720  0.04140  0.09020  Biso   1.000  C
  H9       1.0000 0.11980  0.02740  0.16400  Biso   1.000  H
  C20      1.0000 0.16900  0.20650  0.90660  Biso   1.000  C
  C21      1.0000 0.10760  0.09110  0.74970  Biso   1.000  C
  C22      1.0000 0.19750  0.64910  0.64810  Biso   1.000  C
  C23      1.0000 0.14840  0.66280  0.66480  Biso   1.000  C
  C24      1.0000 0.13380  0.74620  0.69910  Biso   1.000  C
  H10      1.0000 0.10270  0.75840  0.71310  Biso   1.000  H
  C25      1.0000 0.16990  0.81680  0.71310  Biso   1.000  C
  H11      1.0000 0.16130  0.87660  0.73240  Biso   1.000  H
  C26      1.0000 0.21420  0.79770  0.69910  Biso   1.000  C
  H12      1.0000 0.23630  0.84290  0.71380  Biso   1.000  H
  C27      1.0000 0.21480  0.55680  0.60770  Biso   1.000  C
  C28      1.0000 0.11310  0.59010  0.64780  Biso   1.000  C
  C29      1.0000 0.15560  0.24750  0.31110  Biso   1.000  C
  C30      1.0000 0.13150  0.31030  0.37960  Biso   1.000  C
  C31      1.0000 0.11880  0.39580  0.34120  Biso   1.000  C
  H13      1.0000 0.10240  0.43720  0.38470  Biso   1.000  H
  C32      1.0000 0.13230  0.42000  0.22770  Biso   1.000  C
  H14      1.0000 0.12490  0.47750  0.19840  Biso   1.000  H
  C33      1.0000 0.15610  0.35490  0.16640  Biso   1.000  C
  H15      1.0000 0.16510  0.36970  0.09560  Biso   1.000  H
  C34      1.0000 0.17060  0.15490  0.34760  Biso   1.000  C
  C35      1.0000 0.11940  0.28830  0.49560  Biso   1.000  C
  Dy3      1.0000 0.84280  0.60944  0.23698  Biso   1.000  Dy
  Dy4      1.0000 0.90657  0.92713  0.02302  Biso   1.000  Dy
  Co3      1.0000 0.03693  0.61968  0.03843  Biso   1.000  Co
  Co4      1.0000 0.79690  0.82936  0.62248  Biso   1.000  Co
  O23      1.0000 0.87630  0.58190  0.41750  Biso   1.000  O
  O24      1.0000 0.93740  0.50410  0.48160  Biso   1.000  O
  O25      1.0000 0.78810  0.52730  0.33480  Biso   1.000  O
  O26      1.0000 0.75980  0.51780  0.50170  Biso   1.000  O
  O27      1.0000 0.98770  0.88460  0.00900  Biso   1.000  O
  O28      1.0000 0.01780  0.75490  0.07230  Biso   1.000  O
  O29      1.0000 0.92710  0.92110  0.83820  Biso   1.000  O
  O30      1.0000 0.98710  0.95660  0.74240  Biso   1.000  O
  O31      1.0000 0.84160  0.75930  0.31720  Biso   1.000  O
  O32      1.0000 0.80100  0.76500  0.47330  Biso   1.000  O
  O33      1.0000 0.92940  0.88010  0.21050  Biso   1.000  O
  O34      1.0000 0.85970  0.93990  0.19200  Biso   1.000  O
  O35      1.0000 0.74130  0.44140  0.07540  Biso   1.000  O
  O36      1.0000 0.80970  0.51050  0.10090  Biso   1.000  O
  O37      1.0000 0.88990  0.47700  0.21440  Biso   1.000  O
  O38      1.0000 0.91310  0.40240  0.06820  Biso   1.000  O
  O39      1.0000 0.80570  0.89130  0.77630  Biso   1.000  O
  O40      1.0000 0.83660  0.87120  0.94260  Biso   1.000  O
  O41      1.0000 0.85820  0.66510  0.06150  Biso   1.000  O
  O42      1.0000 0.91030  0.76660  0.01730  Biso   1.000  O
  O43      1.0000 0.87530  0.07170  0.94700  Biso   1.000  O
  O44      1.0000 0.15230  0.94960  0.48000  Biso   1.000  O
  N6       1.0000 0.89180  0.34920  0.50550  Biso   1.000  N
  N7       1.0000 0.01150  0.66810  0.88420  Biso   1.000  N
  N8       1.0000 0.85520  0.89440  0.54910  Biso   1.000  N
  N9       1.0000 0.77210  0.28580  0.16390  Biso   1.000  N
  N10      1.0000 0.83380  0.72740  0.70620  Biso   1.000  N
  C36      1.0000 0.86860  0.42080  0.47350  Biso   1.000  C
  C37      1.0000 0.81730  0.41310  0.45740  Biso   1.000  C
  C38      1.0000 0.79690  0.32870  0.47310  Biso   1.000  C
  H16      1.0000 0.76500  0.32140  0.46570  Biso   1.000  H
  C39      1.0000 0.82550  0.25240  0.50100  Biso   1.000  C
  H17      1.0000 0.81270  0.19380  0.50980  Biso   1.000  H
  C40      1.0000 0.87310  0.26620  0.51490  Biso   1.000  C
  H18      1.0000 0.89200  0.21580  0.53120  Biso   1.000  H
  C41      1.0000 0.89470  0.50940  0.45550  Biso   1.000  C
  C42      1.0000 0.78590  0.49380  0.43070  Biso   1.000  C
  C43      1.0000 0.99560  0.75710  0.88200  Biso   1.000  C
  C44      1.0000 0.97820  0.80190  0.79300  Biso   1.000  C
  C45      1.0000 0.97450  0.75000  0.69850  Biso   1.000  C
  H19      1.0000 0.96270  0.77670  0.63520  Biso   1.000  H
  C46      1.0000 0.98790  0.66190  0.69810  Biso   1.000  C
  H20      1.0000 0.98350  0.62660  0.63550  Biso   1.000  H
  C47      1.0000 0.00850  0.62110  0.78910  Biso   1.000  C
  H21      1.0000 0.02020  0.56130  0.78430  Biso   1.000  H
  C48      1.0000 0.00050  0.80340  0.99720  Biso   1.000  C
  C49      1.0000 0.96390  0.90110  0.79250  Biso   1.000  C
  C50      1.0000 0.85950  0.87430  0.44410  Biso   1.000  C
  C51      1.0000 0.88910  0.92280  0.37310  Biso   1.000  C
  C52      1.0000 0.91990  0.98830  0.42170  Biso   1.000  C
  H22      1.0000 0.94250  0.01840  0.38100  Biso   1.000  H
  C53      1.0000 0.91460  0.00470  0.53050  Biso   1.000  C
  H23      1.0000 0.93320  0.04870  0.56430  Biso   1.000  H
  C54      1.0000 0.88280  0.95860  0.59020  Biso   1.000  C
  H24      1.0000 0.88020  0.97260  0.66400  Biso   1.000  H
  C55      1.0000 0.83100  0.79350  0.40660  Biso   1.000  C
  C56      1.0000 0.89240  0.90890  0.24970  Biso   1.000  C
  C57      1.0000 0.80250  0.35090  0.14810  Biso   1.000  C
  C58      1.0000 0.85160  0.33720  0.16480  Biso   1.000  C
  C59      1.0000 0.86620  0.25380  0.19910  Biso   1.000  C
  H25      1.0000 0.89730  0.24160  0.21310  Biso   1.000  H
  C60      1.0000 0.83010  0.18320  0.21310  Biso   1.000  C
  H26      1.0000 0.83870  0.12340  0.23240  Biso   1.000  H
  C61      1.0000 0.78580  0.20230  0.19910  Biso   1.000  C
  H27      1.0000 0.76370  0.15710  0.21380  Biso   1.000  H
  C62      1.0000 0.78520  0.44320  0.10770  Biso   1.000  C
  C63      1.0000 0.88690  0.40990  0.14780  Biso   1.000  C
  C64      1.0000 0.84440  0.75250  0.81110  Biso   1.000  C
  C65      1.0000 0.86850  0.68970  0.87960  Biso   1.000  C
  C66      1.0000 0.88120  0.60420  0.84120  Biso   1.000  C
  H28      1.0000 0.89760  0.56280  0.88470  Biso   1.000  H
  C67      1.0000 0.86770  0.58000  0.72770  Biso   1.000  C
  H29      1.0000 0.87510  0.52250  0.69840  Biso   1.000  H
  C68      1.0000 0.84390  0.64510  0.66640  Biso   1.000  C
  H30      1.0000 0.83490  0.63030  0.59560  Biso   1.000  H
  C69      1.0000 0.82940  0.84510  0.84760  Biso   1.000  C
  C70      1.0000 0.88060  0.71170  0.99560  Biso   1.000  C
  Dy5      1.0000 0.65720  0.10944  0.73698  Biso   1.000  Dy
  Dy6      1.0000 0.59343  0.42713  0.52302  Biso   1.000  Dy
  Co5      1.0000 0.46307  0.11968  0.53843  Biso   1.000  Co
  Co6      1.0000 0.70310  0.32936  0.12248  Biso   1.000  Co
  O45      1.0000 0.62370  0.08190  0.91750  Biso   1.000  O
  O46      1.0000 0.56260  0.00410  0.98160  Biso   1.000  O
  O47      1.0000 0.71190  0.02730  0.83480  Biso   1.000  O
  O48      1.0000 0.74020  0.01780  0.00170  Biso   1.000  O
  O49      1.0000 0.51230  0.38460  0.50900  Biso   1.000  O
  O50      1.0000 0.48220  0.25490  0.57230  Biso   1.000  O
  O51      1.0000 0.57290  0.42110  0.33820  Biso   1.000  O
  O52      1.0000 0.51290  0.45660  0.24240  Biso   1.000  O
  O53      1.0000 0.65840  0.25930  0.81720  Biso   1.000  O
  O54      1.0000 0.69900  0.26500  0.97330  Biso   1.000  O
  O55      1.0000 0.57060  0.38010  0.71050  Biso   1.000  O
  O56      1.0000 0.64030  0.43990  0.69200  Biso   1.000  O
  O57      1.0000 0.75870  0.94140  0.57540  Biso   1.000  O
  O58      1.0000 0.69030  0.01050  0.60090  Biso   1.000  O
  O59      1.0000 0.61010  0.97700  0.71440  Biso   1.000  O
  O60      1.0000 0.58690  0.90240  0.56820  Biso   1.000  O
  O61      1.0000 0.69430  0.39130  0.27630  Biso   1.000  O
  O62      1.0000 0.66340  0.37120  0.44260  Biso   1.000  O
  O63      1.0000 0.64180  0.16510  0.56150  Biso   1.000  O
  O64      1.0000 0.58970  0.26660  0.51730  Biso   1.000  O
  O65      1.0000 0.62470  0.57170  0.44700  Biso   1.000  O
  O66      1.0000 0.34770  0.44960  0.98000  Biso   1.000  O
  N11      1.0000 0.60820  0.84920  0.00550  Biso   1.000  N
  N12      1.0000 0.48850  0.16810  0.38420  Biso   1.000  N
  N13      1.0000 0.64480  0.39440  0.04910  Biso   1.000  N
  N14      1.0000 0.72790  0.78580  0.66390  Biso   1.000  N
  N15      1.0000 0.66620  0.22740  0.20620  Biso   1.000  N
  C71      1.0000 0.63140  0.92080  0.97350  Biso   1.000  C
  C72      1.0000 0.68270  0.91310  0.95740  Biso   1.000  C
  C73      1.0000 0.70310  0.82870  0.97310  Biso   1.000  C
  H31      1.0000 0.73500  0.82140  0.96570  Biso   1.000  H
  C74      1.0000 0.67450  0.75240  0.00100  Biso   1.000  C
  H32      1.0000 0.68730  0.69380  0.00980  Biso   1.000  H
  C75      1.0000 0.62690  0.76620  0.01490  Biso   1.000  C
  H33      1.0000 0.60800  0.71580  0.03120  Biso   1.000  H
  C76      1.0000 0.60530  0.00940  0.95550  Biso   1.000  C
  C77      1.0000 0.71410  0.99380  0.93070  Biso   1.000  C
  C78      1.0000 0.50440  0.25710  0.38200  Biso   1.000  C
  C79      1.0000 0.52180  0.30190  0.29300  Biso   1.000  C
  C80      1.0000 0.52550  0.25000  0.19850  Biso   1.000  C
  H34      1.0000 0.53730  0.27670  0.13520  Biso   1.000  H
  C81      1.0000 0.51210  0.16190  0.19810  Biso   1.000  C
  H35      1.0000 0.51650  0.12660  0.13550  Biso   1.000  H
  C82      1.0000 0.49150  0.12110  0.28910  Biso   1.000  C
  H36      1.0000 0.47980  0.06130  0.28430  Biso   1.000  H
  C83      1.0000 0.49950  0.30340  0.49720  Biso   1.000  C
  C84      1.0000 0.53610  0.40110  0.29250  Biso   1.000  C
  C85      1.0000 0.64050  0.37430  0.94410  Biso   1.000  C
  C86      1.0000 0.61090  0.42280  0.87310  Biso   1.000  C
  C87      1.0000 0.58010  0.48830  0.92170  Biso   1.000  C
  H37      1.0000 0.55750  0.51840  0.88100  Biso   1.000  H
  C88      1.0000 0.58540  0.50470  0.03050  Biso   1.000  C
  H38      1.0000 0.56680  0.54870  0.06430  Biso   1.000  H
  C89      1.0000 0.61720  0.45860  0.09020  Biso   1.000  C
  H39      1.0000 0.61980  0.47260  0.16400  Biso   1.000  H
  C90      1.0000 0.66900  0.29350  0.90660  Biso   1.000  C
  C91      1.0000 0.60760  0.40890  0.74970  Biso   1.000  C
  C92      1.0000 0.69750  0.85090  0.64810  Biso   1.000  C
  C93      1.0000 0.64840  0.83720  0.66480  Biso   1.000  C
  C94      1.0000 0.63380  0.75380  0.69910  Biso   1.000  C
  H40      1.0000 0.60270  0.74160  0.71310  Biso   1.000  H
  C95      1.0000 0.66990  0.68320  0.71310  Biso   1.000  C
  H41      1.0000 0.66130  0.62340  0.73240  Biso   1.000  H
  C96      1.0000 0.71420  0.70230  0.69910  Biso   1.000  C
  H42      1.0000 0.73630  0.65710  0.71380  Biso   1.000  H
  C97      1.0000 0.71480  0.94320  0.60770  Biso   1.000  C
  C98      1.0000 0.61310  0.90990  0.64780  Biso   1.000  C
  C99      1.0000 0.65560  0.25250  0.31110  Biso   1.000  C
  C100     1.0000 0.63150  0.18970  0.37960  Biso   1.000  C
  C101     1.0000 0.61880  0.10420  0.34120  Biso   1.000  C
  H43      1.0000 0.60240  0.06280  0.38470  Biso   1.000  H
  C102     1.0000 0.63230  0.08000  0.22770  Biso   1.000  C
  H44      1.0000 0.62490  0.02250  0.19840  Biso   1.000  H
  C103     1.0000 0.65610  0.14510  0.16640  Biso   1.000  C
  H45      1.0000 0.66510  0.13030  0.09560  Biso   1.000  H
  C104     1.0000 0.67060  0.34510  0.34760  Biso   1.000  C
  C105     1.0000 0.61940  0.21170  0.49560  Biso   1.000  C
  Dy7      1.0000 0.34280  0.89056  0.23698  Biso   1.000  Dy
  Dy8      1.0000 0.40657  0.57287  0.02302  Biso   1.000  Dy
  Co7      1.0000 0.53693  0.88032  0.03843  Biso   1.000  Co
  Co8      1.0000 0.29690  0.67064  0.62248  Biso   1.000  Co
  O67      1.0000 0.37630  0.91810  0.41750  Biso   1.000  O
  O68      1.0000 0.43740  0.99590  0.48160  Biso   1.000  O
  O69      1.0000 0.28810  0.97270  0.33480  Biso   1.000  O
  O70      1.0000 0.25980  0.98220  0.50170  Biso   1.000  O
  O71      1.0000 0.48770  0.61540  0.00900  Biso   1.000  O
  O72      1.0000 0.51780  0.74510  0.07230  Biso   1.000  O
  O73      1.0000 0.42710  0.57890  0.83820  Biso   1.000  O
  O74      1.0000 0.48710  0.54340  0.74240  Biso   1.000  O
  O75      1.0000 0.34160  0.74070  0.31720  Biso   1.000  O
  O76      1.0000 0.30100  0.73500  0.47330  Biso   1.000  O
  O77      1.0000 0.42940  0.61990  0.21050  Biso   1.000  O
  O78      1.0000 0.35970  0.56010  0.19200  Biso   1.000  O
  O79      1.0000 0.24130  0.05860  0.07540  Biso   1.000  O
  O80      1.0000 0.30970  0.98950  0.10090  Biso   1.000  O
  O81      1.0000 0.38990  0.02300  0.21440  Biso   1.000  O
  O82      1.0000 0.41310  0.09760  0.06820  Biso   1.000  O
  O83      1.0000 0.30570  0.60870  0.77630  Biso   1.000  O
  O84      1.0000 0.33660  0.62880  0.94260  Biso   1.000  O
  O85      1.0000 0.35820  0.83490  0.06150  Biso   1.000  O
  O86      1.0000 0.41030  0.73340  0.01730  Biso   1.000  O
  O87      1.0000 0.37530  0.42830  0.94700  Biso   1.000  O
  O88      1.0000 0.65230  0.55040  0.48000  Biso   1.000  O
  N16      1.0000 0.39180  0.15080  0.50550  Biso   1.000  N
  N17      1.0000 0.51150  0.83190  0.88420  Biso   1.000  N
  N18      1.0000 0.35520  0.60560  0.54910  Biso   1.000  N
  N19      1.0000 0.27210  0.21420  0.16390  Biso   1.000  N
  N20      1.0000 0.33380  0.77260  0.70620  Biso   1.000  N
  C106     1.0000 0.36860  0.07920  0.47350  Biso   1.000  C
  C107     1.0000 0.31730  0.08690  0.45740  Biso   1.000  C
  C108     1.0000 0.29690  0.17130  0.47310  Biso   1.000  C
  H46      1.0000 0.26500  0.17860  0.46570  Biso   1.000  H
  C109     1.0000 0.32550  0.24760  0.50100  Biso   1.000  C
  H47      1.0000 0.31270  0.30620  0.50980  Biso   1.000  H
  C110     1.0000 0.37310  0.23380  0.51490  Biso   1.000  C
  H48      1.0000 0.39200  0.28420  0.53120  Biso   1.000  H
  C111     1.0000 0.39470  0.99060  0.45550  Biso   1.000  C
  C112     1.0000 0.28590  0.00620  0.43070  Biso   1.000  C
  C113     1.0000 0.49560  0.74290  0.88200  Biso   1.000  C
  C114     1.0000 0.47820  0.69810  0.79300  Biso   1.000  C
  C115     1.0000 0.47450  0.75000  0.69850  Biso   1.000  C
  H49      1.0000 0.46270  0.72330  0.63520  Biso   1.000  H
  C116     1.0000 0.48790  0.83810  0.69810  Biso   1.000  C
  H50      1.0000 0.48350  0.87340  0.63550  Biso   1.000  H
  C117     1.0000 0.50850  0.87890  0.78910  Biso   1.000  C
  H51      1.0000 0.52020  0.93870  0.78430  Biso   1.000  H
  C118     1.0000 0.50050  0.69660  0.99720  Biso   1.000  C
  C119     1.0000 0.46390  0.59890  0.79250  Biso   1.000  C
  C120     1.0000 0.35950  0.62570  0.44410  Biso   1.000  C
  C121     1.0000 0.38910  0.57720  0.37310  Biso   1.000  C
  C122     1.0000 0.41990  0.51170  0.42170  Biso   1.000  C
  H52      1.0000 0.44250  0.48160  0.38100  Biso   1.000  H
  C123     1.0000 0.41460  0.49530  0.53050  Biso   1.000  C
  H53      1.0000 0.43320  0.45130  0.56430  Biso   1.000  H
  C124     1.0000 0.38280  0.54140  0.59020  Biso   1.000  C
  H54      1.0000 0.38020  0.52740  0.66400  Biso   1.000  H
  C125     1.0000 0.33100  0.70650  0.40660  Biso   1.000  C
  C126     1.0000 0.39240  0.59110  0.24970  Biso   1.000  C
  C127     1.0000 0.30250  0.14910  0.14810  Biso   1.000  C
  C128     1.0000 0.35160  0.16280  0.16480  Biso   1.000  C
  C129     1.0000 0.36620  0.24620  0.19910  Biso   1.000  C
  H55      1.0000 0.39730  0.25840  0.21310  Biso   1.000  H
  C130     1.0000 0.33010  0.31680  0.21310  Biso   1.000  C
  H56      1.0000 0.33870  0.37660  0.23240  Biso   1.000  H
  C131     1.0000 0.28580  0.29770  0.19910  Biso   1.000  C
  H57      1.0000 0.26370  0.34290  0.21380  Biso   1.000  H
  C132     1.0000 0.28520  0.05680  0.10770  Biso   1.000  C
  C133     1.0000 0.38690  0.09010  0.14780  Biso   1.000  C
  C134     1.0000 0.34440  0.74750  0.81110  Biso   1.000  C
  C135     1.0000 0.36850  0.81030  0.87960  Biso   1.000  C
  C136     1.0000 0.38120  0.89580  0.84120  Biso   1.000  C
  H58      1.0000 0.39760  0.93720  0.88470  Biso   1.000  H
  C137     1.0000 0.36770  0.92000  0.72770  Biso   1.000  C
  H59      1.0000 0.37510  0.97750  0.69840  Biso   1.000  H
  C138     1.0000 0.34390  0.85490  0.66640  Biso   1.000  C
  H60      1.0000 0.33490  0.86970  0.59560  Biso   1.000  H
  C139     1.0000 0.32940  0.65490  0.84760  Biso   1.000  C
  C140     1.0000 0.38060  0.78830  0.99560  Biso   1.000  C
