data_image0
_cell_length_a       12.6111
_cell_length_b       12.6111
_cell_length_c       30.2999
_cell_angle_alpha    90
_cell_angle_beta     90
_cell_angle_gamma    90

_symmetry_space_group_name_H-M    "P 1"
_symmetry_int_tables_number       1

loop_
  _symmetry_equiv_pos_as_xyz
  'x, y, z'

loop_
  _atom_site_label
  _atom_site_occupancy
  _atom_site_fract_x
  _atom_site_fract_y
  _atom_site_fract_z
  _atom_site_thermal_displace_type
  _atom_site_B_iso_or_equiv
  _atom_site_type_symbol
  Co1      1.0000 0.89434  0.94719  0.45954  Biso   1.000  Co
  C1       1.0000 0.10950  0.91430  0.37880  Biso   1.000  C
  C2       1.0000 0.15750  0.83440  0.40970  Biso   1.000  C
  C3       1.0000 0.08390  0.80480  0.44930  Biso   1.000  C
  C4       1.0000 0.14910  0.73000  0.47750  Biso   1.000  C
  C5       1.0000 0.09150  0.67630  0.51340  Biso   1.000  C
  C6       1.0000 0.98210  0.74770  0.43220  Biso   1.000  C
  O1       1.0000 0.11080  0.00990  0.39110  Biso   1.000  O
  O2       1.0000 0.07220  0.88760  0.34270  Biso   1.000  O
  O3       1.0000 0.05980  0.89790  0.47150  Biso   1.000  O
  O4       1.0000 0.89370  0.79240  0.43830  Biso   1.000  O
  O5       1.0000 0.99440  0.66040  0.41690  Biso   1.000  O
  O6       1.0000 0.04400  0.73410  0.54230  Biso   1.000  O
  O7       1.0000 0.08770  0.57590  0.51530  Biso   1.000  O
  H1       1.0000 0.22440  0.85780  0.42070  Biso   1.000  H
  H2       1.0000 0.16540  0.77180  0.39320  Biso   1.000  H
  H3       1.0000 0.20370  0.76910  0.49060  Biso   1.000  H
  H4       1.0000 0.17880  0.67750  0.45940  Biso   1.000  H
  O8       1.0000 0.60500  0.70300  0.42050  Biso   1.000  O
  O9       1.0000 0.65000  0.65600  0.41810  Biso   1.000  O
  Co2      1.0000 0.39434  0.44719  0.95954  Biso   1.000  Co
  C7       1.0000 0.60950  0.41430  0.87880  Biso   1.000  C
  C8       1.0000 0.65750  0.33440  0.90970  Biso   1.000  C
  C9       1.0000 0.58390  0.30480  0.94930  Biso   1.000  C
  C10      1.0000 0.64910  0.23000  0.97750  Biso   1.000  C
  C11      1.0000 0.59150  0.17630  0.01340  Biso   1.000  C
  C12      1.0000 0.48210  0.24770  0.93220  Biso   1.000  C
  O10      1.0000 0.61080  0.50990  0.89110  Biso   1.000  O
  O11      1.0000 0.57220  0.38760  0.84270  Biso   1.000  O
  O12      1.0000 0.55980  0.39790  0.97150  Biso   1.000  O
  O13      1.0000 0.39370  0.29240  0.93830  Biso   1.000  O
  O14      1.0000 0.49440  0.16040  0.91690  Biso   1.000  O
  O15      1.0000 0.54400  0.23410  0.04230  Biso   1.000  O
  O16      1.0000 0.58770  0.07590  0.01530  Biso   1.000  O
  H5       1.0000 0.72440  0.35780  0.92070  Biso   1.000  H
  H6       1.0000 0.66540  0.27180  0.89320  Biso   1.000  H
  H7       1.0000 0.70370  0.26910  0.99060  Biso   1.000  H
  H8       1.0000 0.67880  0.17750  0.95940  Biso   1.000  H
  O17      1.0000 0.10500  0.20300  0.92050  Biso   1.000  O
  O18      1.0000 0.15000  0.15600  0.91810  Biso   1.000  O
  Co3      1.0000 0.10566  0.05281  0.45954  Biso   1.000  Co
  C13      1.0000 0.89050  0.08570  0.37880  Biso   1.000  C
  C14      1.0000 0.84250  0.16560  0.40970  Biso   1.000  C
  C15      1.0000 0.91610  0.19520  0.44930  Biso   1.000  C
  C16      1.0000 0.85090  0.27000  0.47750  Biso   1.000  C
  C17      1.0000 0.90850  0.32370  0.51340  Biso   1.000  C
  C18      1.0000 0.01790  0.25230  0.43220  Biso   1.000  C
  O19      1.0000 0.88920  0.99010  0.39110  Biso   1.000  O
  O20      1.0000 0.92780  0.11240  0.34270  Biso   1.000  O
  O21      1.0000 0.94020  0.10210  0.47150  Biso   1.000  O
  O22      1.0000 0.10630  0.20760  0.43830  Biso   1.000  O
  O23      1.0000 0.00560  0.33960  0.41690  Biso   1.000  O
  O24      1.0000 0.95600  0.26590  0.54230  Biso   1.000  O
  O25      1.0000 0.91230  0.42410  0.51530  Biso   1.000  O
  H9       1.0000 0.77560  0.14220  0.42070  Biso   1.000  H
  H10      1.0000 0.83460  0.22820  0.39320  Biso   1.000  H
  H11      1.0000 0.79630  0.23090  0.49060  Biso   1.000  H
  H12      1.0000 0.82120  0.32250  0.45940  Biso   1.000  H
  O26      1.0000 0.39500  0.29700  0.42050  Biso   1.000  O
  O27      1.0000 0.35000  0.34400  0.41810  Biso   1.000  O
  Co4      1.0000 0.60566  0.55281  0.95954  Biso   1.000  Co
  C19      1.0000 0.39050  0.58570  0.87880  Biso   1.000  C
  C20      1.0000 0.34250  0.66560  0.90970  Biso   1.000  C
  C21      1.0000 0.41610  0.69520  0.94930  Biso   1.000  C
  C22      1.0000 0.35090  0.77000  0.97750  Biso   1.000  C
  C23      1.0000 0.40850  0.82370  0.01340  Biso   1.000  C
  C24      1.0000 0.51790  0.75230  0.93220  Biso   1.000  C
  O28      1.0000 0.38920  0.49010  0.89110  Biso   1.000  O
  O29      1.0000 0.42780  0.61240  0.84270  Biso   1.000  O
  O30      1.0000 0.44020  0.60210  0.97150  Biso   1.000  O
  O31      1.0000 0.60630  0.70760  0.93830  Biso   1.000  O
  O32      1.0000 0.50560  0.83960  0.91690  Biso   1.000  O
  O33      1.0000 0.45600  0.76590  0.04230  Biso   1.000  O
  O34      1.0000 0.41230  0.92410  0.01530  Biso   1.000  O
  H13      1.0000 0.27560  0.64220  0.92070  Biso   1.000  H
  H14      1.0000 0.33460  0.72820  0.89320  Biso   1.000  H
  H15      1.0000 0.29630  0.73090  0.99060  Biso   1.000  H
  H16      1.0000 0.32120  0.82250  0.95940  Biso   1.000  H
  O35      1.0000 0.89500  0.79700  0.92050  Biso   1.000  O
  O36      1.0000 0.85000  0.84400  0.91810  Biso   1.000  O
  Co5      1.0000 0.94719  0.10566  0.54046  Biso   1.000  Co
  C25      1.0000 0.91430  0.89050  0.62120  Biso   1.000  C
  C26      1.0000 0.83440  0.84250  0.59030  Biso   1.000  C
  C27      1.0000 0.80480  0.91610  0.55070  Biso   1.000  C
  C28      1.0000 0.73000  0.85090  0.52250  Biso   1.000  C
  C29      1.0000 0.67630  0.90850  0.48660  Biso   1.000  C
  C30      1.0000 0.74770  0.01790  0.56780  Biso   1.000  C
  O37      1.0000 0.00990  0.88920  0.60890  Biso   1.000  O
  O38      1.0000 0.88760  0.92780  0.65730  Biso   1.000  O
  O39      1.0000 0.89790  0.94020  0.52850  Biso   1.000  O
  O40      1.0000 0.79240  0.10630  0.56170  Biso   1.000  O
  O41      1.0000 0.66040  0.00560  0.58310  Biso   1.000  O
  O42      1.0000 0.73410  0.95600  0.45770  Biso   1.000  O
  O43      1.0000 0.57590  0.91230  0.48470  Biso   1.000  O
  H17      1.0000 0.85780  0.77560  0.57930  Biso   1.000  H
  H18      1.0000 0.77180  0.83460  0.60680  Biso   1.000  H
  H19      1.0000 0.76910  0.79630  0.50940  Biso   1.000  H
  H20      1.0000 0.67750  0.82120  0.54060  Biso   1.000  H
  O44      1.0000 0.70300  0.39500  0.57950  Biso   1.000  O
  O45      1.0000 0.65600  0.35000  0.58190  Biso   1.000  O
  Co6      1.0000 0.44719  0.60566  0.04046  Biso   1.000  Co
  C31      1.0000 0.41430  0.39050  0.12120  Biso   1.000  C
  C32      1.0000 0.33440  0.34250  0.09030  Biso   1.000  C
  C33      1.0000 0.30480  0.41610  0.05070  Biso   1.000  C
  C34      1.0000 0.23000  0.35090  0.02250  Biso   1.000  C
  C35      1.0000 0.17630  0.40850  0.98660  Biso   1.000  C
  C36      1.0000 0.24770  0.51790  0.06780  Biso   1.000  C
  O46      1.0000 0.50990  0.38920  0.10890  Biso   1.000  O
  O47      1.0000 0.38760  0.42780  0.15730  Biso   1.000  O
  O48      1.0000 0.39790  0.44020  0.02850  Biso   1.000  O
  O49      1.0000 0.29240  0.60630  0.06170  Biso   1.000  O
  O50      1.0000 0.16040  0.50560  0.08310  Biso   1.000  O
  O51      1.0000 0.23410  0.45600  0.95770  Biso   1.000  O
  O52      1.0000 0.07590  0.41230  0.98470  Biso   1.000  O
  H21      1.0000 0.35780  0.27560  0.07930  Biso   1.000  H
  H22      1.0000 0.27180  0.33460  0.10680  Biso   1.000  H
  H23      1.0000 0.26910  0.29630  0.00940  Biso   1.000  H
  H24      1.0000 0.17750  0.32120  0.04060  Biso   1.000  H
  O53      1.0000 0.20300  0.89500  0.07950  Biso   1.000  O
  O54      1.0000 0.15600  0.85000  0.08190  Biso   1.000  O
  Co7      1.0000 0.05281  0.89434  0.54046  Biso   1.000  Co
  C37      1.0000 0.08570  0.10950  0.62120  Biso   1.000  C
  C38      1.0000 0.16560  0.15750  0.59030  Biso   1.000  C
  C39      1.0000 0.19520  0.08390  0.55070  Biso   1.000  C
  C40      1.0000 0.27000  0.14910  0.52250  Biso   1.000  C
  C41      1.0000 0.32370  0.09150  0.48660  Biso   1.000  C
  C42      1.0000 0.25230  0.98210  0.56780  Biso   1.000  C
  O55      1.0000 0.99010  0.11080  0.60890  Biso   1.000  O
  O56      1.0000 0.11240  0.07220  0.65730  Biso   1.000  O
  O57      1.0000 0.10210  0.05980  0.52850  Biso   1.000  O
  O58      1.0000 0.20760  0.89370  0.56170  Biso   1.000  O
  O59      1.0000 0.33960  0.99440  0.58310  Biso   1.000  O
  O60      1.0000 0.26590  0.04400  0.45770  Biso   1.000  O
  O61      1.0000 0.42410  0.08770  0.48470  Biso   1.000  O
  H25      1.0000 0.14220  0.22440  0.57930  Biso   1.000  H
  H26      1.0000 0.22820  0.16540  0.60680  Biso   1.000  H
  H27      1.0000 0.23090  0.20370  0.50940  Biso   1.000  H
  H28      1.0000 0.32250  0.17880  0.54060  Biso   1.000  H
  O62      1.0000 0.29700  0.60500  0.57950  Biso   1.000  O
  O63      1.0000 0.34400  0.65000  0.58190  Biso   1.000  O
  Co8      1.0000 0.55281  0.39434  0.04046  Biso   1.000  Co
  C43      1.0000 0.58570  0.60950  0.12120  Biso   1.000  C
  C44      1.0000 0.66560  0.65750  0.09030  Biso   1.000  C
  C45      1.0000 0.69520  0.58390  0.05070  Biso   1.000  C
  C46      1.0000 0.77000  0.64910  0.02250  Biso   1.000  C
  C47      1.0000 0.82370  0.59150  0.98660  Biso   1.000  C
  C48      1.0000 0.75230  0.48210  0.06780  Biso   1.000  C
  O64      1.0000 0.49010  0.61080  0.10890  Biso   1.000  O
  O65      1.0000 0.61240  0.57220  0.15730  Biso   1.000  O
  O66      1.0000 0.60210  0.55980  0.02850  Biso   1.000  O
  O67      1.0000 0.70760  0.39370  0.06170  Biso   1.000  O
  O68      1.0000 0.83960  0.49440  0.08310  Biso   1.000  O
  O69      1.0000 0.76590  0.54400  0.95770  Biso   1.000  O
  O70      1.0000 0.92410  0.58770  0.98470  Biso   1.000  O
  H29      1.0000 0.64220  0.72440  0.07930  Biso   1.000  H
  H30      1.0000 0.72820  0.66540  0.10680  Biso   1.000  H
  H31      1.0000 0.73090  0.70370  0.00940  Biso   1.000  H
  H32      1.0000 0.82250  0.67880  0.04060  Biso   1.000  H
  O71      1.0000 0.79700  0.10500  0.07950  Biso   1.000  O
  O72      1.0000 0.84400  0.15000  0.08190  Biso   1.000  O
  Co9      1.0000 0.60566  0.94719  0.29046  Biso   1.000  Co
  C49      1.0000 0.39050  0.91430  0.37120  Biso   1.000  C
  C50      1.0000 0.34250  0.83440  0.34030  Biso   1.000  C
  C51      1.0000 0.41610  0.80480  0.30070  Biso   1.000  C
  C52      1.0000 0.35090  0.73000  0.27250  Biso   1.000  C
  C53      1.0000 0.40850  0.67630  0.23660  Biso   1.000  C
  C54      1.0000 0.51790  0.74770  0.31780  Biso   1.000  C
  O73      1.0000 0.38920  0.00990  0.35890  Biso   1.000  O
  O74      1.0000 0.42780  0.88760  0.40730  Biso   1.000  O
  O75      1.0000 0.44020  0.89790  0.27850  Biso   1.000  O
  O76      1.0000 0.60630  0.79240  0.31170  Biso   1.000  O
  O77      1.0000 0.50560  0.66040  0.33310  Biso   1.000  O
  O78      1.0000 0.45600  0.73410  0.20770  Biso   1.000  O
  O79      1.0000 0.41230  0.57590  0.23470  Biso   1.000  O
  H33      1.0000 0.27560  0.85780  0.32930  Biso   1.000  H
  H34      1.0000 0.33460  0.77180  0.35680  Biso   1.000  H
  H35      1.0000 0.29630  0.76910  0.25940  Biso   1.000  H
  H36      1.0000 0.32120  0.67750  0.29060  Biso   1.000  H
  O80      1.0000 0.89500  0.70300  0.32950  Biso   1.000  O
  O81      1.0000 0.85000  0.65600  0.33190  Biso   1.000  O
  Co10     1.0000 0.10566  0.44719  0.79046  Biso   1.000  Co
  C55      1.0000 0.89050  0.41430  0.87120  Biso   1.000  C
  C56      1.0000 0.84250  0.33440  0.84030  Biso   1.000  C
  C57      1.0000 0.91610  0.30480  0.80070  Biso   1.000  C
  C58      1.0000 0.85090  0.23000  0.77250  Biso   1.000  C
  C59      1.0000 0.90850  0.17630  0.73660  Biso   1.000  C
  C60      1.0000 0.01790  0.24770  0.81780  Biso   1.000  C
  O82      1.0000 0.88920  0.50990  0.85890  Biso   1.000  O
  O83      1.0000 0.92780  0.38760  0.90730  Biso   1.000  O
  O84      1.0000 0.94020  0.39790  0.77850  Biso   1.000  O
  O85      1.0000 0.10630  0.29240  0.81170  Biso   1.000  O
  O86      1.0000 0.00560  0.16040  0.83310  Biso   1.000  O
  O87      1.0000 0.95600  0.23410  0.70770  Biso   1.000  O
  O88      1.0000 0.91230  0.07590  0.73470  Biso   1.000  O
  H37      1.0000 0.77560  0.35780  0.82930  Biso   1.000  H
  H38      1.0000 0.83460  0.27180  0.85680  Biso   1.000  H
  H39      1.0000 0.79630  0.26910  0.75940  Biso   1.000  H
  H40      1.0000 0.82120  0.17750  0.79060  Biso   1.000  H
  O89      1.0000 0.39500  0.20300  0.82950  Biso   1.000  O
  O90      1.0000 0.35000  0.15600  0.83190  Biso   1.000  O
  Co11     1.0000 0.39434  0.05281  0.29046  Biso   1.000  Co
  C61      1.0000 0.60950  0.08570  0.37120  Biso   1.000  C
  C62      1.0000 0.65750  0.16560  0.34030  Biso   1.000  C
  C63      1.0000 0.58390  0.19520  0.30070  Biso   1.000  C
  C64      1.0000 0.64910  0.27000  0.27250  Biso   1.000  C
  C65      1.0000 0.59150  0.32370  0.23660  Biso   1.000  C
  C66      1.0000 0.48210  0.25230  0.31780  Biso   1.000  C
  O91      1.0000 0.61080  0.99010  0.35890  Biso   1.000  O
  O92      1.0000 0.57220  0.11240  0.40730  Biso   1.000  O
  O93      1.0000 0.55980  0.10210  0.27850  Biso   1.000  O
  O94      1.0000 0.39370  0.20760  0.31170  Biso   1.000  O
  O95      1.0000 0.49440  0.33960  0.33310  Biso   1.000  O
  O96      1.0000 0.54400  0.26590  0.20770  Biso   1.000  O
  O97      1.0000 0.58770  0.42410  0.23470  Biso   1.000  O
  H41      1.0000 0.72440  0.14220  0.32930  Biso   1.000  H
  H42      1.0000 0.66540  0.22820  0.35680  Biso   1.000  H
  H43      1.0000 0.70370  0.23090  0.25940  Biso   1.000  H
  H44      1.0000 0.67880  0.32250  0.29060  Biso   1.000  H
  O98      1.0000 0.10500  0.29700  0.32950  Biso   1.000  O
  O99      1.0000 0.15000  0.34400  0.33190  Biso   1.000  O
  Co12     1.0000 0.89434  0.55281  0.79046  Biso   1.000  Co
  C67      1.0000 0.10950  0.58570  0.87120  Biso   1.000  C
  C68      1.0000 0.15750  0.66560  0.84030  Biso   1.000  C
  C69      1.0000 0.08390  0.69520  0.80070  Biso   1.000  C
  C70      1.0000 0.14910  0.77000  0.77250  Biso   1.000  C
  C71      1.0000 0.09150  0.82370  0.73660  Biso   1.000  C
  C72      1.0000 0.98210  0.75230  0.81780  Biso   1.000  C
  O100     1.0000 0.11080  0.49010  0.85890  Biso   1.000  O
  O101     1.0000 0.07220  0.61240  0.90730  Biso   1.000  O
  O102     1.0000 0.05980  0.60210  0.77850  Biso   1.000  O
  O103     1.0000 0.89370  0.70760  0.81170  Biso   1.000  O
  O104     1.0000 0.99440  0.83960  0.83310  Biso   1.000  O
  O105     1.0000 0.04400  0.76590  0.70770  Biso   1.000  O
  O106     1.0000 0.08770  0.92410  0.73470  Biso   1.000  O
  H45      1.0000 0.22440  0.64220  0.82930  Biso   1.000  H
  H46      1.0000 0.16540  0.72820  0.85680  Biso   1.000  H
  H47      1.0000 0.20370  0.73090  0.75940  Biso   1.000  H
  H48      1.0000 0.17880  0.82250  0.79060  Biso   1.000  H
  O107     1.0000 0.60500  0.79700  0.82950  Biso   1.000  O
  O108     1.0000 0.65000  0.84400  0.83190  Biso   1.000  O
  Co13     1.0000 0.55281  0.10566  0.20954  Biso   1.000  Co
  C73      1.0000 0.58570  0.89050  0.12880  Biso   1.000  C
  C74      1.0000 0.66560  0.84250  0.15970  Biso   1.000  C
  C75      1.0000 0.69520  0.91610  0.19930  Biso   1.000  C
  C76      1.0000 0.77000  0.85090  0.22750  Biso   1.000  C
  C77      1.0000 0.82370  0.90850  0.26340  Biso   1.000  C
  C78      1.0000 0.75230  0.01790  0.18220  Biso   1.000  C
  O109     1.0000 0.49010  0.88920  0.14110  Biso   1.000  O
  O110     1.0000 0.61240  0.92780  0.09270  Biso   1.000  O
  O111     1.0000 0.60210  0.94020  0.22150  Biso   1.000  O
  O112     1.0000 0.70760  0.10630  0.18830  Biso   1.000  O
  O113     1.0000 0.83960  0.00560  0.16690  Biso   1.000  O
  O114     1.0000 0.76590  0.95600  0.29230  Biso   1.000  O
  O115     1.0000 0.92410  0.91230  0.26530  Biso   1.000  O
  H49      1.0000 0.64220  0.77560  0.17070  Biso   1.000  H
  H50      1.0000 0.72820  0.83460  0.14320  Biso   1.000  H
  H51      1.0000 0.73090  0.79630  0.24060  Biso   1.000  H
  H52      1.0000 0.82250  0.82120  0.20940  Biso   1.000  H
  O116     1.0000 0.79700  0.39500  0.17050  Biso   1.000  O
  O117     1.0000 0.84400  0.35000  0.16810  Biso   1.000  O
  Co14     1.0000 0.05281  0.60566  0.70954  Biso   1.000  Co
  C79      1.0000 0.08570  0.39050  0.62880  Biso   1.000  C
  C80      1.0000 0.16560  0.34250  0.65970  Biso   1.000  C
  C81      1.0000 0.19520  0.41610  0.69930  Biso   1.000  C
  C82      1.0000 0.27000  0.35090  0.72750  Biso   1.000  C
  C83      1.0000 0.32370  0.40850  0.76340  Biso   1.000  C
  C84      1.0000 0.25230  0.51790  0.68220  Biso   1.000  C
  O118     1.0000 0.99010  0.38920  0.64110  Biso   1.000  O
  O119     1.0000 0.11240  0.42780  0.59270  Biso   1.000  O
  O120     1.0000 0.10210  0.44020  0.72150  Biso   1.000  O
  O121     1.0000 0.20760  0.60630  0.68830  Biso   1.000  O
  O122     1.0000 0.33960  0.50560  0.66690  Biso   1.000  O
  O123     1.0000 0.26590  0.45600  0.79230  Biso   1.000  O
  O124     1.0000 0.42410  0.41230  0.76530  Biso   1.000  O
  H53      1.0000 0.14220  0.27560  0.67070  Biso   1.000  H
  H54      1.0000 0.22820  0.33460  0.64320  Biso   1.000  H
  H55      1.0000 0.23090  0.29630  0.74060  Biso   1.000  H
  H56      1.0000 0.32250  0.32120  0.70940  Biso   1.000  H
  O125     1.0000 0.29700  0.89500  0.67050  Biso   1.000  O
  O126     1.0000 0.34400  0.85000  0.66810  Biso   1.000  O
  Co15     1.0000 0.44719  0.89434  0.20954  Biso   1.000  Co
  C85      1.0000 0.41430  0.10950  0.12880  Biso   1.000  C
  C86      1.0000 0.33440  0.15750  0.15970  Biso   1.000  C
  C87      1.0000 0.30480  0.08390  0.19930  Biso   1.000  C
  C88      1.0000 0.23000  0.14910  0.22750  Biso   1.000  C
  C89      1.0000 0.17630  0.09150  0.26340  Biso   1.000  C
  C90      1.0000 0.24770  0.98210  0.18220  Biso   1.000  C
  O127     1.0000 0.50990  0.11080  0.14110  Biso   1.000  O
  O128     1.0000 0.38760  0.07220  0.09270  Biso   1.000  O
  O129     1.0000 0.39790  0.05980  0.22150  Biso   1.000  O
  O130     1.0000 0.29240  0.89370  0.18830  Biso   1.000  O
  O131     1.0000 0.16040  0.99440  0.16690  Biso   1.000  O
  O132     1.0000 0.23410  0.04400  0.29230  Biso   1.000  O
  O133     1.0000 0.07590  0.08770  0.26530  Biso   1.000  O
  H57      1.0000 0.35780  0.22440  0.17070  Biso   1.000  H
  H58      1.0000 0.27180  0.16540  0.14320  Biso   1.000  H
  H59      1.0000 0.26910  0.20370  0.24060  Biso   1.000  H
  H60      1.0000 0.17750  0.17880  0.20940  Biso   1.000  H
  O134     1.0000 0.20300  0.60500  0.17050  Biso   1.000  O
  O135     1.0000 0.15600  0.65000  0.16810  Biso   1.000  O
  Co16     1.0000 0.94719  0.39434  0.70954  Biso   1.000  Co
  C91      1.0000 0.91430  0.60950  0.62880  Biso   1.000  C
  C92      1.0000 0.83440  0.65750  0.65970  Biso   1.000  C
  C93      1.0000 0.80480  0.58390  0.69930  Biso   1.000  C
  C94      1.0000 0.73000  0.64910  0.72750  Biso   1.000  C
  C95      1.0000 0.67630  0.59150  0.76340  Biso   1.000  C
  C96      1.0000 0.74770  0.48210  0.68220  Biso   1.000  C
  O136     1.0000 0.00990  0.61080  0.64110  Biso   1.000  O
  O137     1.0000 0.88760  0.57220  0.59270  Biso   1.000  O
  O138     1.0000 0.89790  0.55980  0.72150  Biso   1.000  O
  O139     1.0000 0.79240  0.39370  0.68830  Biso   1.000  O
  O140     1.0000 0.66040  0.49440  0.66690  Biso   1.000  O
  O141     1.0000 0.73410  0.54400  0.79230  Biso   1.000  O
  O142     1.0000 0.57590  0.58770  0.76530  Biso   1.000  O
  H61      1.0000 0.85780  0.72440  0.67070  Biso   1.000  H
  H62      1.0000 0.77180  0.66540  0.64320  Biso   1.000  H
  H63      1.0000 0.76910  0.70370  0.74060  Biso   1.000  H
  H64      1.0000 0.67750  0.67880  0.70940  Biso   1.000  H
  O143     1.0000 0.70300  0.10500  0.67050  Biso   1.000  O
  O144     1.0000 0.65600  0.15000  0.66810  Biso   1.000  O
  Co17     1.0000 0.00000  0.00000  0.30964  Biso   1.000  Co
  Co18     1.0000 0.50000  0.50000  0.80964  Biso   1.000  Co
  Co19     1.0000 0.00000  0.00000  0.69036  Biso   1.000  Co
  Co20     1.0000 0.50000  0.50000  0.19036  Biso   1.000  Co
  Co21     1.0000 0.50000  0.00000  0.44036  Biso   1.000  Co
  Co22     1.0000 0.00000  0.50000  0.94036  Biso   1.000  Co
  Co23     1.0000 0.50000  0.00000  0.05964  Biso   1.000  Co
  Co24     1.0000 0.00000  0.50000  0.55964  Biso   1.000  Co
  K1       1.0000 0.75000  0.82750  0.37500  Biso   1.000  K
  K2       1.0000 0.25000  0.32750  0.87500  Biso   1.000  K
  K3       1.0000 0.25000  0.17250  0.37500  Biso   1.000  K
  K4       1.0000 0.75000  0.67250  0.87500  Biso   1.000  K
  K5       1.0000 0.82750  0.25000  0.62500  Biso   1.000  K
  K6       1.0000 0.17250  0.75000  0.62500  Biso   1.000  K
  K7       1.0000 0.67250  0.25000  0.12500  Biso   1.000  K
  K8       1.0000 0.32750  0.75000  0.12500  Biso   1.000  K
