data_image0
_cell_length_a       13.0691
_cell_length_b       13.0691
_cell_length_c       30.157
_cell_angle_alpha    90
_cell_angle_beta     90
_cell_angle_gamma    90

_symmetry_space_group_name_H-M    "P 1"
_symmetry_int_tables_number       1

loop_
  _symmetry_equiv_pos_as_xyz
  'x, y, z'

loop_
  _atom_site_label
  _atom_site_occupancy
  _atom_site_fract_x
  _atom_site_fract_y
  _atom_site_fract_z
  _atom_site_thermal_displace_type
  _atom_site_B_iso_or_equiv
  _atom_site_type_symbol
  Co1      1.0000 0.89563  0.95191  0.45963  Biso   1.000  Co
  C1       1.0000 0.10700  0.91720  0.37798  Biso   1.000  C
  C2       1.0000 0.14790  0.83420  0.40768  Biso   1.000  C
  C3       1.0000 0.07800  0.81000  0.44758  Biso   1.000  C
  C4       1.0000 0.13960  0.73340  0.47656  Biso   1.000  C
  C5       1.0000 0.07740  0.68400  0.51328  Biso   1.000  C
  C6       1.0000 0.97770  0.75800  0.43128  Biso   1.000  C
  H1       1.0000 0.21490  0.85760  0.41870  Biso   1.000  H
  H2       1.0000 0.15580  0.77160  0.39110  Biso   1.000  H
  H3       1.0000 0.19420  0.77250  0.48970  Biso   1.000  H
  H4       1.0000 0.16930  0.68090  0.45850  Biso   1.000  H
  O1       1.0000 0.10910  0.00830  0.39036  Biso   1.000  O
  O2       1.0000 0.06910  0.88980  0.34074  Biso   1.000  O
  O3       1.0000 0.05300  0.90080  0.47106  Biso   1.000  O
  O4       1.0000 0.89430  0.80340  0.43758  Biso   1.000  O
  O5       1.0000 0.98650  0.67280  0.41289  Biso   1.000  O
  O6       1.0000 0.03580  0.73820  0.54179  Biso   1.000  O
  O7       1.0000 0.07420  0.58700  0.51393  Biso   1.000  O
  O8       1.0000 0.61210  0.71680  0.42310  Biso   1.000  O
  O9       1.0000 0.64720  0.67810  0.41620  Biso   1.000  O
  Co2      1.0000 0.39563  0.45191  0.95963  Biso   1.000  Co
  C7       1.0000 0.60700  0.41720  0.87798  Biso   1.000  C
  C8       1.0000 0.64790  0.33420  0.90768  Biso   1.000  C
  C9       1.0000 0.57800  0.31000  0.94758  Biso   1.000  C
  C10      1.0000 0.63960  0.23340  0.97656  Biso   1.000  C
  C11      1.0000 0.57740  0.18400  0.01328  Biso   1.000  C
  C12      1.0000 0.47770  0.25800  0.93128  Biso   1.000  C
  H5       1.0000 0.71490  0.35760  0.91870  Biso   1.000  H
  H6       1.0000 0.65580  0.27160  0.89110  Biso   1.000  H
  H7       1.0000 0.69420  0.27250  0.98970  Biso   1.000  H
  H8       1.0000 0.66930  0.18090  0.95850  Biso   1.000  H
  O10      1.0000 0.60910  0.50830  0.89036  Biso   1.000  O
  O11      1.0000 0.56910  0.38980  0.84074  Biso   1.000  O
  O12      1.0000 0.55300  0.40080  0.97106  Biso   1.000  O
  O13      1.0000 0.39430  0.30340  0.93758  Biso   1.000  O
  O14      1.0000 0.48650  0.17280  0.91289  Biso   1.000  O
  O15      1.0000 0.53580  0.23820  0.04179  Biso   1.000  O
  O16      1.0000 0.57420  0.08700  0.01393  Biso   1.000  O
  O17      1.0000 0.11210  0.21680  0.92310  Biso   1.000  O
  O18      1.0000 0.14720  0.17810  0.91620  Biso   1.000  O
  Co3      1.0000 0.10437  0.04809  0.45963  Biso   1.000  Co
  C13      1.0000 0.89300  0.08280  0.37798  Biso   1.000  C
  C14      1.0000 0.85210  0.16580  0.40768  Biso   1.000  C
  C15      1.0000 0.92200  0.19000  0.44758  Biso   1.000  C
  C16      1.0000 0.86040  0.26660  0.47656  Biso   1.000  C
  C17      1.0000 0.92260  0.31600  0.51328  Biso   1.000  C
  C18      1.0000 0.02230  0.24200  0.43128  Biso   1.000  C
  H9       1.0000 0.78510  0.14240  0.41870  Biso   1.000  H
  H10      1.0000 0.84420  0.22840  0.39110  Biso   1.000  H
  H11      1.0000 0.80580  0.22750  0.48970  Biso   1.000  H
  H12      1.0000 0.83070  0.31910  0.45850  Biso   1.000  H
  O19      1.0000 0.89090  0.99170  0.39036  Biso   1.000  O
  O20      1.0000 0.93090  0.11020  0.34074  Biso   1.000  O
  O21      1.0000 0.94700  0.09920  0.47106  Biso   1.000  O
  O22      1.0000 0.10570  0.19660  0.43758  Biso   1.000  O
  O23      1.0000 0.01350  0.32720  0.41289  Biso   1.000  O
  O24      1.0000 0.96420  0.26180  0.54179  Biso   1.000  O
  O25      1.0000 0.92580  0.41300  0.51393  Biso   1.000  O
  O26      1.0000 0.38790  0.28320  0.42310  Biso   1.000  O
  O27      1.0000 0.35280  0.32190  0.41620  Biso   1.000  O
  Co4      1.0000 0.60437  0.54809  0.95963  Biso   1.000  Co
  C19      1.0000 0.39300  0.58280  0.87798  Biso   1.000  C
  C20      1.0000 0.35210  0.66580  0.90768  Biso   1.000  C
  C21      1.0000 0.42200  0.69000  0.94758  Biso   1.000  C
  C22      1.0000 0.36040  0.76660  0.97656  Biso   1.000  C
  C23      1.0000 0.42260  0.81600  0.01328  Biso   1.000  C
  C24      1.0000 0.52230  0.74200  0.93128  Biso   1.000  C
  H13      1.0000 0.28510  0.64240  0.91870  Biso   1.000  H
  H14      1.0000 0.34420  0.72840  0.89110  Biso   1.000  H
  H15      1.0000 0.30580  0.72750  0.98970  Biso   1.000  H
  H16      1.0000 0.33070  0.81910  0.95850  Biso   1.000  H
  O28      1.0000 0.39090  0.49170  0.89036  Biso   1.000  O
  O29      1.0000 0.43090  0.61020  0.84074  Biso   1.000  O
  O30      1.0000 0.44700  0.59920  0.97106  Biso   1.000  O
  O31      1.0000 0.60570  0.69660  0.93758  Biso   1.000  O
  O32      1.0000 0.51350  0.82720  0.91289  Biso   1.000  O
  O33      1.0000 0.46420  0.76180  0.04179  Biso   1.000  O
  O34      1.0000 0.42580  0.91300  0.01393  Biso   1.000  O
  O35      1.0000 0.88790  0.78320  0.92310  Biso   1.000  O
  O36      1.0000 0.85280  0.82190  0.91620  Biso   1.000  O
  Co5      1.0000 0.95191  0.10437  0.54037  Biso   1.000  Co
  C25      1.0000 0.91720  0.89300  0.62202  Biso   1.000  C
  C26      1.0000 0.83420  0.85210  0.59232  Biso   1.000  C
  C27      1.0000 0.81000  0.92200  0.55242  Biso   1.000  C
  C28      1.0000 0.73340  0.86040  0.52344  Biso   1.000  C
  C29      1.0000 0.68400  0.92260  0.48672  Biso   1.000  C
  C30      1.0000 0.75800  0.02230  0.56872  Biso   1.000  C
  H17      1.0000 0.85760  0.78510  0.58130  Biso   1.000  H
  H18      1.0000 0.77160  0.84420  0.60890  Biso   1.000  H
  H19      1.0000 0.77250  0.80580  0.51030  Biso   1.000  H
  H20      1.0000 0.68090  0.83070  0.54150  Biso   1.000  H
  O37      1.0000 0.00830  0.89090  0.60964  Biso   1.000  O
  O38      1.0000 0.88980  0.93090  0.65926  Biso   1.000  O
  O39      1.0000 0.90080  0.94700  0.52894  Biso   1.000  O
  O40      1.0000 0.80340  0.10570  0.56242  Biso   1.000  O
  O41      1.0000 0.67280  0.01350  0.58711  Biso   1.000  O
  O42      1.0000 0.73820  0.96420  0.45821  Biso   1.000  O
  O43      1.0000 0.58700  0.92580  0.48607  Biso   1.000  O
  O44      1.0000 0.71680  0.38790  0.57690  Biso   1.000  O
  O45      1.0000 0.67810  0.35280  0.58380  Biso   1.000  O
  Co6      1.0000 0.45191  0.60437  0.04037  Biso   1.000  Co
  C31      1.0000 0.41720  0.39300  0.12202  Biso   1.000  C
  C32      1.0000 0.33420  0.35210  0.09232  Biso   1.000  C
  C33      1.0000 0.31000  0.42200  0.05242  Biso   1.000  C
  C34      1.0000 0.23340  0.36040  0.02344  Biso   1.000  C
  C35      1.0000 0.18400  0.42260  0.98672  Biso   1.000  C
  C36      1.0000 0.25800  0.52230  0.06872  Biso   1.000  C
  H21      1.0000 0.35760  0.28510  0.08130  Biso   1.000  H
  H22      1.0000 0.27160  0.34420  0.10890  Biso   1.000  H
  H23      1.0000 0.27250  0.30580  0.01030  Biso   1.000  H
  H24      1.0000 0.18090  0.33070  0.04150  Biso   1.000  H
  O46      1.0000 0.50830  0.39090  0.10964  Biso   1.000  O
  O47      1.0000 0.38980  0.43090  0.15926  Biso   1.000  O
  O48      1.0000 0.40080  0.44700  0.02894  Biso   1.000  O
  O49      1.0000 0.30340  0.60570  0.06242  Biso   1.000  O
  O50      1.0000 0.17280  0.51350  0.08711  Biso   1.000  O
  O51      1.0000 0.23820  0.46420  0.95821  Biso   1.000  O
  O52      1.0000 0.08700  0.42580  0.98607  Biso   1.000  O
  O53      1.0000 0.21680  0.88790  0.07690  Biso   1.000  O
  O54      1.0000 0.17810  0.85280  0.08380  Biso   1.000  O
  Co7      1.0000 0.04809  0.89563  0.54037  Biso   1.000  Co
  C37      1.0000 0.08280  0.10700  0.62202  Biso   1.000  C
  C38      1.0000 0.16580  0.14790  0.59232  Biso   1.000  C
  C39      1.0000 0.19000  0.07800  0.55242  Biso   1.000  C
  C40      1.0000 0.26660  0.13960  0.52344  Biso   1.000  C
  C41      1.0000 0.31600  0.07740  0.48672  Biso   1.000  C
  C42      1.0000 0.24200  0.97770  0.56872  Biso   1.000  C
  H25      1.0000 0.14240  0.21490  0.58130  Biso   1.000  H
  H26      1.0000 0.22840  0.15580  0.60890  Biso   1.000  H
  H27      1.0000 0.22750  0.19420  0.51030  Biso   1.000  H
  H28      1.0000 0.31910  0.16930  0.54150  Biso   1.000  H
  O55      1.0000 0.99170  0.10910  0.60964  Biso   1.000  O
  O56      1.0000 0.11020  0.06910  0.65926  Biso   1.000  O
  O57      1.0000 0.09920  0.05300  0.52894  Biso   1.000  O
  O58      1.0000 0.19660  0.89430  0.56242  Biso   1.000  O
  O59      1.0000 0.32720  0.98650  0.58711  Biso   1.000  O
  O60      1.0000 0.26180  0.03580  0.45821  Biso   1.000  O
  O61      1.0000 0.41300  0.07420  0.48607  Biso   1.000  O
  O62      1.0000 0.28320  0.61210  0.57690  Biso   1.000  O
  O63      1.0000 0.32190  0.64720  0.58380  Biso   1.000  O
  Co8      1.0000 0.54809  0.39563  0.04037  Biso   1.000  Co
  C43      1.0000 0.58280  0.60700  0.12202  Biso   1.000  C
  C44      1.0000 0.66580  0.64790  0.09232  Biso   1.000  C
  C45      1.0000 0.69000  0.57800  0.05242  Biso   1.000  C
  C46      1.0000 0.76660  0.63960  0.02344  Biso   1.000  C
  C47      1.0000 0.81600  0.57740  0.98672  Biso   1.000  C
  C48      1.0000 0.74200  0.47770  0.06872  Biso   1.000  C
  H29      1.0000 0.64240  0.71490  0.08130  Biso   1.000  H
  H30      1.0000 0.72840  0.65580  0.10890  Biso   1.000  H
  H31      1.0000 0.72750  0.69420  0.01030  Biso   1.000  H
  H32      1.0000 0.81910  0.66930  0.04150  Biso   1.000  H
  O64      1.0000 0.49170  0.60910  0.10964  Biso   1.000  O
  O65      1.0000 0.61020  0.56910  0.15926  Biso   1.000  O
  O66      1.0000 0.59920  0.55300  0.02894  Biso   1.000  O
  O67      1.0000 0.69660  0.39430  0.06242  Biso   1.000  O
  O68      1.0000 0.82720  0.48650  0.08711  Biso   1.000  O
  O69      1.0000 0.76180  0.53580  0.95821  Biso   1.000  O
  O70      1.0000 0.91300  0.57420  0.98607  Biso   1.000  O
  O71      1.0000 0.78320  0.11210  0.07690  Biso   1.000  O
  O72      1.0000 0.82190  0.14720  0.08380  Biso   1.000  O
  Co9      1.0000 0.60437  0.95191  0.29037  Biso   1.000  Co
  C49      1.0000 0.39300  0.91720  0.37202  Biso   1.000  C
  C50      1.0000 0.35210  0.83420  0.34232  Biso   1.000  C
  C51      1.0000 0.42200  0.81000  0.30242  Biso   1.000  C
  C52      1.0000 0.36040  0.73340  0.27344  Biso   1.000  C
  C53      1.0000 0.42260  0.68400  0.23672  Biso   1.000  C
  C54      1.0000 0.52230  0.75800  0.31872  Biso   1.000  C
  H33      1.0000 0.28510  0.85760  0.33130  Biso   1.000  H
  H34      1.0000 0.34420  0.77160  0.35890  Biso   1.000  H
  H35      1.0000 0.30580  0.77250  0.26030  Biso   1.000  H
  H36      1.0000 0.33070  0.68090  0.29150  Biso   1.000  H
  O73      1.0000 0.39090  0.00830  0.35964  Biso   1.000  O
  O74      1.0000 0.43090  0.88980  0.40926  Biso   1.000  O
  O75      1.0000 0.44700  0.90080  0.27894  Biso   1.000  O
  O76      1.0000 0.60570  0.80340  0.31242  Biso   1.000  O
  O77      1.0000 0.51350  0.67280  0.33711  Biso   1.000  O
  O78      1.0000 0.46420  0.73820  0.20821  Biso   1.000  O
  O79      1.0000 0.42580  0.58700  0.23607  Biso   1.000  O
  O80      1.0000 0.88790  0.71680  0.32690  Biso   1.000  O
  O81      1.0000 0.85280  0.67810  0.33380  Biso   1.000  O
  Co10     1.0000 0.10437  0.45191  0.79037  Biso   1.000  Co
  C55      1.0000 0.89300  0.41720  0.87202  Biso   1.000  C
  C56      1.0000 0.85210  0.33420  0.84232  Biso   1.000  C
  C57      1.0000 0.92200  0.31000  0.80242  Biso   1.000  C
  C58      1.0000 0.86040  0.23340  0.77344  Biso   1.000  C
  C59      1.0000 0.92260  0.18400  0.73672  Biso   1.000  C
  C60      1.0000 0.02230  0.25800  0.81872  Biso   1.000  C
  H37      1.0000 0.78510  0.35760  0.83130  Biso   1.000  H
  H38      1.0000 0.84420  0.27160  0.85890  Biso   1.000  H
  H39      1.0000 0.80580  0.27250  0.76030  Biso   1.000  H
  H40      1.0000 0.83070  0.18090  0.79150  Biso   1.000  H
  O82      1.0000 0.89090  0.50830  0.85964  Biso   1.000  O
  O83      1.0000 0.93090  0.38980  0.90926  Biso   1.000  O
  O84      1.0000 0.94700  0.40080  0.77894  Biso   1.000  O
  O85      1.0000 0.10570  0.30340  0.81242  Biso   1.000  O
  O86      1.0000 0.01350  0.17280  0.83711  Biso   1.000  O
  O87      1.0000 0.96420  0.23820  0.70821  Biso   1.000  O
  O88      1.0000 0.92580  0.08700  0.73607  Biso   1.000  O
  O89      1.0000 0.38790  0.21680  0.82690  Biso   1.000  O
  O90      1.0000 0.35280  0.17810  0.83380  Biso   1.000  O
  Co11     1.0000 0.39563  0.04809  0.29037  Biso   1.000  Co
  C61      1.0000 0.60700  0.08280  0.37202  Biso   1.000  C
  C62      1.0000 0.64790  0.16580  0.34232  Biso   1.000  C
  C63      1.0000 0.57800  0.19000  0.30242  Biso   1.000  C
  C64      1.0000 0.63960  0.26660  0.27344  Biso   1.000  C
  C65      1.0000 0.57740  0.31600  0.23672  Biso   1.000  C
  C66      1.0000 0.47770  0.24200  0.31872  Biso   1.000  C
  H41      1.0000 0.71490  0.14240  0.33130  Biso   1.000  H
  H42      1.0000 0.65580  0.22840  0.35890  Biso   1.000  H
  H43      1.0000 0.69420  0.22750  0.26030  Biso   1.000  H
  H44      1.0000 0.66930  0.31910  0.29150  Biso   1.000  H
  O91      1.0000 0.60910  0.99170  0.35964  Biso   1.000  O
  O92      1.0000 0.56910  0.11020  0.40926  Biso   1.000  O
  O93      1.0000 0.55300  0.09920  0.27894  Biso   1.000  O
  O94      1.0000 0.39430  0.19660  0.31242  Biso   1.000  O
  O95      1.0000 0.48650  0.32720  0.33711  Biso   1.000  O
  O96      1.0000 0.53580  0.26180  0.20821  Biso   1.000  O
  O97      1.0000 0.57420  0.41300  0.23607  Biso   1.000  O
  O98      1.0000 0.11210  0.28320  0.32690  Biso   1.000  O
  O99      1.0000 0.14720  0.32190  0.33380  Biso   1.000  O
  Co12     1.0000 0.89563  0.54809  0.79037  Biso   1.000  Co
  C67      1.0000 0.10700  0.58280  0.87202  Biso   1.000  C
  C68      1.0000 0.14790  0.66580  0.84232  Biso   1.000  C
  C69      1.0000 0.07800  0.69000  0.80242  Biso   1.000  C
  C70      1.0000 0.13960  0.76660  0.77344  Biso   1.000  C
  C71      1.0000 0.07740  0.81600  0.73672  Biso   1.000  C
  C72      1.0000 0.97770  0.74200  0.81872  Biso   1.000  C
  H45      1.0000 0.21490  0.64240  0.83130  Biso   1.000  H
  H46      1.0000 0.15580  0.72840  0.85890  Biso   1.000  H
  H47      1.0000 0.19420  0.72750  0.76030  Biso   1.000  H
  H48      1.0000 0.16930  0.81910  0.79150  Biso   1.000  H
  O100     1.0000 0.10910  0.49170  0.85964  Biso   1.000  O
  O101     1.0000 0.06910  0.61020  0.90926  Biso   1.000  O
  O102     1.0000 0.05300  0.59920  0.77894  Biso   1.000  O
  O103     1.0000 0.89430  0.69660  0.81242  Biso   1.000  O
  O104     1.0000 0.98650  0.82720  0.83711  Biso   1.000  O
  O105     1.0000 0.03580  0.76180  0.70821  Biso   1.000  O
  O106     1.0000 0.07420  0.91300  0.73607  Biso   1.000  O
  O107     1.0000 0.61210  0.78320  0.82690  Biso   1.000  O
  O108     1.0000 0.64720  0.82190  0.83380  Biso   1.000  O
  Co13     1.0000 0.54809  0.10437  0.20963  Biso   1.000  Co
  C73      1.0000 0.58280  0.89300  0.12798  Biso   1.000  C
  C74      1.0000 0.66580  0.85210  0.15768  Biso   1.000  C
  C75      1.0000 0.69000  0.92200  0.19758  Biso   1.000  C
  C76      1.0000 0.76660  0.86040  0.22656  Biso   1.000  C
  C77      1.0000 0.81600  0.92260  0.26328  Biso   1.000  C
  C78      1.0000 0.74200  0.02230  0.18128  Biso   1.000  C
  H49      1.0000 0.64240  0.78510  0.16870  Biso   1.000  H
  H50      1.0000 0.72840  0.84420  0.14110  Biso   1.000  H
  H51      1.0000 0.72750  0.80580  0.23970  Biso   1.000  H
  H52      1.0000 0.81910  0.83070  0.20850  Biso   1.000  H
  O109     1.0000 0.49170  0.89090  0.14036  Biso   1.000  O
  O110     1.0000 0.61020  0.93090  0.09074  Biso   1.000  O
  O111     1.0000 0.59920  0.94700  0.22106  Biso   1.000  O
  O112     1.0000 0.69660  0.10570  0.18758  Biso   1.000  O
  O113     1.0000 0.82720  0.01350  0.16289  Biso   1.000  O
  O114     1.0000 0.76180  0.96420  0.29179  Biso   1.000  O
  O115     1.0000 0.91300  0.92580  0.26393  Biso   1.000  O
  O116     1.0000 0.78320  0.38790  0.17310  Biso   1.000  O
  O117     1.0000 0.82190  0.35280  0.16620  Biso   1.000  O
  Co14     1.0000 0.04809  0.60437  0.70963  Biso   1.000  Co
  C79      1.0000 0.08280  0.39300  0.62798  Biso   1.000  C
  C80      1.0000 0.16580  0.35210  0.65768  Biso   1.000  C
  C81      1.0000 0.19000  0.42200  0.69758  Biso   1.000  C
  C82      1.0000 0.26660  0.36040  0.72656  Biso   1.000  C
  C83      1.0000 0.31600  0.42260  0.76328  Biso   1.000  C
  C84      1.0000 0.24200  0.52230  0.68128  Biso   1.000  C
  H53      1.0000 0.14240  0.28510  0.66870  Biso   1.000  H
  H54      1.0000 0.22840  0.34420  0.64110  Biso   1.000  H
  H55      1.0000 0.22750  0.30580  0.73970  Biso   1.000  H
  H56      1.0000 0.31910  0.33070  0.70850  Biso   1.000  H
  O118     1.0000 0.99170  0.39090  0.64036  Biso   1.000  O
  O119     1.0000 0.11020  0.43090  0.59074  Biso   1.000  O
  O120     1.0000 0.09920  0.44700  0.72106  Biso   1.000  O
  O121     1.0000 0.19660  0.60570  0.68758  Biso   1.000  O
  O122     1.0000 0.32720  0.51350  0.66289  Biso   1.000  O
  O123     1.0000 0.26180  0.46420  0.79179  Biso   1.000  O
  O124     1.0000 0.41300  0.42580  0.76393  Biso   1.000  O
  O125     1.0000 0.28320  0.88790  0.67310  Biso   1.000  O
  O126     1.0000 0.32190  0.85280  0.66620  Biso   1.000  O
  Co15     1.0000 0.45191  0.89563  0.20963  Biso   1.000  Co
  C85      1.0000 0.41720  0.10700  0.12798  Biso   1.000  C
  C86      1.0000 0.33420  0.14790  0.15768  Biso   1.000  C
  C87      1.0000 0.31000  0.07800  0.19758  Biso   1.000  C
  C88      1.0000 0.23340  0.13960  0.22656  Biso   1.000  C
  C89      1.0000 0.18400  0.07740  0.26328  Biso   1.000  C
  C90      1.0000 0.25800  0.97770  0.18128  Biso   1.000  C
  H57      1.0000 0.35760  0.21490  0.16870  Biso   1.000  H
  H58      1.0000 0.27160  0.15580  0.14110  Biso   1.000  H
  H59      1.0000 0.27250  0.19420  0.23970  Biso   1.000  H
  H60      1.0000 0.18090  0.16930  0.20850  Biso   1.000  H
  O127     1.0000 0.50830  0.10910  0.14036  Biso   1.000  O
  O128     1.0000 0.38980  0.06910  0.09074  Biso   1.000  O
  O129     1.0000 0.40080  0.05300  0.22106  Biso   1.000  O
  O130     1.0000 0.30340  0.89430  0.18758  Biso   1.000  O
  O131     1.0000 0.17280  0.98650  0.16289  Biso   1.000  O
  O132     1.0000 0.23820  0.03580  0.29179  Biso   1.000  O
  O133     1.0000 0.08700  0.07420  0.26393  Biso   1.000  O
  O134     1.0000 0.21680  0.61210  0.17310  Biso   1.000  O
  O135     1.0000 0.17810  0.64720  0.16620  Biso   1.000  O
  Co16     1.0000 0.95191  0.39563  0.70963  Biso   1.000  Co
  C91      1.0000 0.91720  0.60700  0.62798  Biso   1.000  C
  C92      1.0000 0.83420  0.64790  0.65768  Biso   1.000  C
  C93      1.0000 0.81000  0.57800  0.69758  Biso   1.000  C
  C94      1.0000 0.73340  0.63960  0.72656  Biso   1.000  C
  C95      1.0000 0.68400  0.57740  0.76328  Biso   1.000  C
  C96      1.0000 0.75800  0.47770  0.68128  Biso   1.000  C
  H61      1.0000 0.85760  0.71490  0.66870  Biso   1.000  H
  H62      1.0000 0.77160  0.65580  0.64110  Biso   1.000  H
  H63      1.0000 0.77250  0.69420  0.73970  Biso   1.000  H
  H64      1.0000 0.68090  0.66930  0.70850  Biso   1.000  H
  O136     1.0000 0.00830  0.60910  0.64036  Biso   1.000  O
  O137     1.0000 0.88980  0.56910  0.59074  Biso   1.000  O
  O138     1.0000 0.90080  0.55300  0.72106  Biso   1.000  O
  O139     1.0000 0.80340  0.39430  0.68758  Biso   1.000  O
  O140     1.0000 0.67280  0.48650  0.66289  Biso   1.000  O
  O141     1.0000 0.73820  0.53580  0.79179  Biso   1.000  O
  O142     1.0000 0.58700  0.57420  0.76393  Biso   1.000  O
  O143     1.0000 0.71680  0.11210  0.67310  Biso   1.000  O
  O144     1.0000 0.67810  0.14720  0.66620  Biso   1.000  O
  Co17     1.0000 0.00000  0.00000  0.30727  Biso   1.000  Co
  Co18     1.0000 0.50000  0.50000  0.80727  Biso   1.000  Co
  Co19     1.0000 0.00000  0.00000  0.69273  Biso   1.000  Co
  Co20     1.0000 0.50000  0.50000  0.19273  Biso   1.000  Co
  Co21     1.0000 0.50000  0.00000  0.44273  Biso   1.000  Co
  Co22     1.0000 0.00000  0.50000  0.94273  Biso   1.000  Co
  Co23     1.0000 0.50000  0.00000  0.05727  Biso   1.000  Co
  Co24     1.0000 0.00000  0.50000  0.55727  Biso   1.000  Co
  K1       1.0000 0.75000  0.83937  0.37500  Biso   1.000  K
  K2       1.0000 0.25000  0.33937  0.87500  Biso   1.000  K
  K3       1.0000 0.25000  0.16063  0.37500  Biso   1.000  K
  K4       1.0000 0.75000  0.66063  0.87500  Biso   1.000  K
  K5       1.0000 0.83937  0.25000  0.62500  Biso   1.000  K
  K6       1.0000 0.16063  0.75000  0.62500  Biso   1.000  K
  K7       1.0000 0.66063  0.25000  0.12500  Biso   1.000  K
  K8       1.0000 0.33937  0.75000  0.12500  Biso   1.000  K
