data_image0
_cell_length_a       12.8201
_cell_length_b       12.8201
_cell_length_c       30.2685
_cell_angle_alpha    90
_cell_angle_beta     90
_cell_angle_gamma    90

_symmetry_space_group_name_H-M    "P 1"
_symmetry_int_tables_number       1

loop_
  _symmetry_equiv_pos_as_xyz
  'x, y, z'

loop_
  _atom_site_label
  _atom_site_occupancy
  _atom_site_fract_x
  _atom_site_fract_y
  _atom_site_fract_z
  _atom_site_thermal_displace_type
  _atom_site_B_iso_or_equiv
  _atom_site_type_symbol
  Co1      1.0000 0.89500  0.94950  0.45963  Biso   1.000  Co
  C1       1.0000 0.10710  0.91560  0.37820  Biso   1.000  C
  C2       1.0000 0.15030  0.83400  0.40870  Biso   1.000  C
  C3       1.0000 0.08130  0.80720  0.44900  Biso   1.000  C
  C4       1.0000 0.14630  0.73200  0.47650  Biso   1.000  C
  C5       1.0000 0.08530  0.68050  0.51350  Biso   1.000  C
  C6       1.0000 0.98070  0.75110  0.43300  Biso   1.000  C
  O1       1.0000 0.11100  0.01010  0.39072  Biso   1.000  O
  O2       1.0000 0.07110  0.88860  0.34170  Biso   1.000  O
  O3       1.0000 0.05580  0.90020  0.47109  Biso   1.000  O
  O4       1.0000 0.89480  0.79710  0.43820  Biso   1.000  O
  O5       1.0000 0.99190  0.66590  0.41550  Biso   1.000  O
  O6       1.0000 0.03960  0.73450  0.54210  Biso   1.000  O
  O7       1.0000 0.08210  0.58130  0.51480  Biso   1.000  O
  H1       1.0000 0.21580  0.85800  0.41930  Biso   1.000  H
  H2       1.0000 0.16020  0.77200  0.39200  Biso   1.000  H
  H3       1.0000 0.20200  0.77050  0.48930  Biso   1.000  H
  H4       1.0000 0.17380  0.67930  0.45780  Biso   1.000  H
  O8       1.0000 0.60300  0.70800  0.42380  Biso   1.000  O
  O9       1.0000 0.64800  0.66200  0.41600  Biso   1.000  O
  Co2      1.0000 0.39500  0.44950  0.95963  Biso   1.000  Co
  C7       1.0000 0.60710  0.41560  0.87820  Biso   1.000  C
  C8       1.0000 0.65030  0.33400  0.90870  Biso   1.000  C
  C9       1.0000 0.58130  0.30720  0.94900  Biso   1.000  C
  C10      1.0000 0.64630  0.23200  0.97650  Biso   1.000  C
  C11      1.0000 0.58530  0.18050  0.01350  Biso   1.000  C
  C12      1.0000 0.48070  0.25110  0.93300  Biso   1.000  C
  O10      1.0000 0.61100  0.51010  0.89072  Biso   1.000  O
  O11      1.0000 0.57110  0.38860  0.84170  Biso   1.000  O
  O12      1.0000 0.55580  0.40020  0.97109  Biso   1.000  O
  O13      1.0000 0.39480  0.29710  0.93820  Biso   1.000  O
  O14      1.0000 0.49190  0.16590  0.91550  Biso   1.000  O
  O15      1.0000 0.53960  0.23450  0.04210  Biso   1.000  O
  O16      1.0000 0.58210  0.08130  0.01480  Biso   1.000  O
  H5       1.0000 0.71580  0.35800  0.91930  Biso   1.000  H
  H6       1.0000 0.66020  0.27200  0.89200  Biso   1.000  H
  H7       1.0000 0.70200  0.27050  0.98930  Biso   1.000  H
  H8       1.0000 0.67380  0.17930  0.95780  Biso   1.000  H
  O17      1.0000 0.10300  0.20800  0.92380  Biso   1.000  O
  O18      1.0000 0.14800  0.16200  0.91600  Biso   1.000  O
  Co3      1.0000 0.10500  0.05050  0.45963  Biso   1.000  Co
  C13      1.0000 0.89290  0.08440  0.37820  Biso   1.000  C
  C14      1.0000 0.84970  0.16600  0.40870  Biso   1.000  C
  C15      1.0000 0.91870  0.19280  0.44900  Biso   1.000  C
  C16      1.0000 0.85370  0.26800  0.47650  Biso   1.000  C
  C17      1.0000 0.91470  0.31950  0.51350  Biso   1.000  C
  C18      1.0000 0.01930  0.24890  0.43300  Biso   1.000  C
  O19      1.0000 0.88900  0.98990  0.39072  Biso   1.000  O
  O20      1.0000 0.92890  0.11140  0.34170  Biso   1.000  O
  O21      1.0000 0.94420  0.09980  0.47109  Biso   1.000  O
  O22      1.0000 0.10520  0.20290  0.43820  Biso   1.000  O
  O23      1.0000 0.00810  0.33410  0.41550  Biso   1.000  O
  O24      1.0000 0.96040  0.26550  0.54210  Biso   1.000  O
  O25      1.0000 0.91790  0.41870  0.51480  Biso   1.000  O
  H9       1.0000 0.78420  0.14200  0.41930  Biso   1.000  H
  H10      1.0000 0.83980  0.22800  0.39200  Biso   1.000  H
  H11      1.0000 0.79800  0.22950  0.48930  Biso   1.000  H
  H12      1.0000 0.82620  0.32070  0.45780  Biso   1.000  H
  O26      1.0000 0.39700  0.29200  0.42380  Biso   1.000  O
  O27      1.0000 0.35200  0.33800  0.41600  Biso   1.000  O
  Co4      1.0000 0.60500  0.55050  0.95963  Biso   1.000  Co
  C19      1.0000 0.39290  0.58440  0.87820  Biso   1.000  C
  C20      1.0000 0.34970  0.66600  0.90870  Biso   1.000  C
  C21      1.0000 0.41870  0.69280  0.94900  Biso   1.000  C
  C22      1.0000 0.35370  0.76800  0.97650  Biso   1.000  C
  C23      1.0000 0.41470  0.81950  0.01350  Biso   1.000  C
  C24      1.0000 0.51930  0.74890  0.93300  Biso   1.000  C
  O28      1.0000 0.38900  0.48990  0.89072  Biso   1.000  O
  O29      1.0000 0.42890  0.61140  0.84170  Biso   1.000  O
  O30      1.0000 0.44420  0.59980  0.97109  Biso   1.000  O
  O31      1.0000 0.60520  0.70290  0.93820  Biso   1.000  O
  O32      1.0000 0.50810  0.83410  0.91550  Biso   1.000  O
  O33      1.0000 0.46040  0.76550  0.04210  Biso   1.000  O
  O34      1.0000 0.41790  0.91870  0.01480  Biso   1.000  O
  H13      1.0000 0.28420  0.64200  0.91930  Biso   1.000  H
  H14      1.0000 0.33980  0.72800  0.89200  Biso   1.000  H
  H15      1.0000 0.29800  0.72950  0.98930  Biso   1.000  H
  H16      1.0000 0.32620  0.82070  0.95780  Biso   1.000  H
  O35      1.0000 0.89700  0.79200  0.92380  Biso   1.000  O
  O36      1.0000 0.85200  0.83800  0.91600  Biso   1.000  O
  Co5      1.0000 0.94950  0.10500  0.54037  Biso   1.000  Co
  C25      1.0000 0.91560  0.89290  0.62180  Biso   1.000  C
  C26      1.0000 0.83400  0.84970  0.59130  Biso   1.000  C
  C27      1.0000 0.80720  0.91870  0.55100  Biso   1.000  C
  C28      1.0000 0.73200  0.85370  0.52350  Biso   1.000  C
  C29      1.0000 0.68050  0.91470  0.48650  Biso   1.000  C
  C30      1.0000 0.75110  0.01930  0.56700  Biso   1.000  C
  O37      1.0000 0.01010  0.88900  0.60928  Biso   1.000  O
  O38      1.0000 0.88860  0.92890  0.65830  Biso   1.000  O
  O39      1.0000 0.90020  0.94420  0.52891  Biso   1.000  O
  O40      1.0000 0.79710  0.10520  0.56180  Biso   1.000  O
  O41      1.0000 0.66590  0.00810  0.58450  Biso   1.000  O
  O42      1.0000 0.73450  0.96040  0.45790  Biso   1.000  O
  O43      1.0000 0.58130  0.91790  0.48520  Biso   1.000  O
  H17      1.0000 0.85800  0.78420  0.58070  Biso   1.000  H
  H18      1.0000 0.77200  0.83980  0.60800  Biso   1.000  H
  H19      1.0000 0.77050  0.79800  0.51070  Biso   1.000  H
  H20      1.0000 0.67930  0.82620  0.54220  Biso   1.000  H
  O44      1.0000 0.70800  0.39700  0.57620  Biso   1.000  O
  O45      1.0000 0.66200  0.35200  0.58400  Biso   1.000  O
  Co6      1.0000 0.44950  0.60500  0.04037  Biso   1.000  Co
  C31      1.0000 0.41560  0.39290  0.12180  Biso   1.000  C
  C32      1.0000 0.33400  0.34970  0.09130  Biso   1.000  C
  C33      1.0000 0.30720  0.41870  0.05100  Biso   1.000  C
  C34      1.0000 0.23200  0.35370  0.02350  Biso   1.000  C
  C35      1.0000 0.18050  0.41470  0.98650  Biso   1.000  C
  C36      1.0000 0.25110  0.51930  0.06700  Biso   1.000  C
  O46      1.0000 0.51010  0.38900  0.10928  Biso   1.000  O
  O47      1.0000 0.38860  0.42890  0.15830  Biso   1.000  O
  O48      1.0000 0.40020  0.44420  0.02891  Biso   1.000  O
  O49      1.0000 0.29710  0.60520  0.06180  Biso   1.000  O
  O50      1.0000 0.16590  0.50810  0.08450  Biso   1.000  O
  O51      1.0000 0.23450  0.46040  0.95790  Biso   1.000  O
  O52      1.0000 0.08130  0.41790  0.98520  Biso   1.000  O
  H21      1.0000 0.35800  0.28420  0.08070  Biso   1.000  H
  H22      1.0000 0.27200  0.33980  0.10800  Biso   1.000  H
  H23      1.0000 0.27050  0.29800  0.01070  Biso   1.000  H
  H24      1.0000 0.17930  0.32620  0.04220  Biso   1.000  H
  O53      1.0000 0.20800  0.89700  0.07620  Biso   1.000  O
  O54      1.0000 0.16200  0.85200  0.08400  Biso   1.000  O
  Co7      1.0000 0.05050  0.89500  0.54037  Biso   1.000  Co
  C37      1.0000 0.08440  0.10710  0.62180  Biso   1.000  C
  C38      1.0000 0.16600  0.15030  0.59130  Biso   1.000  C
  C39      1.0000 0.19280  0.08130  0.55100  Biso   1.000  C
  C40      1.0000 0.26800  0.14630  0.52350  Biso   1.000  C
  C41      1.0000 0.31950  0.08530  0.48650  Biso   1.000  C
  C42      1.0000 0.24890  0.98070  0.56700  Biso   1.000  C
  O55      1.0000 0.98990  0.11100  0.60928  Biso   1.000  O
  O56      1.0000 0.11140  0.07110  0.65830  Biso   1.000  O
  O57      1.0000 0.09980  0.05580  0.52891  Biso   1.000  O
  O58      1.0000 0.20290  0.89480  0.56180  Biso   1.000  O
  O59      1.0000 0.33410  0.99190  0.58450  Biso   1.000  O
  O60      1.0000 0.26550  0.03960  0.45790  Biso   1.000  O
  O61      1.0000 0.41870  0.08210  0.48520  Biso   1.000  O
  H25      1.0000 0.14200  0.21580  0.58070  Biso   1.000  H
  H26      1.0000 0.22800  0.16020  0.60800  Biso   1.000  H
  H27      1.0000 0.22950  0.20200  0.51070  Biso   1.000  H
  H28      1.0000 0.32070  0.17380  0.54220  Biso   1.000  H
  O62      1.0000 0.29200  0.60300  0.57620  Biso   1.000  O
  O63      1.0000 0.33800  0.64800  0.58400  Biso   1.000  O
  Co8      1.0000 0.55050  0.39500  0.04037  Biso   1.000  Co
  C43      1.0000 0.58440  0.60710  0.12180  Biso   1.000  C
  C44      1.0000 0.66600  0.65030  0.09130  Biso   1.000  C
  C45      1.0000 0.69280  0.58130  0.05100  Biso   1.000  C
  C46      1.0000 0.76800  0.64630  0.02350  Biso   1.000  C
  C47      1.0000 0.81950  0.58530  0.98650  Biso   1.000  C
  C48      1.0000 0.74890  0.48070  0.06700  Biso   1.000  C
  O64      1.0000 0.48990  0.61100  0.10928  Biso   1.000  O
  O65      1.0000 0.61140  0.57110  0.15830  Biso   1.000  O
  O66      1.0000 0.59980  0.55580  0.02891  Biso   1.000  O
  O67      1.0000 0.70290  0.39480  0.06180  Biso   1.000  O
  O68      1.0000 0.83410  0.49190  0.08450  Biso   1.000  O
  O69      1.0000 0.76550  0.53960  0.95790  Biso   1.000  O
  O70      1.0000 0.91870  0.58210  0.98520  Biso   1.000  O
  H29      1.0000 0.64200  0.71580  0.08070  Biso   1.000  H
  H30      1.0000 0.72800  0.66020  0.10800  Biso   1.000  H
  H31      1.0000 0.72950  0.70200  0.01070  Biso   1.000  H
  H32      1.0000 0.82070  0.67380  0.04220  Biso   1.000  H
  O71      1.0000 0.79200  0.10300  0.07620  Biso   1.000  O
  O72      1.0000 0.83800  0.14800  0.08400  Biso   1.000  O
  Co9      1.0000 0.60500  0.94950  0.29037  Biso   1.000  Co
  C49      1.0000 0.39290  0.91560  0.37180  Biso   1.000  C
  C50      1.0000 0.34970  0.83400  0.34130  Biso   1.000  C
  C51      1.0000 0.41870  0.80720  0.30100  Biso   1.000  C
  C52      1.0000 0.35370  0.73200  0.27350  Biso   1.000  C
  C53      1.0000 0.41470  0.68050  0.23650  Biso   1.000  C
  C54      1.0000 0.51930  0.75110  0.31700  Biso   1.000  C
  O73      1.0000 0.38900  0.01010  0.35928  Biso   1.000  O
  O74      1.0000 0.42890  0.88860  0.40830  Biso   1.000  O
  O75      1.0000 0.44420  0.90020  0.27891  Biso   1.000  O
  O76      1.0000 0.60520  0.79710  0.31180  Biso   1.000  O
  O77      1.0000 0.50810  0.66590  0.33450  Biso   1.000  O
  O78      1.0000 0.46040  0.73450  0.20790  Biso   1.000  O
  O79      1.0000 0.41790  0.58130  0.23520  Biso   1.000  O
  H33      1.0000 0.28420  0.85800  0.33070  Biso   1.000  H
  H34      1.0000 0.33980  0.77200  0.35800  Biso   1.000  H
  H35      1.0000 0.29800  0.77050  0.26070  Biso   1.000  H
  H36      1.0000 0.32620  0.67930  0.29220  Biso   1.000  H
  O80      1.0000 0.89700  0.70800  0.32620  Biso   1.000  O
  O81      1.0000 0.85200  0.66200  0.33400  Biso   1.000  O
  Co10     1.0000 0.10500  0.44950  0.79037  Biso   1.000  Co
  C55      1.0000 0.89290  0.41560  0.87180  Biso   1.000  C
  C56      1.0000 0.84970  0.33400  0.84130  Biso   1.000  C
  C57      1.0000 0.91870  0.30720  0.80100  Biso   1.000  C
  C58      1.0000 0.85370  0.23200  0.77350  Biso   1.000  C
  C59      1.0000 0.91470  0.18050  0.73650  Biso   1.000  C
  C60      1.0000 0.01930  0.25110  0.81700  Biso   1.000  C
  O82      1.0000 0.88900  0.51010  0.85928  Biso   1.000  O
  O83      1.0000 0.92890  0.38860  0.90830  Biso   1.000  O
  O84      1.0000 0.94420  0.40020  0.77891  Biso   1.000  O
  O85      1.0000 0.10520  0.29710  0.81180  Biso   1.000  O
  O86      1.0000 0.00810  0.16590  0.83450  Biso   1.000  O
  O87      1.0000 0.96040  0.23450  0.70790  Biso   1.000  O
  O88      1.0000 0.91790  0.08130  0.73520  Biso   1.000  O
  H37      1.0000 0.78420  0.35800  0.83070  Biso   1.000  H
  H38      1.0000 0.83980  0.27200  0.85800  Biso   1.000  H
  H39      1.0000 0.79800  0.27050  0.76070  Biso   1.000  H
  H40      1.0000 0.82620  0.17930  0.79220  Biso   1.000  H
  O89      1.0000 0.39700  0.20800  0.82620  Biso   1.000  O
  O90      1.0000 0.35200  0.16200  0.83400  Biso   1.000  O
  Co11     1.0000 0.39500  0.05050  0.29037  Biso   1.000  Co
  C61      1.0000 0.60710  0.08440  0.37180  Biso   1.000  C
  C62      1.0000 0.65030  0.16600  0.34130  Biso   1.000  C
  C63      1.0000 0.58130  0.19280  0.30100  Biso   1.000  C
  C64      1.0000 0.64630  0.26800  0.27350  Biso   1.000  C
  C65      1.0000 0.58530  0.31950  0.23650  Biso   1.000  C
  C66      1.0000 0.48070  0.24890  0.31700  Biso   1.000  C
  O91      1.0000 0.61100  0.98990  0.35928  Biso   1.000  O
  O92      1.0000 0.57110  0.11140  0.40830  Biso   1.000  O
  O93      1.0000 0.55580  0.09980  0.27891  Biso   1.000  O
  O94      1.0000 0.39480  0.20290  0.31180  Biso   1.000  O
  O95      1.0000 0.49190  0.33410  0.33450  Biso   1.000  O
  O96      1.0000 0.53960  0.26550  0.20790  Biso   1.000  O
  O97      1.0000 0.58210  0.41870  0.23520  Biso   1.000  O
  H41      1.0000 0.71580  0.14200  0.33070  Biso   1.000  H
  H42      1.0000 0.66020  0.22800  0.35800  Biso   1.000  H
  H43      1.0000 0.70200  0.22950  0.26070  Biso   1.000  H
  H44      1.0000 0.67380  0.32070  0.29220  Biso   1.000  H
  O98      1.0000 0.10300  0.29200  0.32620  Biso   1.000  O
  O99      1.0000 0.14800  0.33800  0.33400  Biso   1.000  O
  Co12     1.0000 0.89500  0.55050  0.79037  Biso   1.000  Co
  C67      1.0000 0.10710  0.58440  0.87180  Biso   1.000  C
  C68      1.0000 0.15030  0.66600  0.84130  Biso   1.000  C
  C69      1.0000 0.08130  0.69280  0.80100  Biso   1.000  C
  C70      1.0000 0.14630  0.76800  0.77350  Biso   1.000  C
  C71      1.0000 0.08530  0.81950  0.73650  Biso   1.000  C
  C72      1.0000 0.98070  0.74890  0.81700  Biso   1.000  C
  O100     1.0000 0.11100  0.48990  0.85928  Biso   1.000  O
  O101     1.0000 0.07110  0.61140  0.90830  Biso   1.000  O
  O102     1.0000 0.05580  0.59980  0.77891  Biso   1.000  O
  O103     1.0000 0.89480  0.70290  0.81180  Biso   1.000  O
  O104     1.0000 0.99190  0.83410  0.83450  Biso   1.000  O
  O105     1.0000 0.03960  0.76550  0.70790  Biso   1.000  O
  O106     1.0000 0.08210  0.91870  0.73520  Biso   1.000  O
  H45      1.0000 0.21580  0.64200  0.83070  Biso   1.000  H
  H46      1.0000 0.16020  0.72800  0.85800  Biso   1.000  H
  H47      1.0000 0.20200  0.72950  0.76070  Biso   1.000  H
  H48      1.0000 0.17380  0.82070  0.79220  Biso   1.000  H
  O107     1.0000 0.60300  0.79200  0.82620  Biso   1.000  O
  O108     1.0000 0.64800  0.83800  0.83400  Biso   1.000  O
  Co13     1.0000 0.55050  0.10500  0.20963  Biso   1.000  Co
  C73      1.0000 0.58440  0.89290  0.12820  Biso   1.000  C
  C74      1.0000 0.66600  0.84970  0.15870  Biso   1.000  C
  C75      1.0000 0.69280  0.91870  0.19900  Biso   1.000  C
  C76      1.0000 0.76800  0.85370  0.22650  Biso   1.000  C
  C77      1.0000 0.81950  0.91470  0.26350  Biso   1.000  C
  C78      1.0000 0.74890  0.01930  0.18300  Biso   1.000  C
  O109     1.0000 0.48990  0.88900  0.14072  Biso   1.000  O
  O110     1.0000 0.61140  0.92890  0.09170  Biso   1.000  O
  O111     1.0000 0.59980  0.94420  0.22109  Biso   1.000  O
  O112     1.0000 0.70290  0.10520  0.18820  Biso   1.000  O
  O113     1.0000 0.83410  0.00810  0.16550  Biso   1.000  O
  O114     1.0000 0.76550  0.96040  0.29210  Biso   1.000  O
  O115     1.0000 0.91870  0.91790  0.26480  Biso   1.000  O
  H49      1.0000 0.64200  0.78420  0.16930  Biso   1.000  H
  H50      1.0000 0.72800  0.83980  0.14200  Biso   1.000  H
  H51      1.0000 0.72950  0.79800  0.23930  Biso   1.000  H
  H52      1.0000 0.82070  0.82620  0.20780  Biso   1.000  H
  O116     1.0000 0.79200  0.39700  0.17380  Biso   1.000  O
  O117     1.0000 0.83800  0.35200  0.16600  Biso   1.000  O
  Co14     1.0000 0.05050  0.60500  0.70963  Biso   1.000  Co
  C79      1.0000 0.08440  0.39290  0.62820  Biso   1.000  C
  C80      1.0000 0.16600  0.34970  0.65870  Biso   1.000  C
  C81      1.0000 0.19280  0.41870  0.69900  Biso   1.000  C
  C82      1.0000 0.26800  0.35370  0.72650  Biso   1.000  C
  C83      1.0000 0.31950  0.41470  0.76350  Biso   1.000  C
  C84      1.0000 0.24890  0.51930  0.68300  Biso   1.000  C
  O118     1.0000 0.98990  0.38900  0.64072  Biso   1.000  O
  O119     1.0000 0.11140  0.42890  0.59170  Biso   1.000  O
  O120     1.0000 0.09980  0.44420  0.72109  Biso   1.000  O
  O121     1.0000 0.20290  0.60520  0.68820  Biso   1.000  O
  O122     1.0000 0.33410  0.50810  0.66550  Biso   1.000  O
  O123     1.0000 0.26550  0.46040  0.79210  Biso   1.000  O
  O124     1.0000 0.41870  0.41790  0.76480  Biso   1.000  O
  H53      1.0000 0.14200  0.28420  0.66930  Biso   1.000  H
  H54      1.0000 0.22800  0.33980  0.64200  Biso   1.000  H
  H55      1.0000 0.22950  0.29800  0.73930  Biso   1.000  H
  H56      1.0000 0.32070  0.32620  0.70780  Biso   1.000  H
  O125     1.0000 0.29200  0.89700  0.67380  Biso   1.000  O
  O126     1.0000 0.33800  0.85200  0.66600  Biso   1.000  O
  Co15     1.0000 0.44950  0.89500  0.20963  Biso   1.000  Co
  C85      1.0000 0.41560  0.10710  0.12820  Biso   1.000  C
  C86      1.0000 0.33400  0.15030  0.15870  Biso   1.000  C
  C87      1.0000 0.30720  0.08130  0.19900  Biso   1.000  C
  C88      1.0000 0.23200  0.14630  0.22650  Biso   1.000  C
  C89      1.0000 0.18050  0.08530  0.26350  Biso   1.000  C
  C90      1.0000 0.25110  0.98070  0.18300  Biso   1.000  C
  O127     1.0000 0.51010  0.11100  0.14072  Biso   1.000  O
  O128     1.0000 0.38860  0.07110  0.09170  Biso   1.000  O
  O129     1.0000 0.40020  0.05580  0.22109  Biso   1.000  O
  O130     1.0000 0.29710  0.89480  0.18820  Biso   1.000  O
  O131     1.0000 0.16590  0.99190  0.16550  Biso   1.000  O
  O132     1.0000 0.23450  0.03960  0.29210  Biso   1.000  O
  O133     1.0000 0.08130  0.08210  0.26480  Biso   1.000  O
  H57      1.0000 0.35800  0.21580  0.16930  Biso   1.000  H
  H58      1.0000 0.27200  0.16020  0.14200  Biso   1.000  H
  H59      1.0000 0.27050  0.20200  0.23930  Biso   1.000  H
  H60      1.0000 0.17930  0.17380  0.20780  Biso   1.000  H
  O134     1.0000 0.20800  0.60300  0.17380  Biso   1.000  O
  O135     1.0000 0.16200  0.64800  0.16600  Biso   1.000  O
  Co16     1.0000 0.94950  0.39500  0.70963  Biso   1.000  Co
  C91      1.0000 0.91560  0.60710  0.62820  Biso   1.000  C
  C92      1.0000 0.83400  0.65030  0.65870  Biso   1.000  C
  C93      1.0000 0.80720  0.58130  0.69900  Biso   1.000  C
  C94      1.0000 0.73200  0.64630  0.72650  Biso   1.000  C
  C95      1.0000 0.68050  0.58530  0.76350  Biso   1.000  C
  C96      1.0000 0.75110  0.48070  0.68300  Biso   1.000  C
  O136     1.0000 0.01010  0.61100  0.64072  Biso   1.000  O
  O137     1.0000 0.88860  0.57110  0.59170  Biso   1.000  O
  O138     1.0000 0.90020  0.55580  0.72109  Biso   1.000  O
  O139     1.0000 0.79710  0.39480  0.68820  Biso   1.000  O
  O140     1.0000 0.66590  0.49190  0.66550  Biso   1.000  O
  O141     1.0000 0.73450  0.53960  0.79210  Biso   1.000  O
  O142     1.0000 0.58130  0.58210  0.76480  Biso   1.000  O
  H61      1.0000 0.85800  0.71580  0.66930  Biso   1.000  H
  H62      1.0000 0.77200  0.66020  0.64200  Biso   1.000  H
  H63      1.0000 0.77050  0.70200  0.73930  Biso   1.000  H
  H64      1.0000 0.67930  0.67380  0.70780  Biso   1.000  H
  O143     1.0000 0.70800  0.10300  0.67380  Biso   1.000  O
  O144     1.0000 0.66200  0.14800  0.66600  Biso   1.000  O
  Co17     1.0000 0.00000  0.00000  0.30855  Biso   1.000  Co
  Co18     1.0000 0.50000  0.50000  0.80855  Biso   1.000  Co
  Co19     1.0000 0.00000  0.00000  0.69145  Biso   1.000  Co
  Co20     1.0000 0.50000  0.50000  0.19145  Biso   1.000  Co
  Co21     1.0000 0.50000  0.00000  0.44145  Biso   1.000  Co
  Co22     1.0000 0.00000  0.50000  0.94145  Biso   1.000  Co
  Co23     1.0000 0.50000  0.00000  0.05855  Biso   1.000  Co
  Co24     1.0000 0.00000  0.50000  0.55855  Biso   1.000  Co
  K1       1.0000 0.75000  0.83140  0.37500  Biso   1.000  K
  K2       1.0000 0.25000  0.33140  0.87500  Biso   1.000  K
  K3       1.0000 0.25000  0.16860  0.37500  Biso   1.000  K
  K4       1.0000 0.75000  0.66860  0.87500  Biso   1.000  K
  K5       1.0000 0.83140  0.25000  0.62500  Biso   1.000  K
  K6       1.0000 0.16860  0.75000  0.62500  Biso   1.000  K
  K7       1.0000 0.66860  0.25000  0.12500  Biso   1.000  K
  K8       1.0000 0.33140  0.75000  0.12500  Biso   1.000  K
