data_image0
_cell_length_a       13.875
_cell_length_b       12.242
_cell_length_c       18.408
_cell_angle_alpha    90
_cell_angle_beta     129.934
_cell_angle_gamma    90

_symmetry_space_group_name_H-M    "P 1"
_symmetry_int_tables_number       1

loop_
  _symmetry_equiv_pos_as_xyz
  'x, y, z'

loop_
  _atom_site_label
  _atom_site_occupancy
  _atom_site_fract_x
  _atom_site_fract_y
  _atom_site_fract_z
  _atom_site_thermal_displace_type
  _atom_site_B_iso_or_equiv
  _atom_site_type_symbol
  Cd1      1.0000 0.04397  0.14904  0.50913  Biso   1.000  Cd
  N1       1.0000 0.30690  0.12900  0.45280  Biso   1.000  N
  C1       1.0000 0.27020  0.14020  0.50460  Biso   1.000  C
  H1       1.0000 0.32280  0.16220  0.56760  Biso   1.000  H
  C2       1.0000 0.65500  0.15060  0.61200  Biso   1.000  C
  H2       1.0000 0.72410  0.14370  0.67610  Biso   1.000  H
  O1       1.0000 0.88570  0.02300  0.40480  Biso   1.000  O
  C3       1.0000 0.43120  0.14740  0.48520  Biso   1.000  C
  C4       1.0000 0.67040  0.17530  0.54810  Biso   1.000  C
  N2       1.0000 0.94640  0.18160  0.56950  Biso   1.000  N
  N3       1.0000 0.79450  0.18690  0.57730  Biso   1.000  N
  O2       1.0000 0.89960  0.83250  0.97650  Biso   1.000  O
  C5       1.0000 0.82580  0.16840  0.52260  Biso   1.000  C
  H3       1.0000 0.76860  0.14850  0.45910  Biso   1.000  H
  C6       1.0000 0.53420  0.13600  0.57980  Biso   1.000  C
  H4       1.0000 0.52230  0.11830  0.62270  Biso   1.000  H
  O3       1.0000 0.75360  0.88950  0.33020  Biso   1.000  O
  N4       1.0000 0.15050  0.11600  0.45490  Biso   1.000  N
  O4       1.0000 0.07200  0.79060  0.11850  Biso   1.000  O
  C7       1.0000 0.44830  0.17520  0.42210  Biso   1.000  C
  H5       1.0000 0.37930  0.18480  0.35840  Biso   1.000  H
  C8       1.0000 0.99710  0.20440  0.66030  Biso   1.000  C
  H6       1.0000 0.08220  0.21550  0.71040  Biso   1.000  H
  C9       1.0000 0.90430  0.20860  0.66690  Biso   1.000  C
  H7       1.0000 0.91370  0.22300  0.72070  Biso   1.000  H
  C10      1.0000 0.20330  0.09520  0.36470  Biso   1.000  C
  H8       1.0000 0.19960  0.07940  0.31360  Biso   1.000  H
  C11      1.0000 0.10870  0.08910  0.36620  Biso   1.000  C
  H9       1.0000 0.02660  0.06960  0.31490  Biso   1.000  H
  C12      1.0000 0.56840  0.18910  0.45340  Biso   1.000  C
  H10      1.0000 0.58050  0.20760  0.41080  Biso   1.000  H
  C13      1.0000 0.98410  0.85600  0.06050  Biso   1.000  C
  C14      1.0000 0.98840  0.96830  0.09830  Biso   1.000  C
  H11      1.0000 0.03800  0.96290  0.16640  Biso   1.000  H
  H12      1.0000 0.03160  0.01820  0.08680  Biso   1.000  H
  C15      1.0000 0.66660  0.96430  0.12850  Biso   1.000  C
  H13      1.0000 0.61250  0.90600  0.08520  Biso   1.000  H
  H14      1.0000 0.73920  0.92910  0.18520  Biso   1.000  H
  C16      1.0000 0.69030  0.06650  0.25490  Biso   1.000  C
  H15      1.0000 0.73910  0.11940  0.25130  Biso   1.000  H
  H16      1.0000 0.64770  0.10570  0.27290  Biso   1.000  H
  C17      1.0000 0.78080  0.98530  0.33310  Biso   1.000  C
  C18      1.0000 0.79230  0.94140  0.07640  Biso   1.000  C
  H17      1.0000 0.73870  0.89030  0.02470  Biso   1.000  H
  H18      1.0000 0.85110  0.90070  0.13470  Biso   1.000  H
  C19      1.0000 0.86300  0.01680  0.05670  Biso   1.000  C
  H19      1.0000 0.81330  0.02590  0.98880  Biso   1.000  H
  H20      1.0000 0.87500  0.08820  0.08420  Biso   1.000  H
  C20      1.0000 0.71400  0.01960  0.08500  Biso   1.000  C
  H21      1.0000 0.76520  0.08180  0.12340  Biso   1.000  H
  H22      1.0000 0.64360  0.04620  0.02240  Biso   1.000  H
  C21      1.0000 0.59320  0.01990  0.15870  Biso   1.000  C
  H23      1.0000 0.54280  0.96620  0.15980  Biso   1.000  H
  H24      1.0000 0.53810  0.07710  0.11420  Biso   1.000  H
  C22      1.0000 0.09900  0.48200  0.38900  Biso   1.000  C
  H25      1.0000 0.04890  0.47130  0.32180  Biso   1.000  H
  H26      1.0000 0.11550  0.55970  0.39930  Biso   1.000  H
  Cd2      1.0000 0.95603  0.64904  0.99087  Biso   1.000  Cd
  N5       1.0000 0.69310  0.62900  0.04720  Biso   1.000  N
  C23      1.0000 0.72980  0.64020  0.99540  Biso   1.000  C
  H27      1.0000 0.67720  0.66220  0.93240  Biso   1.000  H
  C24      1.0000 0.34500  0.65060  0.88800  Biso   1.000  C
  H28      1.0000 0.27590  0.64370  0.82390  Biso   1.000  H
  O5       1.0000 0.11430  0.52300  0.09520  Biso   1.000  O
  C25      1.0000 0.56880  0.64740  0.01480  Biso   1.000  C
  C26      1.0000 0.32960  0.67530  0.95190  Biso   1.000  C
  N6       1.0000 0.05360  0.68160  0.93050  Biso   1.000  N
  N7       1.0000 0.20550  0.68690  0.92270  Biso   1.000  N
  O6       1.0000 0.10040  0.33250  0.52350  Biso   1.000  O
  C27      1.0000 0.17420  0.66840  0.97740  Biso   1.000  C
  H29      1.0000 0.23140  0.64850  0.04090  Biso   1.000  H
  C28      1.0000 0.46580  0.63600  0.92020  Biso   1.000  C
  H30      1.0000 0.47770  0.61830  0.87730  Biso   1.000  H
  O7       1.0000 0.24640  0.38950  0.16980  Biso   1.000  O
  N8       1.0000 0.84950  0.61600  0.04510  Biso   1.000  N
  O8       1.0000 0.92800  0.29060  0.38150  Biso   1.000  O
  C29      1.0000 0.55170  0.67520  0.07790  Biso   1.000  C
  H31      1.0000 0.62070  0.68480  0.14160  Biso   1.000  H
  C30      1.0000 0.00290  0.70440  0.83970  Biso   1.000  C
  H32      1.0000 0.91780  0.71550  0.78960  Biso   1.000  H
  C31      1.0000 0.09570  0.70860  0.83310  Biso   1.000  C
  H33      1.0000 0.08630  0.72300  0.77930  Biso   1.000  H
  C32      1.0000 0.79670  0.59520  0.13530  Biso   1.000  C
  H34      1.0000 0.80040  0.57940  0.18640  Biso   1.000  H
  C33      1.0000 0.89130  0.58910  0.13380  Biso   1.000  C
  H35      1.0000 0.97340  0.56960  0.18510  Biso   1.000  H
  C34      1.0000 0.43160  0.68910  0.04660  Biso   1.000  C
  H36      1.0000 0.41950  0.70760  0.08920  Biso   1.000  H
  C35      1.0000 0.01590  0.35600  0.43950  Biso   1.000  C
  C36      1.0000 0.01160  0.46830  0.40170  Biso   1.000  C
  H37      1.0000 0.96200  0.46290  0.33360  Biso   1.000  H
  H38      1.0000 0.96840  0.51820  0.41320  Biso   1.000  H
  C37      1.0000 0.33340  0.46430  0.37150  Biso   1.000  C
  H39      1.0000 0.38750  0.40600  0.41480  Biso   1.000  H
  H40      1.0000 0.26080  0.42910  0.31480  Biso   1.000  H
  C38      1.0000 0.30970  0.56650  0.24510  Biso   1.000  C
  H41      1.0000 0.26090  0.61940  0.24870  Biso   1.000  H
  H42      1.0000 0.35230  0.60570  0.22710  Biso   1.000  H
  C39      1.0000 0.21920  0.48530  0.16690  Biso   1.000  C
  C40      1.0000 0.20770  0.44140  0.42360  Biso   1.000  C
  H43      1.0000 0.26130  0.39030  0.47530  Biso   1.000  H
  H44      1.0000 0.14890  0.40070  0.36530  Biso   1.000  H
  C41      1.0000 0.13700  0.51680  0.44330  Biso   1.000  C
  H45      1.0000 0.18670  0.52590  0.51120  Biso   1.000  H
  H46      1.0000 0.12500  0.58820  0.41580  Biso   1.000  H
  C42      1.0000 0.28600  0.51960  0.41500  Biso   1.000  C
  H47      1.0000 0.23480  0.58180  0.37660  Biso   1.000  H
  H48      1.0000 0.35640  0.54620  0.47760  Biso   1.000  H
  C43      1.0000 0.40680  0.51990  0.34130  Biso   1.000  C
  H49      1.0000 0.45720  0.46620  0.34020  Biso   1.000  H
  H50      1.0000 0.46190  0.57710  0.38580  Biso   1.000  H
  C44      1.0000 0.90100  0.98200  0.11100  Biso   1.000  C
  H51      1.0000 0.95110  0.97130  0.17820  Biso   1.000  H
  H52      1.0000 0.88450  0.05970  0.10070  Biso   1.000  H
  Cd3      1.0000 0.95603  0.85096  0.49087  Biso   1.000  Cd
  N9       1.0000 0.69310  0.87100  0.54720  Biso   1.000  N
  C45      1.0000 0.72980  0.85980  0.49540  Biso   1.000  C
  H53      1.0000 0.67720  0.83780  0.43240  Biso   1.000  H
  C46      1.0000 0.34500  0.84940  0.38800  Biso   1.000  C
  H54      1.0000 0.27590  0.85630  0.32390  Biso   1.000  H
  O9       1.0000 0.11430  0.97700  0.59520  Biso   1.000  O
  C47      1.0000 0.56880  0.85260  0.51480  Biso   1.000  C
  C48      1.0000 0.32960  0.82470  0.45190  Biso   1.000  C
  N10      1.0000 0.05360  0.81840  0.43050  Biso   1.000  N
  N11      1.0000 0.20550  0.81310  0.42270  Biso   1.000  N
  O10      1.0000 0.10040  0.16750  0.02350  Biso   1.000  O
  C49      1.0000 0.17420  0.83160  0.47740  Biso   1.000  C
  H55      1.0000 0.23140  0.85150  0.54090  Biso   1.000  H
  C50      1.0000 0.46580  0.86400  0.42020  Biso   1.000  C
  H56      1.0000 0.47770  0.88170  0.37730  Biso   1.000  H
  O11      1.0000 0.24640  0.11050  0.66980  Biso   1.000  O
  N12      1.0000 0.84950  0.88400  0.54510  Biso   1.000  N
  O12      1.0000 0.92800  0.20940  0.88150  Biso   1.000  O
  C51      1.0000 0.55170  0.82480  0.57790  Biso   1.000  C
  H57      1.0000 0.62070  0.81520  0.64160  Biso   1.000  H
  C52      1.0000 0.00290  0.79560  0.33970  Biso   1.000  C
  H58      1.0000 0.91780  0.78450  0.28960  Biso   1.000  H
  C53      1.0000 0.09570  0.79140  0.33310  Biso   1.000  C
  H59      1.0000 0.08630  0.77700  0.27930  Biso   1.000  H
  C54      1.0000 0.79670  0.90480  0.63530  Biso   1.000  C
  H60      1.0000 0.80040  0.92060  0.68640  Biso   1.000  H
  C55      1.0000 0.89130  0.91090  0.63380  Biso   1.000  C
  H61      1.0000 0.97340  0.93040  0.68510  Biso   1.000  H
  C56      1.0000 0.43160  0.81090  0.54660  Biso   1.000  C
  H62      1.0000 0.41950  0.79240  0.58920  Biso   1.000  H
  C57      1.0000 0.01590  0.14400  0.93950  Biso   1.000  C
  C58      1.0000 0.01160  0.03170  0.90170  Biso   1.000  C
  H63      1.0000 0.96200  0.03710  0.83360  Biso   1.000  H
  H64      1.0000 0.96840  0.98180  0.91320  Biso   1.000  H
  C59      1.0000 0.33340  0.03570  0.87150  Biso   1.000  C
  H65      1.0000 0.38750  0.09400  0.91480  Biso   1.000  H
  H66      1.0000 0.26080  0.07090  0.81480  Biso   1.000  H
  C60      1.0000 0.30970  0.93350  0.74510  Biso   1.000  C
  H67      1.0000 0.26090  0.88060  0.74870  Biso   1.000  H
  H68      1.0000 0.35230  0.89430  0.72710  Biso   1.000  H
  C61      1.0000 0.21920  0.01470  0.66690  Biso   1.000  C
  C62      1.0000 0.20770  0.05860  0.92360  Biso   1.000  C
  H69      1.0000 0.26130  0.10970  0.97530  Biso   1.000  H
  H70      1.0000 0.14890  0.09930  0.86530  Biso   1.000  H
  C63      1.0000 0.13700  0.98320  0.94330  Biso   1.000  C
  H71      1.0000 0.18670  0.97410  0.01120  Biso   1.000  H
  H72      1.0000 0.12500  0.91180  0.91580  Biso   1.000  H
  C64      1.0000 0.28600  0.98040  0.91500  Biso   1.000  C
  H73      1.0000 0.23480  0.91820  0.87660  Biso   1.000  H
  H74      1.0000 0.35640  0.95380  0.97760  Biso   1.000  H
  C65      1.0000 0.40680  0.98010  0.84130  Biso   1.000  C
  H75      1.0000 0.45720  0.03380  0.84020  Biso   1.000  H
  H76      1.0000 0.46190  0.92290  0.88580  Biso   1.000  H
  C66      1.0000 0.90100  0.51800  0.61100  Biso   1.000  C
  H77      1.0000 0.95110  0.52870  0.67820  Biso   1.000  H
  H78      1.0000 0.88450  0.44030  0.60070  Biso   1.000  H
  Cd4      1.0000 0.04397  0.35096  0.00913  Biso   1.000  Cd
  N13      1.0000 0.30690  0.37100  0.95280  Biso   1.000  N
  C67      1.0000 0.27020  0.35980  0.00460  Biso   1.000  C
  H79      1.0000 0.32280  0.33780  0.06760  Biso   1.000  H
  C68      1.0000 0.65500  0.34940  0.11200  Biso   1.000  C
  H80      1.0000 0.72410  0.35630  0.17610  Biso   1.000  H
  O13      1.0000 0.88570  0.47700  0.90480  Biso   1.000  O
  C69      1.0000 0.43120  0.35260  0.98520  Biso   1.000  C
  C70      1.0000 0.67040  0.32470  0.04810  Biso   1.000  C
  N14      1.0000 0.94640  0.31840  0.06950  Biso   1.000  N
  N15      1.0000 0.79450  0.31310  0.07730  Biso   1.000  N
  O14      1.0000 0.89960  0.66750  0.47650  Biso   1.000  O
  C71      1.0000 0.82580  0.33160  0.02260  Biso   1.000  C
  H81      1.0000 0.76860  0.35150  0.95910  Biso   1.000  H
  C72      1.0000 0.53420  0.36400  0.07980  Biso   1.000  C
  H82      1.0000 0.52230  0.38170  0.12270  Biso   1.000  H
  O15      1.0000 0.75360  0.61050  0.83020  Biso   1.000  O
  N16      1.0000 0.15050  0.38400  0.95490  Biso   1.000  N
  O16      1.0000 0.07200  0.70940  0.61850  Biso   1.000  O
  C73      1.0000 0.44830  0.32480  0.92210  Biso   1.000  C
  H83      1.0000 0.37930  0.31520  0.85840  Biso   1.000  H
  C74      1.0000 0.99710  0.29560  0.16030  Biso   1.000  C
  H84      1.0000 0.08220  0.28450  0.21040  Biso   1.000  H
  C75      1.0000 0.90430  0.29140  0.16690  Biso   1.000  C
  H85      1.0000 0.91370  0.27700  0.22070  Biso   1.000  H
  C76      1.0000 0.20330  0.40480  0.86470  Biso   1.000  C
  H86      1.0000 0.19960  0.42060  0.81360  Biso   1.000  H
  C77      1.0000 0.10870  0.41090  0.86620  Biso   1.000  C
  H87      1.0000 0.02660  0.43040  0.81490  Biso   1.000  H
  C78      1.0000 0.56840  0.31090  0.95340  Biso   1.000  C
  H88      1.0000 0.58050  0.29240  0.91080  Biso   1.000  H
  C79      1.0000 0.98410  0.64400  0.56050  Biso   1.000  C
  C80      1.0000 0.98840  0.53170  0.59830  Biso   1.000  C
  H89      1.0000 0.03800  0.53710  0.66640  Biso   1.000  H
  H90      1.0000 0.03160  0.48180  0.58680  Biso   1.000  H
  C81      1.0000 0.66660  0.53570  0.62850  Biso   1.000  C
  H91      1.0000 0.61250  0.59400  0.58520  Biso   1.000  H
  H92      1.0000 0.73920  0.57090  0.68520  Biso   1.000  H
  C82      1.0000 0.69030  0.43350  0.75490  Biso   1.000  C
  H93      1.0000 0.73910  0.38060  0.75130  Biso   1.000  H
  H94      1.0000 0.64770  0.39430  0.77290  Biso   1.000  H
  C83      1.0000 0.78080  0.51470  0.83310  Biso   1.000  C
  C84      1.0000 0.79230  0.55860  0.57640  Biso   1.000  C
  H95      1.0000 0.73870  0.60970  0.52470  Biso   1.000  H
  H96      1.0000 0.85110  0.59930  0.63470  Biso   1.000  H
  C85      1.0000 0.86300  0.48320  0.55670  Biso   1.000  C
  H97      1.0000 0.81330  0.47410  0.48880  Biso   1.000  H
  H98      1.0000 0.87500  0.41180  0.58420  Biso   1.000  H
  C86      1.0000 0.71400  0.48040  0.58500  Biso   1.000  C
  H99      1.0000 0.76520  0.41820  0.62340  Biso   1.000  H
  H100     1.0000 0.64360  0.45380  0.52240  Biso   1.000  H
  C87      1.0000 0.59320  0.48010  0.65870  Biso   1.000  C
  H101     1.0000 0.54280  0.53380  0.65980  Biso   1.000  H
  H102     1.0000 0.53810  0.42290  0.61420  Biso   1.000  H
  C88      1.0000 0.09900  0.01800  0.88900  Biso   1.000  C
  H103     1.0000 0.04890  0.02870  0.82180  Biso   1.000  H
  H104     1.0000 0.11550  0.94030  0.89930  Biso   1.000  H
