data_image0
_cell_length_a       34.628
_cell_length_b       18.2216
_cell_length_c       23.1357
_cell_angle_alpha    90
_cell_angle_beta     118.404
_cell_angle_gamma    90

_symmetry_space_group_name_H-M    "P 1"
_symmetry_int_tables_number       1

loop_
  _symmetry_equiv_pos_as_xyz
  'x, y, z'

loop_
  _atom_site_label
  _atom_site_occupancy
  _atom_site_fract_x
  _atom_site_fract_y
  _atom_site_fract_z
  _atom_site_thermal_displace_type
  _atom_site_B_iso_or_equiv
  _atom_site_type_symbol
  Cd1      1.0000 0.71000  0.10581  0.80913  Biso   1.000  Cd
  Cd2      1.0000 0.32140  0.38197  0.32400  Biso   1.000  Cd
  Cd3      1.0000 0.32262  0.44934  0.46342  Biso   1.000  Cd
  C1       1.0000 0.62110  0.10910  0.74590  Biso   1.000  C
  C2       1.0000 0.57130  0.10460  0.71780  Biso   1.000  C
  C3       1.0000 0.55060  0.16150  0.68110  Biso   1.000  C
  H1       1.0000 0.56780  0.20050  0.68070  Biso   1.000  H
  C4       1.0000 0.50660  0.16840  0.64390  Biso   1.000  C
  H2       1.0000 0.49370  0.21010  0.61890  Biso   1.000  H
  C5       1.0000 0.48100  0.10640  0.64580  Biso   1.000  C
  C6       1.0000 0.50140  0.05060  0.68200  Biso   1.000  C
  H3       1.0000 0.48530  0.01050  0.68360  Biso   1.000  H
  C7       1.0000 0.54640  0.04910  0.71810  Biso   1.000  C
  H4       1.0000 0.55990  0.00800  0.74360  Biso   1.000  H
  C8       1.0000 0.43300  0.11260  0.61160  Biso   1.000  C
  C9       1.0000 0.28540  0.29100  0.41040  Biso   1.000  C
  C10      1.0000 0.30280  0.23110  0.46100  Biso   1.000  C
  C11      1.0000 0.34780  0.22020  0.49910  Biso   1.000  C
  H5       1.0000 0.36690  0.24930  0.49110  Biso   1.000  H
  C12      1.0000 0.36520  0.16880  0.54770  Biso   1.000  C
  C13      1.0000 0.33580  0.12760  0.56120  Biso   1.000  C
  H6       1.0000 0.34650  0.09420  0.59580  Biso   1.000  H
  C14      1.0000 0.29100  0.13730  0.52270  Biso   1.000  C
  C15      1.0000 0.27440  0.18790  0.47340  Biso   1.000  C
  H7       1.0000 0.24410  0.19350  0.44820  Biso   1.000  H
  C16      1.0000 0.26050  0.09200  0.53930  Biso   1.000  C
  C17      1.0000 0.09590  0.91250  0.06380  Biso   1.000  C
  C18      1.0000 0.04800  0.90250  0.01500  Biso   1.000  C
  C19      1.0000 0.02300  0.84470  0.02460  Biso   1.000  C
  H8       1.0000 0.03620  0.81510  0.06170  Biso   1.000  H
  C20      1.0000 0.98150  0.83360  0.98090  Biso   1.000  C
  H9       1.0000 0.96610  0.79410  0.98540  Biso   1.000  H
  C21      1.0000 0.96170  0.88020  0.92980  Biso   1.000  C
  C22      1.0000 0.98490  0.93630  0.92160  Biso   1.000  C
  H10      1.0000 0.97150  0.96740  0.88560  Biso   1.000  H
  C23      1.0000 0.02690  0.94590  0.96570  Biso   1.000  C
  H11      1.0000 0.04170  0.98590  0.96070  Biso   1.000  H
  C24      1.0000 0.91430  0.87570  0.88690  Biso   1.000  C
  C25      1.0000 0.75750  0.97940  0.81400  Biso   1.000  C
  C26      1.0000 0.77950  0.90780  0.81420  Biso   1.000  C
  C27      1.0000 0.75270  0.84670  0.78420  Biso   1.000  C
  H12      1.0000 0.72230  0.85140  0.76220  Biso   1.000  H
  C28      1.0000 0.77240  0.77840  0.78790  Biso   1.000  C
  C29      1.0000 0.81840  0.77210  0.81930  Biso   1.000  C
  H13      1.0000 0.83140  0.72690  0.82080  Biso   1.000  H
  C30      1.0000 0.84430  0.83220  0.84790  Biso   1.000  C
  C31      1.0000 0.82410  0.90040  0.84420  Biso   1.000  C
  H14      1.0000 0.84160  0.94140  0.86270  Biso   1.000  H
  C32      1.0000 0.74370  0.71260  0.75560  Biso   1.000  C
  N1       1.0000 0.41060  0.16040  0.58790  Biso   1.000  N
  N2       1.0000 0.88890  0.82460  0.88840  Biso   1.000  N
  O1       1.0000 0.64610  0.11290  0.70200  Biso   1.000  O
  O2       1.0000 0.63520  0.04360  0.78220  Biso   1.000  O
  O3       1.0000 0.24502  0.29330  0.37360  Biso   1.000  O
  O4       1.0000 0.31396  0.33580  0.41100  Biso   1.000  O
  O5       1.0000 0.27500  0.05560  0.59150  Biso   1.000  O
  O6       1.0000 0.22069  0.09540  0.49770  Biso   1.000  O
  O7       1.0000 0.11920  0.95590  0.05920  Biso   1.000  O
  O8       1.0000 0.11010  0.87490  0.11970  Biso   1.000  O
  O9       1.0000 0.71806  0.98780  0.77940  Biso   1.000  O
  O10      1.0000 0.78253  0.03110  0.84990  Biso   1.000  O
  O11      1.0000 0.76070  0.65330  0.75560  Biso   1.000  O
  O12      1.0000 0.70290  0.72240  0.72810  Biso   1.000  O
  C33      1.0000 0.42610  0.13200  0.80820  Biso   1.000  C
  C34      1.0000 0.44220  0.15120  0.88140  Biso   1.000  C
  C35      1.0000 0.48760  0.15490  0.91770  Biso   1.000  C
  C36      1.0000 0.48450  0.15530  0.61520  Biso   1.000  C
  C37      1.0000 0.49970  0.14100  0.67470  Biso   1.000  C
  C38      1.0000 0.45240  0.13000  0.78100  Biso   1.000  C
  C39      1.0000 0.43590  0.16890  0.57460  Biso   1.000  C
  H15      1.0000 0.42350  0.15940  0.89900  Biso   1.000  H
  H16      1.0000 0.49920  0.15720  0.53670  Biso   1.000  H
  H17      1.0000 0.48050  0.13690  0.69220  Biso   1.000  H
  H18      1.0000 0.44140  0.12260  0.73620  Biso   1.000  H
  N3       1.0000 0.39510  0.33760  0.86070  Biso   1.000  N
  O13      1.0000 0.35840  0.15420  0.75410  Biso   1.000  O
  O14      1.0000 0.35740  0.15070  0.72350  Biso   1.000  O
  Cd4      1.0000 0.21000  0.60581  0.80913  Biso   1.000  Cd
  Cd5      1.0000 0.82140  0.88197  0.32400  Biso   1.000  Cd
  Cd6      1.0000 0.82262  0.94934  0.46342  Biso   1.000  Cd
  C40      1.0000 0.12110  0.60910  0.74590  Biso   1.000  C
  C41      1.0000 0.07130  0.60460  0.71780  Biso   1.000  C
  C42      1.0000 0.05060  0.66150  0.68110  Biso   1.000  C
  H19      1.0000 0.06780  0.70050  0.68070  Biso   1.000  H
  C43      1.0000 0.00660  0.66840  0.64390  Biso   1.000  C
  H20      1.0000 0.99370  0.71010  0.61890  Biso   1.000  H
  C44      1.0000 0.98100  0.60640  0.64580  Biso   1.000  C
  C45      1.0000 0.00140  0.55060  0.68200  Biso   1.000  C
  H21      1.0000 0.98530  0.51050  0.68360  Biso   1.000  H
  C46      1.0000 0.04640  0.54910  0.71810  Biso   1.000  C
  H22      1.0000 0.05990  0.50800  0.74360  Biso   1.000  H
  C47      1.0000 0.93300  0.61260  0.61160  Biso   1.000  C
  C48      1.0000 0.78540  0.79100  0.41040  Biso   1.000  C
  C49      1.0000 0.80280  0.73110  0.46100  Biso   1.000  C
  C50      1.0000 0.84780  0.72020  0.49910  Biso   1.000  C
  H23      1.0000 0.86690  0.74930  0.49110  Biso   1.000  H
  C51      1.0000 0.86520  0.66880  0.54770  Biso   1.000  C
  C52      1.0000 0.83580  0.62760  0.56120  Biso   1.000  C
  H24      1.0000 0.84650  0.59420  0.59580  Biso   1.000  H
  C53      1.0000 0.79100  0.63730  0.52270  Biso   1.000  C
  C54      1.0000 0.77440  0.68790  0.47340  Biso   1.000  C
  H25      1.0000 0.74410  0.69350  0.44820  Biso   1.000  H
  C55      1.0000 0.76050  0.59200  0.53930  Biso   1.000  C
  C56      1.0000 0.59590  0.41250  0.06380  Biso   1.000  C
  C57      1.0000 0.54800  0.40250  0.01500  Biso   1.000  C
  C58      1.0000 0.52300  0.34470  0.02460  Biso   1.000  C
  H26      1.0000 0.53620  0.31510  0.06170  Biso   1.000  H
  C59      1.0000 0.48150  0.33360  0.98090  Biso   1.000  C
  H27      1.0000 0.46610  0.29410  0.98540  Biso   1.000  H
  C60      1.0000 0.46170  0.38020  0.92980  Biso   1.000  C
  C61      1.0000 0.48490  0.43630  0.92160  Biso   1.000  C
  H28      1.0000 0.47150  0.46740  0.88560  Biso   1.000  H
  C62      1.0000 0.52690  0.44590  0.96570  Biso   1.000  C
  H29      1.0000 0.54170  0.48590  0.96070  Biso   1.000  H
  C63      1.0000 0.41430  0.37570  0.88690  Biso   1.000  C
  C64      1.0000 0.25750  0.47940  0.81400  Biso   1.000  C
  C65      1.0000 0.27950  0.40780  0.81420  Biso   1.000  C
  C66      1.0000 0.25270  0.34670  0.78420  Biso   1.000  C
  H30      1.0000 0.22230  0.35140  0.76220  Biso   1.000  H
  C67      1.0000 0.27240  0.27840  0.78790  Biso   1.000  C
  C68      1.0000 0.31840  0.27210  0.81930  Biso   1.000  C
  H31      1.0000 0.33140  0.22690  0.82080  Biso   1.000  H
  C69      1.0000 0.34430  0.33220  0.84790  Biso   1.000  C
  C70      1.0000 0.32410  0.40040  0.84420  Biso   1.000  C
  H32      1.0000 0.34160  0.44140  0.86270  Biso   1.000  H
  C71      1.0000 0.24370  0.21260  0.75560  Biso   1.000  C
  N4       1.0000 0.91060  0.66040  0.58790  Biso   1.000  N
  N5       1.0000 0.38890  0.32460  0.88840  Biso   1.000  N
  O15      1.0000 0.14610  0.61290  0.70200  Biso   1.000  O
  O16      1.0000 0.13520  0.54360  0.78220  Biso   1.000  O
  O17      1.0000 0.74502  0.79330  0.37360  Biso   1.000  O
  O18      1.0000 0.81396  0.83580  0.41100  Biso   1.000  O
  O19      1.0000 0.77500  0.55560  0.59150  Biso   1.000  O
  O20      1.0000 0.72069  0.59540  0.49770  Biso   1.000  O
  O21      1.0000 0.61920  0.45590  0.05920  Biso   1.000  O
  O22      1.0000 0.61010  0.37490  0.11970  Biso   1.000  O
  O23      1.0000 0.21806  0.48780  0.77940  Biso   1.000  O
  O24      1.0000 0.28253  0.53110  0.84990  Biso   1.000  O
  O25      1.0000 0.26070  0.15330  0.75560  Biso   1.000  O
  O26      1.0000 0.20290  0.22240  0.72810  Biso   1.000  O
  C72      1.0000 0.92610  0.63200  0.80820  Biso   1.000  C
  C73      1.0000 0.94220  0.65120  0.88140  Biso   1.000  C
  C74      1.0000 0.98760  0.65490  0.91770  Biso   1.000  C
  C75      1.0000 0.98450  0.65530  0.61520  Biso   1.000  C
  C76      1.0000 0.99970  0.64100  0.67470  Biso   1.000  C
  C77      1.0000 0.95240  0.63000  0.78100  Biso   1.000  C
  C78      1.0000 0.93590  0.66890  0.57460  Biso   1.000  C
  H33      1.0000 0.92350  0.65940  0.89900  Biso   1.000  H
  H34      1.0000 0.99920  0.65720  0.53670  Biso   1.000  H
  H35      1.0000 0.98050  0.63690  0.69220  Biso   1.000  H
  H36      1.0000 0.94140  0.62260  0.73620  Biso   1.000  H
  N6       1.0000 0.89510  0.83760  0.86070  Biso   1.000  N
  O27      1.0000 0.85840  0.65420  0.75410  Biso   1.000  O
  O28      1.0000 0.85740  0.65070  0.72350  Biso   1.000  O
  Cd7      1.0000 0.29000  0.10581  0.69087  Biso   1.000  Cd
  Cd8      1.0000 0.67860  0.38197  0.17600  Biso   1.000  Cd
  Cd9      1.0000 0.67738  0.44934  0.03658  Biso   1.000  Cd
  C79      1.0000 0.37890  0.10910  0.75410  Biso   1.000  C
  C80      1.0000 0.42870  0.10460  0.78220  Biso   1.000  C
  C81      1.0000 0.44940  0.16150  0.81890  Biso   1.000  C
  H37      1.0000 0.43220  0.20050  0.81930  Biso   1.000  H
  C82      1.0000 0.49340  0.16840  0.85610  Biso   1.000  C
  H38      1.0000 0.50630  0.21010  0.88110  Biso   1.000  H
  C83      1.0000 0.51900  0.10640  0.85420  Biso   1.000  C
  C84      1.0000 0.49860  0.05060  0.81800  Biso   1.000  C
  H39      1.0000 0.51470  0.01050  0.81640  Biso   1.000  H
  C85      1.0000 0.45360  0.04910  0.78190  Biso   1.000  C
  H40      1.0000 0.44010  0.00800  0.75640  Biso   1.000  H
  C86      1.0000 0.56700  0.11260  0.88840  Biso   1.000  C
  C87      1.0000 0.71460  0.29100  0.08960  Biso   1.000  C
  C88      1.0000 0.69720  0.23110  0.03900  Biso   1.000  C
  C89      1.0000 0.65220  0.22020  0.00090  Biso   1.000  C
  H41      1.0000 0.63310  0.24930  0.00890  Biso   1.000  H
  C90      1.0000 0.63480  0.16880  0.95230  Biso   1.000  C
  C91      1.0000 0.66420  0.12760  0.93880  Biso   1.000  C
  H42      1.0000 0.65350  0.09420  0.90420  Biso   1.000  H
  C92      1.0000 0.70900  0.13730  0.97730  Biso   1.000  C
  C93      1.0000 0.72560  0.18790  0.02660  Biso   1.000  C
  H43      1.0000 0.75590  0.19350  0.05180  Biso   1.000  H
  C94      1.0000 0.73950  0.09200  0.96070  Biso   1.000  C
  C95      1.0000 0.90410  0.91250  0.43620  Biso   1.000  C
  C96      1.0000 0.95200  0.90250  0.48500  Biso   1.000  C
  C97      1.0000 0.97700  0.84470  0.47540  Biso   1.000  C
  H44      1.0000 0.96380  0.81510  0.43830  Biso   1.000  H
  C98      1.0000 0.01850  0.83360  0.51910  Biso   1.000  C
  H45      1.0000 0.03390  0.79410  0.51460  Biso   1.000  H
  C99      1.0000 0.03830  0.88020  0.57020  Biso   1.000  C
  C100     1.0000 0.01510  0.93630  0.57840  Biso   1.000  C
  H46      1.0000 0.02850  0.96740  0.61440  Biso   1.000  H
  C101     1.0000 0.97310  0.94590  0.53430  Biso   1.000  C
  H47      1.0000 0.95830  0.98590  0.53930  Biso   1.000  H
  C102     1.0000 0.08570  0.87570  0.61310  Biso   1.000  C
  C103     1.0000 0.24250  0.97940  0.68600  Biso   1.000  C
  C104     1.0000 0.22050  0.90780  0.68580  Biso   1.000  C
  C105     1.0000 0.24730  0.84670  0.71580  Biso   1.000  C
  H48      1.0000 0.27770  0.85140  0.73780  Biso   1.000  H
  C106     1.0000 0.22760  0.77840  0.71210  Biso   1.000  C
  C107     1.0000 0.18160  0.77210  0.68070  Biso   1.000  C
  H49      1.0000 0.16860  0.72690  0.67920  Biso   1.000  H
  C108     1.0000 0.15570  0.83220  0.65210  Biso   1.000  C
  C109     1.0000 0.17590  0.90040  0.65580  Biso   1.000  C
  H50      1.0000 0.15840  0.94140  0.63730  Biso   1.000  H
  C110     1.0000 0.25630  0.71260  0.74440  Biso   1.000  C
  N7       1.0000 0.58940  0.16040  0.91210  Biso   1.000  N
  N8       1.0000 0.11110  0.82460  0.61160  Biso   1.000  N
  O29      1.0000 0.35390  0.11290  0.79800  Biso   1.000  O
  O30      1.0000 0.36480  0.04360  0.71780  Biso   1.000  O
  O31      1.0000 0.75498  0.29330  0.12640  Biso   1.000  O
  O32      1.0000 0.68604  0.33580  0.08900  Biso   1.000  O
  O33      1.0000 0.72500  0.05560  0.90850  Biso   1.000  O
  O34      1.0000 0.77931  0.09540  0.00230  Biso   1.000  O
  O35      1.0000 0.88080  0.95590  0.44080  Biso   1.000  O
  O36      1.0000 0.88990  0.87490  0.38030  Biso   1.000  O
  O37      1.0000 0.28194  0.98780  0.72060  Biso   1.000  O
  O38      1.0000 0.21747  0.03110  0.65010  Biso   1.000  O
  O39      1.0000 0.23930  0.65330  0.74440  Biso   1.000  O
  O40      1.0000 0.29710  0.72240  0.77190  Biso   1.000  O
  C111     1.0000 0.57390  0.13200  0.69180  Biso   1.000  C
  C112     1.0000 0.55780  0.15120  0.61860  Biso   1.000  C
  C113     1.0000 0.51240  0.15490  0.58230  Biso   1.000  C
  C114     1.0000 0.51550  0.15530  0.88480  Biso   1.000  C
  C115     1.0000 0.50030  0.14100  0.82530  Biso   1.000  C
  C116     1.0000 0.54760  0.13000  0.71900  Biso   1.000  C
  C117     1.0000 0.56410  0.16890  0.92540  Biso   1.000  C
  H51      1.0000 0.57650  0.15940  0.60100  Biso   1.000  H
  H52      1.0000 0.50080  0.15720  0.96330  Biso   1.000  H
  H53      1.0000 0.51950  0.13690  0.80780  Biso   1.000  H
  H54      1.0000 0.55860  0.12260  0.76380  Biso   1.000  H
  N9       1.0000 0.60490  0.33760  0.63930  Biso   1.000  N
  O41      1.0000 0.64160  0.15420  0.74590  Biso   1.000  O
  O42      1.0000 0.64260  0.15070  0.77650  Biso   1.000  O
  Cd10     1.0000 0.79000  0.60581  0.69087  Biso   1.000  Cd
  Cd11     1.0000 0.17860  0.88197  0.17600  Biso   1.000  Cd
  Cd12     1.0000 0.17738  0.94934  0.03658  Biso   1.000  Cd
  C118     1.0000 0.87890  0.60910  0.75410  Biso   1.000  C
  C119     1.0000 0.92870  0.60460  0.78220  Biso   1.000  C
  C120     1.0000 0.94940  0.66150  0.81890  Biso   1.000  C
  H55      1.0000 0.93220  0.70050  0.81930  Biso   1.000  H
  C121     1.0000 0.99340  0.66840  0.85610  Biso   1.000  C
  H56      1.0000 0.00630  0.71010  0.88110  Biso   1.000  H
  C122     1.0000 0.01900  0.60640  0.85420  Biso   1.000  C
  C123     1.0000 0.99860  0.55060  0.81800  Biso   1.000  C
  H57      1.0000 0.01470  0.51050  0.81640  Biso   1.000  H
  C124     1.0000 0.95360  0.54910  0.78190  Biso   1.000  C
  H58      1.0000 0.94010  0.50800  0.75640  Biso   1.000  H
  C125     1.0000 0.06700  0.61260  0.88840  Biso   1.000  C
  C126     1.0000 0.21460  0.79100  0.08960  Biso   1.000  C
  C127     1.0000 0.19720  0.73110  0.03900  Biso   1.000  C
  C128     1.0000 0.15220  0.72020  0.00090  Biso   1.000  C
  H59      1.0000 0.13310  0.74930  0.00890  Biso   1.000  H
  C129     1.0000 0.13480  0.66880  0.95230  Biso   1.000  C
  C130     1.0000 0.16420  0.62760  0.93880  Biso   1.000  C
  H60      1.0000 0.15350  0.59420  0.90420  Biso   1.000  H
  C131     1.0000 0.20900  0.63730  0.97730  Biso   1.000  C
  C132     1.0000 0.22560  0.68790  0.02660  Biso   1.000  C
  H61      1.0000 0.25590  0.69350  0.05180  Biso   1.000  H
  C133     1.0000 0.23950  0.59200  0.96070  Biso   1.000  C
  C134     1.0000 0.40410  0.41250  0.43620  Biso   1.000  C
  C135     1.0000 0.45200  0.40250  0.48500  Biso   1.000  C
  C136     1.0000 0.47700  0.34470  0.47540  Biso   1.000  C
  H62      1.0000 0.46380  0.31510  0.43830  Biso   1.000  H
  C137     1.0000 0.51850  0.33360  0.51910  Biso   1.000  C
  H63      1.0000 0.53390  0.29410  0.51460  Biso   1.000  H
  C138     1.0000 0.53830  0.38020  0.57020  Biso   1.000  C
  C139     1.0000 0.51510  0.43630  0.57840  Biso   1.000  C
  H64      1.0000 0.52850  0.46740  0.61440  Biso   1.000  H
  C140     1.0000 0.47310  0.44590  0.53430  Biso   1.000  C
  H65      1.0000 0.45830  0.48590  0.53930  Biso   1.000  H
  C141     1.0000 0.58570  0.37570  0.61310  Biso   1.000  C
  C142     1.0000 0.74250  0.47940  0.68600  Biso   1.000  C
  C143     1.0000 0.72050  0.40780  0.68580  Biso   1.000  C
  C144     1.0000 0.74730  0.34670  0.71580  Biso   1.000  C
  H66      1.0000 0.77770  0.35140  0.73780  Biso   1.000  H
  C145     1.0000 0.72760  0.27840  0.71210  Biso   1.000  C
  C146     1.0000 0.68160  0.27210  0.68070  Biso   1.000  C
  H67      1.0000 0.66860  0.22690  0.67920  Biso   1.000  H
  C147     1.0000 0.65570  0.33220  0.65210  Biso   1.000  C
  C148     1.0000 0.67590  0.40040  0.65580  Biso   1.000  C
  H68      1.0000 0.65840  0.44140  0.63730  Biso   1.000  H
  C149     1.0000 0.75630  0.21260  0.74440  Biso   1.000  C
  N10      1.0000 0.08940  0.66040  0.91210  Biso   1.000  N
  N11      1.0000 0.61110  0.32460  0.61160  Biso   1.000  N
  O43      1.0000 0.85390  0.61290  0.79800  Biso   1.000  O
  O44      1.0000 0.86480  0.54360  0.71780  Biso   1.000  O
  O45      1.0000 0.25498  0.79330  0.12640  Biso   1.000  O
  O46      1.0000 0.18604  0.83580  0.08900  Biso   1.000  O
  O47      1.0000 0.22500  0.55560  0.90850  Biso   1.000  O
  O48      1.0000 0.27931  0.59540  0.00230  Biso   1.000  O
  O49      1.0000 0.38080  0.45590  0.44080  Biso   1.000  O
  O50      1.0000 0.38990  0.37490  0.38030  Biso   1.000  O
  O51      1.0000 0.78194  0.48780  0.72060  Biso   1.000  O
  O52      1.0000 0.71747  0.53110  0.65010  Biso   1.000  O
  O53      1.0000 0.73930  0.15330  0.74440  Biso   1.000  O
  O54      1.0000 0.79710  0.22240  0.77190  Biso   1.000  O
  C150     1.0000 0.07390  0.63200  0.69180  Biso   1.000  C
  C151     1.0000 0.05780  0.65120  0.61860  Biso   1.000  C
  C152     1.0000 0.01240  0.65490  0.58230  Biso   1.000  C
  C153     1.0000 0.01550  0.65530  0.88480  Biso   1.000  C
  C154     1.0000 0.00030  0.64100  0.82530  Biso   1.000  C
  C155     1.0000 0.04760  0.63000  0.71900  Biso   1.000  C
  C156     1.0000 0.06410  0.66890  0.92540  Biso   1.000  C
  H69      1.0000 0.07650  0.65940  0.60100  Biso   1.000  H
  H70      1.0000 0.00080  0.65720  0.96330  Biso   1.000  H
  H71      1.0000 0.01950  0.63690  0.80780  Biso   1.000  H
  H72      1.0000 0.05860  0.62260  0.76380  Biso   1.000  H
  N12      1.0000 0.10490  0.83760  0.63930  Biso   1.000  N
  O55      1.0000 0.14160  0.65420  0.74590  Biso   1.000  O
  O56      1.0000 0.14260  0.65070  0.77650  Biso   1.000  O
  Cd13     1.0000 0.29000  0.89419  0.19087  Biso   1.000  Cd
  Cd14     1.0000 0.67860  0.61803  0.67600  Biso   1.000  Cd
  Cd15     1.0000 0.67738  0.55066  0.53658  Biso   1.000  Cd
  C157     1.0000 0.37890  0.89090  0.25410  Biso   1.000  C
  C158     1.0000 0.42870  0.89540  0.28220  Biso   1.000  C
  C159     1.0000 0.44940  0.83850  0.31890  Biso   1.000  C
  H73      1.0000 0.43220  0.79950  0.31930  Biso   1.000  H
  C160     1.0000 0.49340  0.83160  0.35610  Biso   1.000  C
  H74      1.0000 0.50630  0.78990  0.38110  Biso   1.000  H
  C161     1.0000 0.51900  0.89360  0.35420  Biso   1.000  C
  C162     1.0000 0.49860  0.94940  0.31800  Biso   1.000  C
  H75      1.0000 0.51470  0.98950  0.31640  Biso   1.000  H
  C163     1.0000 0.45360  0.95090  0.28190  Biso   1.000  C
  H76      1.0000 0.44010  0.99200  0.25640  Biso   1.000  H
  C164     1.0000 0.56700  0.88740  0.38840  Biso   1.000  C
  C165     1.0000 0.71460  0.70900  0.58960  Biso   1.000  C
  C166     1.0000 0.69720  0.76890  0.53900  Biso   1.000  C
  C167     1.0000 0.65220  0.77980  0.50090  Biso   1.000  C
  H77      1.0000 0.63310  0.75070  0.50890  Biso   1.000  H
  C168     1.0000 0.63480  0.83120  0.45230  Biso   1.000  C
  C169     1.0000 0.66420  0.87240  0.43880  Biso   1.000  C
  H78      1.0000 0.65350  0.90580  0.40420  Biso   1.000  H
  C170     1.0000 0.70900  0.86270  0.47730  Biso   1.000  C
  C171     1.0000 0.72560  0.81210  0.52660  Biso   1.000  C
  H79      1.0000 0.75590  0.80650  0.55180  Biso   1.000  H
  C172     1.0000 0.73950  0.90800  0.46070  Biso   1.000  C
  C173     1.0000 0.90410  0.08750  0.93620  Biso   1.000  C
  C174     1.0000 0.95200  0.09750  0.98500  Biso   1.000  C
  C175     1.0000 0.97700  0.15530  0.97540  Biso   1.000  C
  H80      1.0000 0.96380  0.18490  0.93830  Biso   1.000  H
  C176     1.0000 0.01850  0.16640  0.01910  Biso   1.000  C
  H81      1.0000 0.03390  0.20590  0.01460  Biso   1.000  H
  C177     1.0000 0.03830  0.11980  0.07020  Biso   1.000  C
  C178     1.0000 0.01510  0.06370  0.07840  Biso   1.000  C
  H82      1.0000 0.02850  0.03260  0.11440  Biso   1.000  H
  C179     1.0000 0.97310  0.05410  0.03430  Biso   1.000  C
  H83      1.0000 0.95830  0.01410  0.03930  Biso   1.000  H
  C180     1.0000 0.08570  0.12430  0.11310  Biso   1.000  C
  C181     1.0000 0.24250  0.02060  0.18600  Biso   1.000  C
  C182     1.0000 0.22050  0.09220  0.18580  Biso   1.000  C
  C183     1.0000 0.24730  0.15330  0.21580  Biso   1.000  C
  H84      1.0000 0.27770  0.14860  0.23780  Biso   1.000  H
  C184     1.0000 0.22760  0.22160  0.21210  Biso   1.000  C
  C185     1.0000 0.18160  0.22790  0.18070  Biso   1.000  C
  H85      1.0000 0.16860  0.27310  0.17920  Biso   1.000  H
  C186     1.0000 0.15570  0.16780  0.15210  Biso   1.000  C
  C187     1.0000 0.17590  0.09960  0.15580  Biso   1.000  C
  H86      1.0000 0.15840  0.05860  0.13730  Biso   1.000  H
  C188     1.0000 0.25630  0.28740  0.24440  Biso   1.000  C
  N13      1.0000 0.58940  0.83960  0.41210  Biso   1.000  N
  N14      1.0000 0.11110  0.17540  0.11160  Biso   1.000  N
  O57      1.0000 0.35390  0.88710  0.29800  Biso   1.000  O
  O58      1.0000 0.36480  0.95640  0.21780  Biso   1.000  O
  O59      1.0000 0.75498  0.70670  0.62640  Biso   1.000  O
  O60      1.0000 0.68604  0.66420  0.58900  Biso   1.000  O
  O61      1.0000 0.72500  0.94440  0.40850  Biso   1.000  O
  O62      1.0000 0.77931  0.90460  0.50230  Biso   1.000  O
  O63      1.0000 0.88080  0.04410  0.94080  Biso   1.000  O
  O64      1.0000 0.88990  0.12510  0.88030  Biso   1.000  O
  O65      1.0000 0.28194  0.01220  0.22060  Biso   1.000  O
  O66      1.0000 0.21747  0.96890  0.15010  Biso   1.000  O
  O67      1.0000 0.23930  0.34670  0.24440  Biso   1.000  O
  O68      1.0000 0.29710  0.27760  0.27190  Biso   1.000  O
  C189     1.0000 0.57390  0.86800  0.19180  Biso   1.000  C
  C190     1.0000 0.55780  0.84880  0.11860  Biso   1.000  C
  C191     1.0000 0.51240  0.84510  0.08230  Biso   1.000  C
  C192     1.0000 0.51550  0.84470  0.38480  Biso   1.000  C
  C193     1.0000 0.50030  0.85900  0.32530  Biso   1.000  C
  C194     1.0000 0.54760  0.87000  0.21900  Biso   1.000  C
  C195     1.0000 0.56410  0.83110  0.42540  Biso   1.000  C
  H87      1.0000 0.57650  0.84060  0.10100  Biso   1.000  H
  H88      1.0000 0.50080  0.84280  0.46330  Biso   1.000  H
  H89      1.0000 0.51950  0.86310  0.30780  Biso   1.000  H
  H90      1.0000 0.55860  0.87740  0.26380  Biso   1.000  H
  N15      1.0000 0.60490  0.66240  0.13930  Biso   1.000  N
  O69      1.0000 0.64160  0.84580  0.24590  Biso   1.000  O
  O70      1.0000 0.64260  0.84930  0.27650  Biso   1.000  O
  Cd16     1.0000 0.79000  0.39419  0.19087  Biso   1.000  Cd
  Cd17     1.0000 0.17860  0.11803  0.67600  Biso   1.000  Cd
  Cd18     1.0000 0.17738  0.05066  0.53658  Biso   1.000  Cd
  C196     1.0000 0.87890  0.39090  0.25410  Biso   1.000  C
  C197     1.0000 0.92870  0.39540  0.28220  Biso   1.000  C
  C198     1.0000 0.94940  0.33850  0.31890  Biso   1.000  C
  H91      1.0000 0.93220  0.29950  0.31930  Biso   1.000  H
  C199     1.0000 0.99340  0.33160  0.35610  Biso   1.000  C
  H92      1.0000 0.00630  0.28990  0.38110  Biso   1.000  H
  C200     1.0000 0.01900  0.39360  0.35420  Biso   1.000  C
  C201     1.0000 0.99860  0.44940  0.31800  Biso   1.000  C
  H93      1.0000 0.01470  0.48950  0.31640  Biso   1.000  H
  C202     1.0000 0.95360  0.45090  0.28190  Biso   1.000  C
  H94      1.0000 0.94010  0.49200  0.25640  Biso   1.000  H
  C203     1.0000 0.06700  0.38740  0.38840  Biso   1.000  C
  C204     1.0000 0.21460  0.20900  0.58960  Biso   1.000  C
  C205     1.0000 0.19720  0.26890  0.53900  Biso   1.000  C
  C206     1.0000 0.15220  0.27980  0.50090  Biso   1.000  C
  H95      1.0000 0.13310  0.25070  0.50890  Biso   1.000  H
  C207     1.0000 0.13480  0.33120  0.45230  Biso   1.000  C
  C208     1.0000 0.16420  0.37240  0.43880  Biso   1.000  C
  H96      1.0000 0.15350  0.40580  0.40420  Biso   1.000  H
  C209     1.0000 0.20900  0.36270  0.47730  Biso   1.000  C
  C210     1.0000 0.22560  0.31210  0.52660  Biso   1.000  C
  H97      1.0000 0.25590  0.30650  0.55180  Biso   1.000  H
  C211     1.0000 0.23950  0.40800  0.46070  Biso   1.000  C
  C212     1.0000 0.40410  0.58750  0.93620  Biso   1.000  C
  C213     1.0000 0.45200  0.59750  0.98500  Biso   1.000  C
  C214     1.0000 0.47700  0.65530  0.97540  Biso   1.000  C
  H98      1.0000 0.46380  0.68490  0.93830  Biso   1.000  H
  C215     1.0000 0.51850  0.66640  0.01910  Biso   1.000  C
  H99      1.0000 0.53390  0.70590  0.01460  Biso   1.000  H
  C216     1.0000 0.53830  0.61980  0.07020  Biso   1.000  C
  C217     1.0000 0.51510  0.56370  0.07840  Biso   1.000  C
  H100     1.0000 0.52850  0.53260  0.11440  Biso   1.000  H
  C218     1.0000 0.47310  0.55410  0.03430  Biso   1.000  C
  H101     1.0000 0.45830  0.51410  0.03930  Biso   1.000  H
  C219     1.0000 0.58570  0.62430  0.11310  Biso   1.000  C
  C220     1.0000 0.74250  0.52060  0.18600  Biso   1.000  C
  C221     1.0000 0.72050  0.59220  0.18580  Biso   1.000  C
  C222     1.0000 0.74730  0.65330  0.21580  Biso   1.000  C
  H102     1.0000 0.77770  0.64860  0.23780  Biso   1.000  H
  C223     1.0000 0.72760  0.72160  0.21210  Biso   1.000  C
  C224     1.0000 0.68160  0.72790  0.18070  Biso   1.000  C
  H103     1.0000 0.66860  0.77310  0.17920  Biso   1.000  H
  C225     1.0000 0.65570  0.66780  0.15210  Biso   1.000  C
  C226     1.0000 0.67590  0.59960  0.15580  Biso   1.000  C
  H104     1.0000 0.65840  0.55860  0.13730  Biso   1.000  H
  C227     1.0000 0.75630  0.78740  0.24440  Biso   1.000  C
  N16      1.0000 0.08940  0.33960  0.41210  Biso   1.000  N
  N17      1.0000 0.61110  0.67540  0.11160  Biso   1.000  N
  O71      1.0000 0.85390  0.38710  0.29800  Biso   1.000  O
  O72      1.0000 0.86480  0.45640  0.21780  Biso   1.000  O
  O73      1.0000 0.25498  0.20670  0.62640  Biso   1.000  O
  O74      1.0000 0.18604  0.16420  0.58900  Biso   1.000  O
  O75      1.0000 0.22500  0.44440  0.40850  Biso   1.000  O
  O76      1.0000 0.27931  0.40460  0.50230  Biso   1.000  O
  O77      1.0000 0.38080  0.54410  0.94080  Biso   1.000  O
  O78      1.0000 0.38990  0.62510  0.88030  Biso   1.000  O
  O79      1.0000 0.78194  0.51220  0.22060  Biso   1.000  O
  O80      1.0000 0.71747  0.46890  0.15010  Biso   1.000  O
  O81      1.0000 0.73930  0.84670  0.24440  Biso   1.000  O
  O82      1.0000 0.79710  0.77760  0.27190  Biso   1.000  O
  C228     1.0000 0.07390  0.36800  0.19180  Biso   1.000  C
  C229     1.0000 0.05780  0.34880  0.11860  Biso   1.000  C
  C230     1.0000 0.01240  0.34510  0.08230  Biso   1.000  C
  C231     1.0000 0.01550  0.34470  0.38480  Biso   1.000  C
  C232     1.0000 0.00030  0.35900  0.32530  Biso   1.000  C
  C233     1.0000 0.04760  0.37000  0.21900  Biso   1.000  C
  C234     1.0000 0.06410  0.33110  0.42540  Biso   1.000  C
  H105     1.0000 0.07650  0.34060  0.10100  Biso   1.000  H
  H106     1.0000 0.00080  0.34280  0.46330  Biso   1.000  H
  H107     1.0000 0.01950  0.36310  0.30780  Biso   1.000  H
  H108     1.0000 0.05860  0.37740  0.26380  Biso   1.000  H
  N18      1.0000 0.10490  0.16240  0.13930  Biso   1.000  N
  O83      1.0000 0.14160  0.34580  0.24590  Biso   1.000  O
  O84      1.0000 0.14260  0.34930  0.27650  Biso   1.000  O
  Cd19     1.0000 0.71000  0.89419  0.30913  Biso   1.000  Cd
  Cd20     1.0000 0.32140  0.61803  0.82400  Biso   1.000  Cd
  Cd21     1.0000 0.32262  0.55066  0.96342  Biso   1.000  Cd
  C235     1.0000 0.62110  0.89090  0.24590  Biso   1.000  C
  C236     1.0000 0.57130  0.89540  0.21780  Biso   1.000  C
  C237     1.0000 0.55060  0.83850  0.18110  Biso   1.000  C
  H109     1.0000 0.56780  0.79950  0.18070  Biso   1.000  H
  C238     1.0000 0.50660  0.83160  0.14390  Biso   1.000  C
  H110     1.0000 0.49370  0.78990  0.11890  Biso   1.000  H
  C239     1.0000 0.48100  0.89360  0.14580  Biso   1.000  C
  C240     1.0000 0.50140  0.94940  0.18200  Biso   1.000  C
  H111     1.0000 0.48530  0.98950  0.18360  Biso   1.000  H
  C241     1.0000 0.54640  0.95090  0.21810  Biso   1.000  C
  H112     1.0000 0.55990  0.99200  0.24360  Biso   1.000  H
  C242     1.0000 0.43300  0.88740  0.11160  Biso   1.000  C
  C243     1.0000 0.28540  0.70900  0.91040  Biso   1.000  C
  C244     1.0000 0.30280  0.76890  0.96100  Biso   1.000  C
  C245     1.0000 0.34780  0.77980  0.99910  Biso   1.000  C
  H113     1.0000 0.36690  0.75070  0.99110  Biso   1.000  H
  C246     1.0000 0.36520  0.83120  0.04770  Biso   1.000  C
  C247     1.0000 0.33580  0.87240  0.06120  Biso   1.000  C
  H114     1.0000 0.34650  0.90580  0.09580  Biso   1.000  H
  C248     1.0000 0.29100  0.86270  0.02270  Biso   1.000  C
  C249     1.0000 0.27440  0.81210  0.97340  Biso   1.000  C
  H115     1.0000 0.24410  0.80650  0.94820  Biso   1.000  H
  C250     1.0000 0.26050  0.90800  0.03930  Biso   1.000  C
  C251     1.0000 0.09590  0.08750  0.56380  Biso   1.000  C
  C252     1.0000 0.04800  0.09750  0.51500  Biso   1.000  C
  C253     1.0000 0.02300  0.15530  0.52460  Biso   1.000  C
  H116     1.0000 0.03620  0.18490  0.56170  Biso   1.000  H
  C254     1.0000 0.98150  0.16640  0.48090  Biso   1.000  C
  H117     1.0000 0.96610  0.20590  0.48540  Biso   1.000  H
  C255     1.0000 0.96170  0.11980  0.42980  Biso   1.000  C
  C256     1.0000 0.98490  0.06370  0.42160  Biso   1.000  C
  H118     1.0000 0.97150  0.03260  0.38560  Biso   1.000  H
  C257     1.0000 0.02690  0.05410  0.46570  Biso   1.000  C
  H119     1.0000 0.04170  0.01410  0.46070  Biso   1.000  H
  C258     1.0000 0.91430  0.12430  0.38690  Biso   1.000  C
  C259     1.0000 0.75750  0.02060  0.31400  Biso   1.000  C
  C260     1.0000 0.77950  0.09220  0.31420  Biso   1.000  C
  C261     1.0000 0.75270  0.15330  0.28420  Biso   1.000  C
  H120     1.0000 0.72230  0.14860  0.26220  Biso   1.000  H
  C262     1.0000 0.77240  0.22160  0.28790  Biso   1.000  C
  C263     1.0000 0.81840  0.22790  0.31930  Biso   1.000  C
  H121     1.0000 0.83140  0.27310  0.32080  Biso   1.000  H
  C264     1.0000 0.84430  0.16780  0.34790  Biso   1.000  C
  C265     1.0000 0.82410  0.09960  0.34420  Biso   1.000  C
  H122     1.0000 0.84160  0.05860  0.36270  Biso   1.000  H
  C266     1.0000 0.74370  0.28740  0.25560  Biso   1.000  C
  N19      1.0000 0.41060  0.83960  0.08790  Biso   1.000  N
  N20      1.0000 0.88890  0.17540  0.38840  Biso   1.000  N
  O85      1.0000 0.64610  0.88710  0.20200  Biso   1.000  O
  O86      1.0000 0.63520  0.95640  0.28220  Biso   1.000  O
  O87      1.0000 0.24502  0.70670  0.87360  Biso   1.000  O
  O88      1.0000 0.31396  0.66420  0.91100  Biso   1.000  O
  O89      1.0000 0.27500  0.94440  0.09150  Biso   1.000  O
  O90      1.0000 0.22069  0.90460  0.99770  Biso   1.000  O
  O91      1.0000 0.11920  0.04410  0.55920  Biso   1.000  O
  O92      1.0000 0.11010  0.12510  0.61970  Biso   1.000  O
  O93      1.0000 0.71806  0.01220  0.27940  Biso   1.000  O
  O94      1.0000 0.78253  0.96890  0.34990  Biso   1.000  O
  O95      1.0000 0.76070  0.34670  0.25560  Biso   1.000  O
  O96      1.0000 0.70290  0.27760  0.22810  Biso   1.000  O
  C267     1.0000 0.42610  0.86800  0.30820  Biso   1.000  C
  C268     1.0000 0.44220  0.84880  0.38140  Biso   1.000  C
  C269     1.0000 0.48760  0.84510  0.41770  Biso   1.000  C
  C270     1.0000 0.48450  0.84470  0.11520  Biso   1.000  C
  C271     1.0000 0.49970  0.85900  0.17470  Biso   1.000  C
  C272     1.0000 0.45240  0.87000  0.28100  Biso   1.000  C
  C273     1.0000 0.43590  0.83110  0.07460  Biso   1.000  C
  H123     1.0000 0.42350  0.84060  0.39900  Biso   1.000  H
  H124     1.0000 0.49920  0.84280  0.03670  Biso   1.000  H
  H125     1.0000 0.48050  0.86310  0.19220  Biso   1.000  H
  H126     1.0000 0.44140  0.87740  0.23620  Biso   1.000  H
  N21      1.0000 0.39510  0.66240  0.36070  Biso   1.000  N
  O97      1.0000 0.35840  0.84580  0.25410  Biso   1.000  O
  O98      1.0000 0.35740  0.84930  0.22350  Biso   1.000  O
  Cd22     1.0000 0.21000  0.39419  0.30913  Biso   1.000  Cd
  Cd23     1.0000 0.82140  0.11803  0.82400  Biso   1.000  Cd
  Cd24     1.0000 0.82262  0.05066  0.96342  Biso   1.000  Cd
  C274     1.0000 0.12110  0.39090  0.24590  Biso   1.000  C
  C275     1.0000 0.07130  0.39540  0.21780  Biso   1.000  C
  C276     1.0000 0.05060  0.33850  0.18110  Biso   1.000  C
  H127     1.0000 0.06780  0.29950  0.18070  Biso   1.000  H
  C277     1.0000 0.00660  0.33160  0.14390  Biso   1.000  C
  H128     1.0000 0.99370  0.28990  0.11890  Biso   1.000  H
  C278     1.0000 0.98100  0.39360  0.14580  Biso   1.000  C
  C279     1.0000 0.00140  0.44940  0.18200  Biso   1.000  C
  H129     1.0000 0.98530  0.48950  0.18360  Biso   1.000  H
  C280     1.0000 0.04640  0.45090  0.21810  Biso   1.000  C
  H130     1.0000 0.05990  0.49200  0.24360  Biso   1.000  H
  C281     1.0000 0.93300  0.38740  0.11160  Biso   1.000  C
  C282     1.0000 0.78540  0.20900  0.91040  Biso   1.000  C
  C283     1.0000 0.80280  0.26890  0.96100  Biso   1.000  C
  C284     1.0000 0.84780  0.27980  0.99910  Biso   1.000  C
  H131     1.0000 0.86690  0.25070  0.99110  Biso   1.000  H
  C285     1.0000 0.86520  0.33120  0.04770  Biso   1.000  C
  C286     1.0000 0.83580  0.37240  0.06120  Biso   1.000  C
  H132     1.0000 0.84650  0.40580  0.09580  Biso   1.000  H
  C287     1.0000 0.79100  0.36270  0.02270  Biso   1.000  C
  C288     1.0000 0.77440  0.31210  0.97340  Biso   1.000  C
  H133     1.0000 0.74410  0.30650  0.94820  Biso   1.000  H
  C289     1.0000 0.76050  0.40800  0.03930  Biso   1.000  C
  C290     1.0000 0.59590  0.58750  0.56380  Biso   1.000  C
  C291     1.0000 0.54800  0.59750  0.51500  Biso   1.000  C
  C292     1.0000 0.52300  0.65530  0.52460  Biso   1.000  C
  H134     1.0000 0.53620  0.68490  0.56170  Biso   1.000  H
  C293     1.0000 0.48150  0.66640  0.48090  Biso   1.000  C
  H135     1.0000 0.46610  0.70590  0.48540  Biso   1.000  H
  C294     1.0000 0.46170  0.61980  0.42980  Biso   1.000  C
  C295     1.0000 0.48490  0.56370  0.42160  Biso   1.000  C
  H136     1.0000 0.47150  0.53260  0.38560  Biso   1.000  H
  C296     1.0000 0.52690  0.55410  0.46570  Biso   1.000  C
  H137     1.0000 0.54170  0.51410  0.46070  Biso   1.000  H
  C297     1.0000 0.41430  0.62430  0.38690  Biso   1.000  C
  C298     1.0000 0.25750  0.52060  0.31400  Biso   1.000  C
  C299     1.0000 0.27950  0.59220  0.31420  Biso   1.000  C
  C300     1.0000 0.25270  0.65330  0.28420  Biso   1.000  C
  H138     1.0000 0.22230  0.64860  0.26220  Biso   1.000  H
  C301     1.0000 0.27240  0.72160  0.28790  Biso   1.000  C
  C302     1.0000 0.31840  0.72790  0.31930  Biso   1.000  C
  H139     1.0000 0.33140  0.77310  0.32080  Biso   1.000  H
  C303     1.0000 0.34430  0.66780  0.34790  Biso   1.000  C
  C304     1.0000 0.32410  0.59960  0.34420  Biso   1.000  C
  H140     1.0000 0.34160  0.55860  0.36270  Biso   1.000  H
  C305     1.0000 0.24370  0.78740  0.25560  Biso   1.000  C
  N22      1.0000 0.91060  0.33960  0.08790  Biso   1.000  N
  N23      1.0000 0.38890  0.67540  0.38840  Biso   1.000  N
  O99      1.0000 0.14610  0.38710  0.20200  Biso   1.000  O
  O100     1.0000 0.13520  0.45640  0.28220  Biso   1.000  O
  O101     1.0000 0.74502  0.20670  0.87360  Biso   1.000  O
  O102     1.0000 0.81396  0.16420  0.91100  Biso   1.000  O
  O103     1.0000 0.77500  0.44440  0.09150  Biso   1.000  O
  O104     1.0000 0.72069  0.40460  0.99770  Biso   1.000  O
  O105     1.0000 0.61920  0.54410  0.55920  Biso   1.000  O
  O106     1.0000 0.61010  0.62510  0.61970  Biso   1.000  O
  O107     1.0000 0.21806  0.51220  0.27940  Biso   1.000  O
  O108     1.0000 0.28253  0.46890  0.34990  Biso   1.000  O
  O109     1.0000 0.26070  0.84670  0.25560  Biso   1.000  O
  O110     1.0000 0.20290  0.77760  0.22810  Biso   1.000  O
  C306     1.0000 0.92610  0.36800  0.30820  Biso   1.000  C
  C307     1.0000 0.94220  0.34880  0.38140  Biso   1.000  C
  C308     1.0000 0.98760  0.34510  0.41770  Biso   1.000  C
  C309     1.0000 0.98450  0.34470  0.11520  Biso   1.000  C
  C310     1.0000 0.99970  0.35900  0.17470  Biso   1.000  C
  C311     1.0000 0.95240  0.37000  0.28100  Biso   1.000  C
  C312     1.0000 0.93590  0.33110  0.07460  Biso   1.000  C
  H141     1.0000 0.92350  0.34060  0.39900  Biso   1.000  H
  H142     1.0000 0.99920  0.34280  0.03670  Biso   1.000  H
  H143     1.0000 0.98050  0.36310  0.19220  Biso   1.000  H
  H144     1.0000 0.94140  0.37740  0.23620  Biso   1.000  H
  N24      1.0000 0.89510  0.16240  0.36070  Biso   1.000  N
  O111     1.0000 0.85840  0.34580  0.25410  Biso   1.000  O
  O112     1.0000 0.85740  0.34930  0.22350  Biso   1.000  O
