data_image0
_cell_length_a       33.943
_cell_length_b       18.5224
_cell_length_c       21.2174
_cell_angle_alpha    90
_cell_angle_beta     116.291
_cell_angle_gamma    90

_symmetry_space_group_name_H-M    "P 1"
_symmetry_int_tables_number       1

loop_
  _symmetry_equiv_pos_as_xyz
  'x, y, z'

loop_
  _atom_site_label
  _atom_site_occupancy
  _atom_site_fract_x
  _atom_site_fract_y
  _atom_site_fract_z
  _atom_site_thermal_displace_type
  _atom_site_B_iso_or_equiv
  _atom_site_type_symbol
  Cd1      1.0000 0.70985  0.09876  0.80078  Biso   1.000  Cd
  Cd2      1.0000 0.32245  0.38881  0.30651  Biso   1.000  Cd
  Cd3      1.0000 0.32203  0.44911  0.46072  Biso   1.000  Cd
  C1       1.0000 0.62230  0.10530  0.73400  Biso   1.000  C
  C2       1.0000 0.57180  0.10300  0.70960  Biso   1.000  C
  C3       1.0000 0.57370  0.13600  0.68260  Biso   1.000  C
  C4       1.0000 0.55500  0.16800  0.67440  Biso   1.000  C
  H1       1.0000 0.57200  0.20620  0.67170  Biso   1.000  H
  C5       1.0000 0.55690  0.15500  0.62580  Biso   1.000  C
  H2       1.0000 0.57820  0.16380  0.61050  Biso   1.000  H
  C6       1.0000 0.50010  0.16700  0.63770  Biso   1.000  C
  H3       1.0000 0.48390  0.20650  0.61220  Biso   1.000  H
  C7       1.0000 0.51470  0.17000  0.57000  Biso   1.000  C
  H4       1.0000 0.50730  0.18220  0.52320  Biso   1.000  H
  C8       1.0000 0.48040  0.10960  0.64570  Biso   1.000  C
  C9       1.0000 0.47900  0.15860  0.61300  Biso   1.000  C
  C10      1.0000 0.49820  0.04640  0.68110  Biso   1.000  C
  H5       1.0000 0.48190  0.00760  0.68460  Biso   1.000  H
  C11      1.0000 0.49790  0.13600  0.67500  Biso   1.000  C
  H6       1.0000 0.48570  0.13410  0.70660  Biso   1.000  H
  C12      1.0000 0.54360  0.04900  0.71090  Biso   1.000  C
  H7       1.0000 0.55760  0.00730  0.73560  Biso   1.000  H
  C13      1.0000 0.54300  0.11200  0.69000  Biso   1.000  C
  H8       1.0000 0.54920  0.06670  0.70990  Biso   1.000  H
  C14      1.0000 0.43800  0.12700  0.61500  Biso   1.000  C
  C15      1.0000 0.43950  0.17700  0.57940  Biso   1.000  C
  C16      1.0000 0.28470  0.29400  0.40210  Biso   1.000  C
  C17      1.0000 0.30170  0.23180  0.44720  Biso   1.000  C
  C18      1.0000 0.34850  0.22090  0.48510  Biso   1.000  C
  H9       1.0000 0.36810  0.25030  0.47740  Biso   1.000  H
  C19      1.0000 0.36350  0.16380  0.53450  Biso   1.000  C
  C20      1.0000 0.33450  0.12280  0.54980  Biso   1.000  C
  H10      1.0000 0.34530  0.08560  0.58250  Biso   1.000  H
  C21      1.0000 0.28890  0.13680  0.51680  Biso   1.000  C
  C22      1.0000 0.27380  0.19130  0.46470  Biso   1.000  C
  H11      1.0000 0.24380  0.20030  0.44120  Biso   1.000  H
  C23      1.0000 0.25940  0.09480  0.53370  Biso   1.000  C
  C24      1.0000 0.09570  0.91580  0.07920  Biso   1.000  C
  C25      1.0000 0.04410  0.90810  0.02970  Biso   1.000  C
  C26      1.0000 0.02430  0.84990  0.04860  Biso   1.000  C
  H12      1.0000 0.03820  0.81260  0.08000  Biso   1.000  H
  C27      1.0000 0.98330  0.86000  0.01320  Biso   1.000  C
  H13      1.0000 0.96660  0.85850  0.03810  Biso   1.000  H
  C28      1.0000 0.96190  0.87320  0.94610  Biso   1.000  C
  C29      1.0000 0.98500  0.92310  0.92270  Biso   1.000  C
  H14      1.0000 0.97050  0.94390  0.87830  Biso   1.000  H
  C30      1.0000 0.02770  0.94070  0.96420  Biso   1.000  C
  H15      1.0000 0.04410  0.97120  0.95010  Biso   1.000  H
  C31      1.0000 0.91450  0.86450  0.91050  Biso   1.000  C
  C32      1.0000 0.75780  0.96920  0.80840  Biso   1.000  C
  C33      1.0000 0.77860  0.90040  0.81780  Biso   1.000  C
  C34      1.0000 0.75370  0.83850  0.78910  Biso   1.000  C
  H16      1.0000 0.72350  0.84240  0.76240  Biso   1.000  H
  C35      1.0000 0.77370  0.77040  0.80010  Biso   1.000  C
  C36      1.0000 0.81890  0.76760  0.83230  Biso   1.000  C
  H17      1.0000 0.83270  0.72290  0.83890  Biso   1.000  H
  C37      1.0000 0.84430  0.82890  0.85520  Biso   1.000  C
  C38      1.0000 0.82450  0.89530  0.85050  Biso   1.000  C
  H18      1.0000 0.84160  0.93640  0.86900  Biso   1.000  H
  C39      1.0000 0.74550  0.70580  0.77420  Biso   1.000  C
  N1       1.0000 0.41000  0.15340  0.57450  Biso   1.000  N
  N2       1.0000 0.89080  0.82440  0.89720  Biso   1.000  N
  O1       1.0000 0.64270  0.10750  0.69310  Biso   1.000  O
  O2       1.0000 0.64310  0.14210  0.73050  Biso   1.000  O
  O3       1.0000 0.63610  0.04660  0.78270  Biso   1.000  O
  O4       1.0000 0.24420  0.29920  0.36310  Biso   1.000  O
  O5       1.0000 0.31320  0.33810  0.39810  Biso   1.000  O
  O6       1.0000 0.27180  0.05570  0.58670  Biso   1.000  O
  O7       1.0000 0.21770  0.09800  0.48980  Biso   1.000  O
  O8       1.0000 0.12050  0.95170  0.07500  Biso   1.000  O
  O9       1.0000 0.11050  0.88080  0.13920  Biso   1.000  O
  O10      1.0000 0.71720  0.97850  0.77480  Biso   1.000  O
  O11      1.0000 0.78220  0.02660  0.84020  Biso   1.000  O
  O12      1.0000 0.76290  0.64460  0.77580  Biso   1.000  O
  O13      1.0000 0.70570  0.71390  0.74960  Biso   1.000  O
  N3       1.0000 0.39040  0.33500  0.85900  Biso   1.000  N
  O14      1.0000 0.35720  0.16170  0.73430  Biso   1.000  O
  Cd4      1.0000 0.20985  0.59876  0.80078  Biso   1.000  Cd
  Cd5      1.0000 0.82245  0.88881  0.30651  Biso   1.000  Cd
  Cd6      1.0000 0.82203  0.94911  0.46072  Biso   1.000  Cd
  C40      1.0000 0.12230  0.60530  0.73400  Biso   1.000  C
  C41      1.0000 0.07180  0.60300  0.70960  Biso   1.000  C
  C42      1.0000 0.07370  0.63600  0.68260  Biso   1.000  C
  C43      1.0000 0.05500  0.66800  0.67440  Biso   1.000  C
  H19      1.0000 0.07200  0.70620  0.67170  Biso   1.000  H
  C44      1.0000 0.05690  0.65500  0.62580  Biso   1.000  C
  H20      1.0000 0.07820  0.66380  0.61050  Biso   1.000  H
  C45      1.0000 0.00010  0.66700  0.63770  Biso   1.000  C
  H21      1.0000 0.98390  0.70650  0.61220  Biso   1.000  H
  C46      1.0000 0.01470  0.67000  0.57000  Biso   1.000  C
  H22      1.0000 0.00730  0.68220  0.52320  Biso   1.000  H
  C47      1.0000 0.98040  0.60960  0.64570  Biso   1.000  C
  C48      1.0000 0.97900  0.65860  0.61300  Biso   1.000  C
  C49      1.0000 0.99820  0.54640  0.68110  Biso   1.000  C
  H23      1.0000 0.98190  0.50760  0.68460  Biso   1.000  H
  C50      1.0000 0.99790  0.63600  0.67500  Biso   1.000  C
  H24      1.0000 0.98570  0.63410  0.70660  Biso   1.000  H
  C51      1.0000 0.04360  0.54900  0.71090  Biso   1.000  C
  H25      1.0000 0.05760  0.50730  0.73560  Biso   1.000  H
  C52      1.0000 0.04300  0.61200  0.69000  Biso   1.000  C
  H26      1.0000 0.04920  0.56670  0.70990  Biso   1.000  H
  C53      1.0000 0.93800  0.62700  0.61500  Biso   1.000  C
  C54      1.0000 0.93950  0.67700  0.57940  Biso   1.000  C
  C55      1.0000 0.78470  0.79400  0.40210  Biso   1.000  C
  C56      1.0000 0.80170  0.73180  0.44720  Biso   1.000  C
  C57      1.0000 0.84850  0.72090  0.48510  Biso   1.000  C
  H27      1.0000 0.86810  0.75030  0.47740  Biso   1.000  H
  C58      1.0000 0.86350  0.66380  0.53450  Biso   1.000  C
  C59      1.0000 0.83450  0.62280  0.54980  Biso   1.000  C
  H28      1.0000 0.84530  0.58560  0.58250  Biso   1.000  H
  C60      1.0000 0.78890  0.63680  0.51680  Biso   1.000  C
  C61      1.0000 0.77380  0.69130  0.46470  Biso   1.000  C
  H29      1.0000 0.74380  0.70030  0.44120  Biso   1.000  H
  C62      1.0000 0.75940  0.59480  0.53370  Biso   1.000  C
  C63      1.0000 0.59570  0.41580  0.07920  Biso   1.000  C
  C64      1.0000 0.54410  0.40810  0.02970  Biso   1.000  C
  C65      1.0000 0.52430  0.34990  0.04860  Biso   1.000  C
  H30      1.0000 0.53820  0.31260  0.08000  Biso   1.000  H
  C66      1.0000 0.48330  0.36000  0.01320  Biso   1.000  C
  H31      1.0000 0.46660  0.35850  0.03810  Biso   1.000  H
  C67      1.0000 0.46190  0.37320  0.94610  Biso   1.000  C
  C68      1.0000 0.48500  0.42310  0.92270  Biso   1.000  C
  H32      1.0000 0.47050  0.44390  0.87830  Biso   1.000  H
  C69      1.0000 0.52770  0.44070  0.96420  Biso   1.000  C
  H33      1.0000 0.54410  0.47120  0.95010  Biso   1.000  H
  C70      1.0000 0.41450  0.36450  0.91050  Biso   1.000  C
  C71      1.0000 0.25780  0.46920  0.80840  Biso   1.000  C
  C72      1.0000 0.27860  0.40040  0.81780  Biso   1.000  C
  C73      1.0000 0.25370  0.33850  0.78910  Biso   1.000  C
  H34      1.0000 0.22350  0.34240  0.76240  Biso   1.000  H
  C74      1.0000 0.27370  0.27040  0.80010  Biso   1.000  C
  C75      1.0000 0.31890  0.26760  0.83230  Biso   1.000  C
  H35      1.0000 0.33270  0.22290  0.83890  Biso   1.000  H
  C76      1.0000 0.34430  0.32890  0.85520  Biso   1.000  C
  C77      1.0000 0.32450  0.39530  0.85050  Biso   1.000  C
  H36      1.0000 0.34160  0.43640  0.86900  Biso   1.000  H
  C78      1.0000 0.24550  0.20580  0.77420  Biso   1.000  C
  N4       1.0000 0.91000  0.65340  0.57450  Biso   1.000  N
  N5       1.0000 0.39080  0.32440  0.89720  Biso   1.000  N
  O15      1.0000 0.14270  0.60750  0.69310  Biso   1.000  O
  O16      1.0000 0.14310  0.64210  0.73050  Biso   1.000  O
  O17      1.0000 0.13610  0.54660  0.78270  Biso   1.000  O
  O18      1.0000 0.74420  0.79920  0.36310  Biso   1.000  O
  O19      1.0000 0.81320  0.83810  0.39810  Biso   1.000  O
  O20      1.0000 0.77180  0.55570  0.58670  Biso   1.000  O
  O21      1.0000 0.71770  0.59800  0.48980  Biso   1.000  O
  O22      1.0000 0.62050  0.45170  0.07500  Biso   1.000  O
  O23      1.0000 0.61050  0.38080  0.13920  Biso   1.000  O
  O24      1.0000 0.21720  0.47850  0.77480  Biso   1.000  O
  O25      1.0000 0.28220  0.52660  0.84020  Biso   1.000  O
  O26      1.0000 0.26290  0.14460  0.77580  Biso   1.000  O
  O27      1.0000 0.20570  0.21390  0.74960  Biso   1.000  O
  N6       1.0000 0.89040  0.83500  0.85900  Biso   1.000  N
  O28      1.0000 0.85720  0.66170  0.73430  Biso   1.000  O
  Cd7      1.0000 0.29015  0.09876  0.69922  Biso   1.000  Cd
  Cd8      1.0000 0.67755  0.38881  0.19349  Biso   1.000  Cd
  Cd9      1.0000 0.67797  0.44911  0.03928  Biso   1.000  Cd
  C79      1.0000 0.37770  0.10530  0.76600  Biso   1.000  C
  C80      1.0000 0.42820  0.10300  0.79040  Biso   1.000  C
  C81      1.0000 0.42630  0.13600  0.81740  Biso   1.000  C
  C82      1.0000 0.44500  0.16800  0.82560  Biso   1.000  C
  H37      1.0000 0.42800  0.20620  0.82830  Biso   1.000  H
  C83      1.0000 0.44310  0.15500  0.87420  Biso   1.000  C
  H38      1.0000 0.42180  0.16380  0.88950  Biso   1.000  H
  C84      1.0000 0.49990  0.16700  0.86230  Biso   1.000  C
  H39      1.0000 0.51610  0.20650  0.88780  Biso   1.000  H
  C85      1.0000 0.48530  0.17000  0.93000  Biso   1.000  C
  H40      1.0000 0.49270  0.18220  0.97680  Biso   1.000  H
  C86      1.0000 0.51960  0.10960  0.85430  Biso   1.000  C
  C87      1.0000 0.52100  0.15860  0.88700  Biso   1.000  C
  C88      1.0000 0.50180  0.04640  0.81890  Biso   1.000  C
  H41      1.0000 0.51810  0.00760  0.81540  Biso   1.000  H
  C89      1.0000 0.50210  0.13600  0.82500  Biso   1.000  C
  H42      1.0000 0.51430  0.13410  0.79340  Biso   1.000  H
  C90      1.0000 0.45640  0.04900  0.78910  Biso   1.000  C
  H43      1.0000 0.44240  0.00730  0.76440  Biso   1.000  H
  C91      1.0000 0.45700  0.11200  0.81000  Biso   1.000  C
  H44      1.0000 0.45080  0.06670  0.79010  Biso   1.000  H
  C92      1.0000 0.56200  0.12700  0.88500  Biso   1.000  C
  C93      1.0000 0.56050  0.17700  0.92060  Biso   1.000  C
  C94      1.0000 0.71530  0.29400  0.09790  Biso   1.000  C
  C95      1.0000 0.69830  0.23180  0.05280  Biso   1.000  C
  C96      1.0000 0.65150  0.22090  0.01490  Biso   1.000  C
  H45      1.0000 0.63190  0.25030  0.02260  Biso   1.000  H
  C97      1.0000 0.63650  0.16380  0.96550  Biso   1.000  C
  C98      1.0000 0.66550  0.12280  0.95020  Biso   1.000  C
  H46      1.0000 0.65470  0.08560  0.91750  Biso   1.000  H
  C99      1.0000 0.71110  0.13680  0.98320  Biso   1.000  C
  C100     1.0000 0.72620  0.19130  0.03530  Biso   1.000  C
  H47      1.0000 0.75620  0.20030  0.05880  Biso   1.000  H
  C101     1.0000 0.74060  0.09480  0.96630  Biso   1.000  C
  C102     1.0000 0.90430  0.91580  0.42080  Biso   1.000  C
  C103     1.0000 0.95590  0.90810  0.47030  Biso   1.000  C
  C104     1.0000 0.97570  0.84990  0.45140  Biso   1.000  C
  H48      1.0000 0.96180  0.81260  0.42000  Biso   1.000  H
  C105     1.0000 0.01670  0.86000  0.48680  Biso   1.000  C
  H49      1.0000 0.03340  0.85850  0.46190  Biso   1.000  H
  C106     1.0000 0.03810  0.87320  0.55390  Biso   1.000  C
  C107     1.0000 0.01500  0.92310  0.57730  Biso   1.000  C
  H50      1.0000 0.02950  0.94390  0.62170  Biso   1.000  H
  C108     1.0000 0.97230  0.94070  0.53580  Biso   1.000  C
  H51      1.0000 0.95590  0.97120  0.54990  Biso   1.000  H
  C109     1.0000 0.08550  0.86450  0.58950  Biso   1.000  C
  C110     1.0000 0.24220  0.96920  0.69160  Biso   1.000  C
  C111     1.0000 0.22140  0.90040  0.68220  Biso   1.000  C
  C112     1.0000 0.24630  0.83850  0.71090  Biso   1.000  C
  H52      1.0000 0.27650  0.84240  0.73760  Biso   1.000  H
  C113     1.0000 0.22630  0.77040  0.69990  Biso   1.000  C
  C114     1.0000 0.18110  0.76760  0.66770  Biso   1.000  C
  H53      1.0000 0.16730  0.72290  0.66110  Biso   1.000  H
  C115     1.0000 0.15570  0.82890  0.64480  Biso   1.000  C
  C116     1.0000 0.17550  0.89530  0.64950  Biso   1.000  C
  H54      1.0000 0.15840  0.93640  0.63100  Biso   1.000  H
  C117     1.0000 0.25450  0.70580  0.72580  Biso   1.000  C
  N7       1.0000 0.59000  0.15340  0.92550  Biso   1.000  N
  N8       1.0000 0.10920  0.82440  0.60280  Biso   1.000  N
  O29      1.0000 0.35730  0.10750  0.80690  Biso   1.000  O
  O30      1.0000 0.35690  0.14210  0.76950  Biso   1.000  O
  O31      1.0000 0.36390  0.04660  0.71730  Biso   1.000  O
  O32      1.0000 0.75580  0.29920  0.13690  Biso   1.000  O
  O33      1.0000 0.68680  0.33810  0.10190  Biso   1.000  O
  O34      1.0000 0.72820  0.05570  0.91330  Biso   1.000  O
  O35      1.0000 0.78230  0.09800  0.01020  Biso   1.000  O
  O36      1.0000 0.87950  0.95170  0.42500  Biso   1.000  O
  O37      1.0000 0.88950  0.88080  0.36080  Biso   1.000  O
  O38      1.0000 0.28280  0.97850  0.72520  Biso   1.000  O
  O39      1.0000 0.21780  0.02660  0.65980  Biso   1.000  O
  O40      1.0000 0.23710  0.64460  0.72420  Biso   1.000  O
  O41      1.0000 0.29430  0.71390  0.75040  Biso   1.000  O
  N9       1.0000 0.60960  0.33500  0.64100  Biso   1.000  N
  O42      1.0000 0.64280  0.16170  0.76570  Biso   1.000  O
  Cd10     1.0000 0.79015  0.59876  0.69922  Biso   1.000  Cd
  Cd11     1.0000 0.17755  0.88881  0.19349  Biso   1.000  Cd
  Cd12     1.0000 0.17797  0.94911  0.03928  Biso   1.000  Cd
  C118     1.0000 0.87770  0.60530  0.76600  Biso   1.000  C
  C119     1.0000 0.92820  0.60300  0.79040  Biso   1.000  C
  C120     1.0000 0.92630  0.63600  0.81740  Biso   1.000  C
  C121     1.0000 0.94500  0.66800  0.82560  Biso   1.000  C
  H55      1.0000 0.92800  0.70620  0.82830  Biso   1.000  H
  C122     1.0000 0.94310  0.65500  0.87420  Biso   1.000  C
  H56      1.0000 0.92180  0.66380  0.88950  Biso   1.000  H
  C123     1.0000 0.99990  0.66700  0.86230  Biso   1.000  C
  H57      1.0000 0.01610  0.70650  0.88780  Biso   1.000  H
  C124     1.0000 0.98530  0.67000  0.93000  Biso   1.000  C
  H58      1.0000 0.99270  0.68220  0.97680  Biso   1.000  H
  C125     1.0000 0.01960  0.60960  0.85430  Biso   1.000  C
  C126     1.0000 0.02100  0.65860  0.88700  Biso   1.000  C
  C127     1.0000 0.00180  0.54640  0.81890  Biso   1.000  C
  H59      1.0000 0.01810  0.50760  0.81540  Biso   1.000  H
  C128     1.0000 0.00210  0.63600  0.82500  Biso   1.000  C
  H60      1.0000 0.01430  0.63410  0.79340  Biso   1.000  H
  C129     1.0000 0.95640  0.54900  0.78910  Biso   1.000  C
  H61      1.0000 0.94240  0.50730  0.76440  Biso   1.000  H
  C130     1.0000 0.95700  0.61200  0.81000  Biso   1.000  C
  H62      1.0000 0.95080  0.56670  0.79010  Biso   1.000  H
  C131     1.0000 0.06200  0.62700  0.88500  Biso   1.000  C
  C132     1.0000 0.06050  0.67700  0.92060  Biso   1.000  C
  C133     1.0000 0.21530  0.79400  0.09790  Biso   1.000  C
  C134     1.0000 0.19830  0.73180  0.05280  Biso   1.000  C
  C135     1.0000 0.15150  0.72090  0.01490  Biso   1.000  C
  H63      1.0000 0.13190  0.75030  0.02260  Biso   1.000  H
  C136     1.0000 0.13650  0.66380  0.96550  Biso   1.000  C
  C137     1.0000 0.16550  0.62280  0.95020  Biso   1.000  C
  H64      1.0000 0.15470  0.58560  0.91750  Biso   1.000  H
  C138     1.0000 0.21110  0.63680  0.98320  Biso   1.000  C
  C139     1.0000 0.22620  0.69130  0.03530  Biso   1.000  C
  H65      1.0000 0.25620  0.70030  0.05880  Biso   1.000  H
  C140     1.0000 0.24060  0.59480  0.96630  Biso   1.000  C
  C141     1.0000 0.40430  0.41580  0.42080  Biso   1.000  C
  C142     1.0000 0.45590  0.40810  0.47030  Biso   1.000  C
  C143     1.0000 0.47570  0.34990  0.45140  Biso   1.000  C
  H66      1.0000 0.46180  0.31260  0.42000  Biso   1.000  H
  C144     1.0000 0.51670  0.36000  0.48680  Biso   1.000  C
  H67      1.0000 0.53340  0.35850  0.46190  Biso   1.000  H
  C145     1.0000 0.53810  0.37320  0.55390  Biso   1.000  C
  C146     1.0000 0.51500  0.42310  0.57730  Biso   1.000  C
  H68      1.0000 0.52950  0.44390  0.62170  Biso   1.000  H
  C147     1.0000 0.47230  0.44070  0.53580  Biso   1.000  C
  H69      1.0000 0.45590  0.47120  0.54990  Biso   1.000  H
  C148     1.0000 0.58550  0.36450  0.58950  Biso   1.000  C
  C149     1.0000 0.74220  0.46920  0.69160  Biso   1.000  C
  C150     1.0000 0.72140  0.40040  0.68220  Biso   1.000  C
  C151     1.0000 0.74630  0.33850  0.71090  Biso   1.000  C
  H70      1.0000 0.77650  0.34240  0.73760  Biso   1.000  H
  C152     1.0000 0.72630  0.27040  0.69990  Biso   1.000  C
  C153     1.0000 0.68110  0.26760  0.66770  Biso   1.000  C
  H71      1.0000 0.66730  0.22290  0.66110  Biso   1.000  H
  C154     1.0000 0.65570  0.32890  0.64480  Biso   1.000  C
  C155     1.0000 0.67550  0.39530  0.64950  Biso   1.000  C
  H72      1.0000 0.65840  0.43640  0.63100  Biso   1.000  H
  C156     1.0000 0.75450  0.20580  0.72580  Biso   1.000  C
  N10      1.0000 0.09000  0.65340  0.92550  Biso   1.000  N
  N11      1.0000 0.60920  0.32440  0.60280  Biso   1.000  N
  O43      1.0000 0.85730  0.60750  0.80690  Biso   1.000  O
  O44      1.0000 0.85690  0.64210  0.76950  Biso   1.000  O
  O45      1.0000 0.86390  0.54660  0.71730  Biso   1.000  O
  O46      1.0000 0.25580  0.79920  0.13690  Biso   1.000  O
  O47      1.0000 0.18680  0.83810  0.10190  Biso   1.000  O
  O48      1.0000 0.22820  0.55570  0.91330  Biso   1.000  O
  O49      1.0000 0.28230  0.59800  0.01020  Biso   1.000  O
  O50      1.0000 0.37950  0.45170  0.42500  Biso   1.000  O
  O51      1.0000 0.38950  0.38080  0.36080  Biso   1.000  O
  O52      1.0000 0.78280  0.47850  0.72520  Biso   1.000  O
  O53      1.0000 0.71780  0.52660  0.65980  Biso   1.000  O
  O54      1.0000 0.73710  0.14460  0.72420  Biso   1.000  O
  O55      1.0000 0.79430  0.21390  0.75040  Biso   1.000  O
  N12      1.0000 0.10960  0.83500  0.64100  Biso   1.000  N
  O56      1.0000 0.14280  0.66170  0.76570  Biso   1.000  O
  Cd13     1.0000 0.29015  0.90124  0.19922  Biso   1.000  Cd
  Cd14     1.0000 0.67755  0.61119  0.69349  Biso   1.000  Cd
  Cd15     1.0000 0.67797  0.55089  0.53928  Biso   1.000  Cd
  C157     1.0000 0.37770  0.89470  0.26600  Biso   1.000  C
  C158     1.0000 0.42820  0.89700  0.29040  Biso   1.000  C
  C159     1.0000 0.42630  0.86400  0.31740  Biso   1.000  C
  C160     1.0000 0.44500  0.83200  0.32560  Biso   1.000  C
  H73      1.0000 0.42800  0.79380  0.32830  Biso   1.000  H
  C161     1.0000 0.44310  0.84500  0.37420  Biso   1.000  C
  H74      1.0000 0.42180  0.83620  0.38950  Biso   1.000  H
  C162     1.0000 0.49990  0.83300  0.36230  Biso   1.000  C
  H75      1.0000 0.51610  0.79350  0.38780  Biso   1.000  H
  C163     1.0000 0.48530  0.83000  0.43000  Biso   1.000  C
  H76      1.0000 0.49270  0.81780  0.47680  Biso   1.000  H
  C164     1.0000 0.51960  0.89040  0.35430  Biso   1.000  C
  C165     1.0000 0.52100  0.84140  0.38700  Biso   1.000  C
  C166     1.0000 0.50180  0.95360  0.31890  Biso   1.000  C
  H77      1.0000 0.51810  0.99240  0.31540  Biso   1.000  H
  C167     1.0000 0.50210  0.86400  0.32500  Biso   1.000  C
  H78      1.0000 0.51430  0.86590  0.29340  Biso   1.000  H
  C168     1.0000 0.45640  0.95100  0.28910  Biso   1.000  C
  H79      1.0000 0.44240  0.99270  0.26440  Biso   1.000  H
  C169     1.0000 0.45700  0.88800  0.31000  Biso   1.000  C
  H80      1.0000 0.45080  0.93330  0.29010  Biso   1.000  H
  C170     1.0000 0.56200  0.87300  0.38500  Biso   1.000  C
  C171     1.0000 0.56050  0.82300  0.42060  Biso   1.000  C
  C172     1.0000 0.71530  0.70600  0.59790  Biso   1.000  C
  C173     1.0000 0.69830  0.76820  0.55280  Biso   1.000  C
  C174     1.0000 0.65150  0.77910  0.51490  Biso   1.000  C
  H81      1.0000 0.63190  0.74970  0.52260  Biso   1.000  H
  C175     1.0000 0.63650  0.83620  0.46550  Biso   1.000  C
  C176     1.0000 0.66550  0.87720  0.45020  Biso   1.000  C
  H82      1.0000 0.65470  0.91440  0.41750  Biso   1.000  H
  C177     1.0000 0.71110  0.86320  0.48320  Biso   1.000  C
  C178     1.0000 0.72620  0.80870  0.53530  Biso   1.000  C
  H83      1.0000 0.75620  0.79970  0.55880  Biso   1.000  H
  C179     1.0000 0.74060  0.90520  0.46630  Biso   1.000  C
  C180     1.0000 0.90430  0.08420  0.92080  Biso   1.000  C
  C181     1.0000 0.95590  0.09190  0.97030  Biso   1.000  C
  C182     1.0000 0.97570  0.15010  0.95140  Biso   1.000  C
  H84      1.0000 0.96180  0.18740  0.92000  Biso   1.000  H
  C183     1.0000 0.01670  0.14000  0.98680  Biso   1.000  C
  H85      1.0000 0.03340  0.14150  0.96190  Biso   1.000  H
  C184     1.0000 0.03810  0.12680  0.05390  Biso   1.000  C
  C185     1.0000 0.01500  0.07690  0.07730  Biso   1.000  C
  H86      1.0000 0.02950  0.05610  0.12170  Biso   1.000  H
  C186     1.0000 0.97230  0.05930  0.03580  Biso   1.000  C
  H87      1.0000 0.95590  0.02880  0.04990  Biso   1.000  H
  C187     1.0000 0.08550  0.13550  0.08950  Biso   1.000  C
  C188     1.0000 0.24220  0.03080  0.19160  Biso   1.000  C
  C189     1.0000 0.22140  0.09960  0.18220  Biso   1.000  C
  C190     1.0000 0.24630  0.16150  0.21090  Biso   1.000  C
  H88      1.0000 0.27650  0.15760  0.23760  Biso   1.000  H
  C191     1.0000 0.22630  0.22960  0.19990  Biso   1.000  C
  C192     1.0000 0.18110  0.23240  0.16770  Biso   1.000  C
  H89      1.0000 0.16730  0.27710  0.16110  Biso   1.000  H
  C193     1.0000 0.15570  0.17110  0.14480  Biso   1.000  C
  C194     1.0000 0.17550  0.10470  0.14950  Biso   1.000  C
  H90      1.0000 0.15840  0.06360  0.13100  Biso   1.000  H
  C195     1.0000 0.25450  0.29420  0.22580  Biso   1.000  C
  N13      1.0000 0.59000  0.84660  0.42550  Biso   1.000  N
  N14      1.0000 0.10920  0.17560  0.10280  Biso   1.000  N
  O57      1.0000 0.35730  0.89250  0.30690  Biso   1.000  O
  O58      1.0000 0.35690  0.85790  0.26950  Biso   1.000  O
  O59      1.0000 0.36390  0.95340  0.21730  Biso   1.000  O
  O60      1.0000 0.75580  0.70080  0.63690  Biso   1.000  O
  O61      1.0000 0.68680  0.66190  0.60190  Biso   1.000  O
  O62      1.0000 0.72820  0.94430  0.41330  Biso   1.000  O
  O63      1.0000 0.78230  0.90200  0.51020  Biso   1.000  O
  O64      1.0000 0.87950  0.04830  0.92500  Biso   1.000  O
  O65      1.0000 0.88950  0.11920  0.86080  Biso   1.000  O
  O66      1.0000 0.28280  0.02150  0.22520  Biso   1.000  O
  O67      1.0000 0.21780  0.97340  0.15980  Biso   1.000  O
  O68      1.0000 0.23710  0.35540  0.22420  Biso   1.000  O
  O69      1.0000 0.29430  0.28610  0.25040  Biso   1.000  O
  N15      1.0000 0.60960  0.66500  0.14100  Biso   1.000  N
  O70      1.0000 0.64280  0.83830  0.26570  Biso   1.000  O
  Cd16     1.0000 0.79015  0.40124  0.19922  Biso   1.000  Cd
  Cd17     1.0000 0.17755  0.11119  0.69349  Biso   1.000  Cd
  Cd18     1.0000 0.17797  0.05089  0.53928  Biso   1.000  Cd
  C196     1.0000 0.87770  0.39470  0.26600  Biso   1.000  C
  C197     1.0000 0.92820  0.39700  0.29040  Biso   1.000  C
  C198     1.0000 0.92630  0.36400  0.31740  Biso   1.000  C
  C199     1.0000 0.94500  0.33200  0.32560  Biso   1.000  C
  H91      1.0000 0.92800  0.29380  0.32830  Biso   1.000  H
  C200     1.0000 0.94310  0.34500  0.37420  Biso   1.000  C
  H92      1.0000 0.92180  0.33620  0.38950  Biso   1.000  H
  C201     1.0000 0.99990  0.33300  0.36230  Biso   1.000  C
  H93      1.0000 0.01610  0.29350  0.38780  Biso   1.000  H
  C202     1.0000 0.98530  0.33000  0.43000  Biso   1.000  C
  H94      1.0000 0.99270  0.31780  0.47680  Biso   1.000  H
  C203     1.0000 0.01960  0.39040  0.35430  Biso   1.000  C
  C204     1.0000 0.02100  0.34140  0.38700  Biso   1.000  C
  C205     1.0000 0.00180  0.45360  0.31890  Biso   1.000  C
  H95      1.0000 0.01810  0.49240  0.31540  Biso   1.000  H
  C206     1.0000 0.00210  0.36400  0.32500  Biso   1.000  C
  H96      1.0000 0.01430  0.36590  0.29340  Biso   1.000  H
  C207     1.0000 0.95640  0.45100  0.28910  Biso   1.000  C
  H97      1.0000 0.94240  0.49270  0.26440  Biso   1.000  H
  C208     1.0000 0.95700  0.38800  0.31000  Biso   1.000  C
  H98      1.0000 0.95080  0.43330  0.29010  Biso   1.000  H
  C209     1.0000 0.06200  0.37300  0.38500  Biso   1.000  C
  C210     1.0000 0.06050  0.32300  0.42060  Biso   1.000  C
  C211     1.0000 0.21530  0.20600  0.59790  Biso   1.000  C
  C212     1.0000 0.19830  0.26820  0.55280  Biso   1.000  C
  C213     1.0000 0.15150  0.27910  0.51490  Biso   1.000  C
  H99      1.0000 0.13190  0.24970  0.52260  Biso   1.000  H
  C214     1.0000 0.13650  0.33620  0.46550  Biso   1.000  C
  C215     1.0000 0.16550  0.37720  0.45020  Biso   1.000  C
  H100     1.0000 0.15470  0.41440  0.41750  Biso   1.000  H
  C216     1.0000 0.21110  0.36320  0.48320  Biso   1.000  C
  C217     1.0000 0.22620  0.30870  0.53530  Biso   1.000  C
  H101     1.0000 0.25620  0.29970  0.55880  Biso   1.000  H
  C218     1.0000 0.24060  0.40520  0.46630  Biso   1.000  C
  C219     1.0000 0.40430  0.58420  0.92080  Biso   1.000  C
  C220     1.0000 0.45590  0.59190  0.97030  Biso   1.000  C
  C221     1.0000 0.47570  0.65010  0.95140  Biso   1.000  C
  H102     1.0000 0.46180  0.68740  0.92000  Biso   1.000  H
  C222     1.0000 0.51670  0.64000  0.98680  Biso   1.000  C
  H103     1.0000 0.53340  0.64150  0.96190  Biso   1.000  H
  C223     1.0000 0.53810  0.62680  0.05390  Biso   1.000  C
  C224     1.0000 0.51500  0.57690  0.07730  Biso   1.000  C
  H104     1.0000 0.52950  0.55610  0.12170  Biso   1.000  H
  C225     1.0000 0.47230  0.55930  0.03580  Biso   1.000  C
  H105     1.0000 0.45590  0.52880  0.04990  Biso   1.000  H
  C226     1.0000 0.58550  0.63550  0.08950  Biso   1.000  C
  C227     1.0000 0.74220  0.53080  0.19160  Biso   1.000  C
  C228     1.0000 0.72140  0.59960  0.18220  Biso   1.000  C
  C229     1.0000 0.74630  0.66150  0.21090  Biso   1.000  C
  H106     1.0000 0.77650  0.65760  0.23760  Biso   1.000  H
  C230     1.0000 0.72630  0.72960  0.19990  Biso   1.000  C
  C231     1.0000 0.68110  0.73240  0.16770  Biso   1.000  C
  H107     1.0000 0.66730  0.77710  0.16110  Biso   1.000  H
  C232     1.0000 0.65570  0.67110  0.14480  Biso   1.000  C
  C233     1.0000 0.67550  0.60470  0.14950  Biso   1.000  C
  H108     1.0000 0.65840  0.56360  0.13100  Biso   1.000  H
  C234     1.0000 0.75450  0.79420  0.22580  Biso   1.000  C
  N16      1.0000 0.09000  0.34660  0.42550  Biso   1.000  N
  N17      1.0000 0.60920  0.67560  0.10280  Biso   1.000  N
  O71      1.0000 0.85730  0.39250  0.30690  Biso   1.000  O
  O72      1.0000 0.85690  0.35790  0.26950  Biso   1.000  O
  O73      1.0000 0.86390  0.45340  0.21730  Biso   1.000  O
  O74      1.0000 0.25580  0.20080  0.63690  Biso   1.000  O
  O75      1.0000 0.18680  0.16190  0.60190  Biso   1.000  O
  O76      1.0000 0.22820  0.44430  0.41330  Biso   1.000  O
  O77      1.0000 0.28230  0.40200  0.51020  Biso   1.000  O
  O78      1.0000 0.37950  0.54830  0.92500  Biso   1.000  O
  O79      1.0000 0.38950  0.61920  0.86080  Biso   1.000  O
  O80      1.0000 0.78280  0.52150  0.22520  Biso   1.000  O
  O81      1.0000 0.71780  0.47340  0.15980  Biso   1.000  O
  O82      1.0000 0.73710  0.85540  0.22420  Biso   1.000  O
  O83      1.0000 0.79430  0.78610  0.25040  Biso   1.000  O
  N18      1.0000 0.10960  0.16500  0.14100  Biso   1.000  N
  O84      1.0000 0.14280  0.33830  0.26570  Biso   1.000  O
  Cd19     1.0000 0.70985  0.90124  0.30078  Biso   1.000  Cd
  Cd20     1.0000 0.32245  0.61119  0.80651  Biso   1.000  Cd
  Cd21     1.0000 0.32203  0.55089  0.96072  Biso   1.000  Cd
  C235     1.0000 0.62230  0.89470  0.23400  Biso   1.000  C
  C236     1.0000 0.57180  0.89700  0.20960  Biso   1.000  C
  C237     1.0000 0.57370  0.86400  0.18260  Biso   1.000  C
  C238     1.0000 0.55500  0.83200  0.17440  Biso   1.000  C
  H109     1.0000 0.57200  0.79380  0.17170  Biso   1.000  H
  C239     1.0000 0.55690  0.84500  0.12580  Biso   1.000  C
  H110     1.0000 0.57820  0.83620  0.11050  Biso   1.000  H
  C240     1.0000 0.50010  0.83300  0.13770  Biso   1.000  C
  H111     1.0000 0.48390  0.79350  0.11220  Biso   1.000  H
  C241     1.0000 0.51470  0.83000  0.07000  Biso   1.000  C
  H112     1.0000 0.50730  0.81780  0.02320  Biso   1.000  H
  C242     1.0000 0.48040  0.89040  0.14570  Biso   1.000  C
  C243     1.0000 0.47900  0.84140  0.11300  Biso   1.000  C
  C244     1.0000 0.49820  0.95360  0.18110  Biso   1.000  C
  H113     1.0000 0.48190  0.99240  0.18460  Biso   1.000  H
  C245     1.0000 0.49790  0.86400  0.17500  Biso   1.000  C
  H114     1.0000 0.48570  0.86590  0.20660  Biso   1.000  H
  C246     1.0000 0.54360  0.95100  0.21090  Biso   1.000  C
  H115     1.0000 0.55760  0.99270  0.23560  Biso   1.000  H
  C247     1.0000 0.54300  0.88800  0.19000  Biso   1.000  C
  H116     1.0000 0.54920  0.93330  0.20990  Biso   1.000  H
  C248     1.0000 0.43800  0.87300  0.11500  Biso   1.000  C
  C249     1.0000 0.43950  0.82300  0.07940  Biso   1.000  C
  C250     1.0000 0.28470  0.70600  0.90210  Biso   1.000  C
  C251     1.0000 0.30170  0.76820  0.94720  Biso   1.000  C
  C252     1.0000 0.34850  0.77910  0.98510  Biso   1.000  C
  H117     1.0000 0.36810  0.74970  0.97740  Biso   1.000  H
  C253     1.0000 0.36350  0.83620  0.03450  Biso   1.000  C
  C254     1.0000 0.33450  0.87720  0.04980  Biso   1.000  C
  H118     1.0000 0.34530  0.91440  0.08250  Biso   1.000  H
  C255     1.0000 0.28890  0.86320  0.01680  Biso   1.000  C
  C256     1.0000 0.27380  0.80870  0.96470  Biso   1.000  C
  H119     1.0000 0.24380  0.79970  0.94120  Biso   1.000  H
  C257     1.0000 0.25940  0.90520  0.03370  Biso   1.000  C
  C258     1.0000 0.09570  0.08420  0.57920  Biso   1.000  C
  C259     1.0000 0.04410  0.09190  0.52970  Biso   1.000  C
  C260     1.0000 0.02430  0.15010  0.54860  Biso   1.000  C
  H120     1.0000 0.03820  0.18740  0.58000  Biso   1.000  H
  C261     1.0000 0.98330  0.14000  0.51320  Biso   1.000  C
  H121     1.0000 0.96660  0.14150  0.53810  Biso   1.000  H
  C262     1.0000 0.96190  0.12680  0.44610  Biso   1.000  C
  C263     1.0000 0.98500  0.07690  0.42270  Biso   1.000  C
  H122     1.0000 0.97050  0.05610  0.37830  Biso   1.000  H
  C264     1.0000 0.02770  0.05930  0.46420  Biso   1.000  C
  H123     1.0000 0.04410  0.02880  0.45010  Biso   1.000  H
  C265     1.0000 0.91450  0.13550  0.41050  Biso   1.000  C
  C266     1.0000 0.75780  0.03080  0.30840  Biso   1.000  C
  C267     1.0000 0.77860  0.09960  0.31780  Biso   1.000  C
  C268     1.0000 0.75370  0.16150  0.28910  Biso   1.000  C
  H124     1.0000 0.72350  0.15760  0.26240  Biso   1.000  H
  C269     1.0000 0.77370  0.22960  0.30010  Biso   1.000  C
  C270     1.0000 0.81890  0.23240  0.33230  Biso   1.000  C
  H125     1.0000 0.83270  0.27710  0.33890  Biso   1.000  H
  C271     1.0000 0.84430  0.17110  0.35520  Biso   1.000  C
  C272     1.0000 0.82450  0.10470  0.35050  Biso   1.000  C
  H126     1.0000 0.84160  0.06360  0.36900  Biso   1.000  H
  C273     1.0000 0.74550  0.29420  0.27420  Biso   1.000  C
  N19      1.0000 0.41000  0.84660  0.07450  Biso   1.000  N
  N20      1.0000 0.89080  0.17560  0.39720  Biso   1.000  N
  O85      1.0000 0.64270  0.89250  0.19310  Biso   1.000  O
  O86      1.0000 0.64310  0.85790  0.23050  Biso   1.000  O
  O87      1.0000 0.63610  0.95340  0.28270  Biso   1.000  O
  O88      1.0000 0.24420  0.70080  0.86310  Biso   1.000  O
  O89      1.0000 0.31320  0.66190  0.89810  Biso   1.000  O
  O90      1.0000 0.27180  0.94430  0.08670  Biso   1.000  O
  O91      1.0000 0.21770  0.90200  0.98980  Biso   1.000  O
  O92      1.0000 0.12050  0.04830  0.57500  Biso   1.000  O
  O93      1.0000 0.11050  0.11920  0.63920  Biso   1.000  O
  O94      1.0000 0.71720  0.02150  0.27480  Biso   1.000  O
  O95      1.0000 0.78220  0.97340  0.34020  Biso   1.000  O
  O96      1.0000 0.76290  0.35540  0.27580  Biso   1.000  O
  O97      1.0000 0.70570  0.28610  0.24960  Biso   1.000  O
  N21      1.0000 0.39040  0.66500  0.35900  Biso   1.000  N
  O98      1.0000 0.35720  0.83830  0.23430  Biso   1.000  O
  Cd22     1.0000 0.20985  0.40124  0.30078  Biso   1.000  Cd
  Cd23     1.0000 0.82245  0.11119  0.80651  Biso   1.000  Cd
  Cd24     1.0000 0.82203  0.05089  0.96072  Biso   1.000  Cd
  C274     1.0000 0.12230  0.39470  0.23400  Biso   1.000  C
  C275     1.0000 0.07180  0.39700  0.20960  Biso   1.000  C
  C276     1.0000 0.07370  0.36400  0.18260  Biso   1.000  C
  C277     1.0000 0.05500  0.33200  0.17440  Biso   1.000  C
  H127     1.0000 0.07200  0.29380  0.17170  Biso   1.000  H
  C278     1.0000 0.05690  0.34500  0.12580  Biso   1.000  C
  H128     1.0000 0.07820  0.33620  0.11050  Biso   1.000  H
  C279     1.0000 0.00010  0.33300  0.13770  Biso   1.000  C
  H129     1.0000 0.98390  0.29350  0.11220  Biso   1.000  H
  C280     1.0000 0.01470  0.33000  0.07000  Biso   1.000  C
  H130     1.0000 0.00730  0.31780  0.02320  Biso   1.000  H
  C281     1.0000 0.98040  0.39040  0.14570  Biso   1.000  C
  C282     1.0000 0.97900  0.34140  0.11300  Biso   1.000  C
  C283     1.0000 0.99820  0.45360  0.18110  Biso   1.000  C
  H131     1.0000 0.98190  0.49240  0.18460  Biso   1.000  H
  C284     1.0000 0.99790  0.36400  0.17500  Biso   1.000  C
  H132     1.0000 0.98570  0.36590  0.20660  Biso   1.000  H
  C285     1.0000 0.04360  0.45100  0.21090  Biso   1.000  C
  H133     1.0000 0.05760  0.49270  0.23560  Biso   1.000  H
  C286     1.0000 0.04300  0.38800  0.19000  Biso   1.000  C
  H134     1.0000 0.04920  0.43330  0.20990  Biso   1.000  H
  C287     1.0000 0.93800  0.37300  0.11500  Biso   1.000  C
  C288     1.0000 0.93950  0.32300  0.07940  Biso   1.000  C
  C289     1.0000 0.78470  0.20600  0.90210  Biso   1.000  C
  C290     1.0000 0.80170  0.26820  0.94720  Biso   1.000  C
  C291     1.0000 0.84850  0.27910  0.98510  Biso   1.000  C
  H135     1.0000 0.86810  0.24970  0.97740  Biso   1.000  H
  C292     1.0000 0.86350  0.33620  0.03450  Biso   1.000  C
  C293     1.0000 0.83450  0.37720  0.04980  Biso   1.000  C
  H136     1.0000 0.84530  0.41440  0.08250  Biso   1.000  H
  C294     1.0000 0.78890  0.36320  0.01680  Biso   1.000  C
  C295     1.0000 0.77380  0.30870  0.96470  Biso   1.000  C
  H137     1.0000 0.74380  0.29970  0.94120  Biso   1.000  H
  C296     1.0000 0.75940  0.40520  0.03370  Biso   1.000  C
  C297     1.0000 0.59570  0.58420  0.57920  Biso   1.000  C
  C298     1.0000 0.54410  0.59190  0.52970  Biso   1.000  C
  C299     1.0000 0.52430  0.65010  0.54860  Biso   1.000  C
  H138     1.0000 0.53820  0.68740  0.58000  Biso   1.000  H
  C300     1.0000 0.48330  0.64000  0.51320  Biso   1.000  C
  H139     1.0000 0.46660  0.64150  0.53810  Biso   1.000  H
  C301     1.0000 0.46190  0.62680  0.44610  Biso   1.000  C
  C302     1.0000 0.48500  0.57690  0.42270  Biso   1.000  C
  H140     1.0000 0.47050  0.55610  0.37830  Biso   1.000  H
  C303     1.0000 0.52770  0.55930  0.46420  Biso   1.000  C
  H141     1.0000 0.54410  0.52880  0.45010  Biso   1.000  H
  C304     1.0000 0.41450  0.63550  0.41050  Biso   1.000  C
  C305     1.0000 0.25780  0.53080  0.30840  Biso   1.000  C
  C306     1.0000 0.27860  0.59960  0.31780  Biso   1.000  C
  C307     1.0000 0.25370  0.66150  0.28910  Biso   1.000  C
  H142     1.0000 0.22350  0.65760  0.26240  Biso   1.000  H
  C308     1.0000 0.27370  0.72960  0.30010  Biso   1.000  C
  C309     1.0000 0.31890  0.73240  0.33230  Biso   1.000  C
  H143     1.0000 0.33270  0.77710  0.33890  Biso   1.000  H
  C310     1.0000 0.34430  0.67110  0.35520  Biso   1.000  C
  C311     1.0000 0.32450  0.60470  0.35050  Biso   1.000  C
  H144     1.0000 0.34160  0.56360  0.36900  Biso   1.000  H
  C312     1.0000 0.24550  0.79420  0.27420  Biso   1.000  C
  N22      1.0000 0.91000  0.34660  0.07450  Biso   1.000  N
  N23      1.0000 0.39080  0.67560  0.39720  Biso   1.000  N
  O99      1.0000 0.14270  0.39250  0.19310  Biso   1.000  O
  O100     1.0000 0.14310  0.35790  0.23050  Biso   1.000  O
  O101     1.0000 0.13610  0.45340  0.28270  Biso   1.000  O
  O102     1.0000 0.74420  0.20080  0.86310  Biso   1.000  O
  O103     1.0000 0.81320  0.16190  0.89810  Biso   1.000  O
  O104     1.0000 0.77180  0.44430  0.08670  Biso   1.000  O
  O105     1.0000 0.71770  0.40200  0.98980  Biso   1.000  O
  O106     1.0000 0.62050  0.54830  0.57500  Biso   1.000  O
  O107     1.0000 0.61050  0.61920  0.63920  Biso   1.000  O
  O108     1.0000 0.21720  0.52150  0.27480  Biso   1.000  O
  O109     1.0000 0.28220  0.47340  0.34020  Biso   1.000  O
  O110     1.0000 0.26290  0.85540  0.27580  Biso   1.000  O
  O111     1.0000 0.20570  0.78610  0.24960  Biso   1.000  O
  N24      1.0000 0.89040  0.16500  0.35900  Biso   1.000  N
  O112     1.0000 0.85720  0.33830  0.23430  Biso   1.000  O
