data_image0
_cell_length_a       12.29
_cell_length_b       13.7
_cell_length_c       13.798
_cell_angle_alpha    108.736
_cell_angle_beta     92.793
_cell_angle_gamma    114.369

_symmetry_space_group_name_H-M    "P 1"
_symmetry_int_tables_number       1

loop_
  _symmetry_equiv_pos_as_xyz
  'x, y, z'

loop_
  _atom_site_label
  _atom_site_occupancy
  _atom_site_fract_x
  _atom_site_fract_y
  _atom_site_fract_z
  _atom_site_thermal_displace_type
  _atom_site_B_iso_or_equiv
  _atom_site_type_symbol
  Ag1      1.0000 0.01746  0.51784  0.77869  Biso   1.000  Ag
  N1       1.0000 0.21180  0.33920  0.47920  Biso   1.000  N
  C1       1.0000 0.21700  0.77100  0.83600  Biso   1.000  C
  H1       1.0000 0.24630  0.75250  0.77540  Biso   1.000  H
  Ag2      1.0000 0.08116  0.41329  0.50536  Biso   1.000  Ag
  N2       1.0000 0.12150  0.69570  0.86590  Biso   1.000  N
  N3       1.0000 0.92070  0.33780  0.70060  Biso   1.000  N
  Ag3      1.0000 0.43042  0.59916  0.56476  Biso   1.000  Ag
  N4       1.0000 0.16820  0.23400  0.40120  Biso   1.000  N
  N5       1.0000 0.17650  0.60570  0.53980  Biso   1.000  N
  N6       1.0000 0.32930  0.39740  0.49050  Biso   1.000  N
  C2       1.0000 0.54140  0.01360  0.33030  Biso   1.000  C
  H2       1.0000 0.59930  0.00370  0.29270  Biso   1.000  H
  N7       1.0000 0.88050  0.33130  0.45780  Biso   1.000  N
  N8       1.0000 0.79850  0.22020  0.43440  Biso   1.000  N
  N9       1.0000 0.77410  0.16020  0.65250  Biso   1.000  N
  C3       1.0000 0.37140  0.03980  0.44600  Biso   1.000  C
  H3       1.0000 0.31480  0.04730  0.48640  Biso   1.000  H
  N10      1.0000 0.20570  0.86440  0.99360  Biso   1.000  N
  C4       1.0000 0.14480  0.03500  0.22870  Biso   1.000  C
  H4       1.0000 0.07960  0.02960  0.26170  Biso   1.000  H
  N11      1.0000 0.36690  0.33080  0.41820  Biso   1.000  N
  C5       1.0000 0.12530  0.75260  0.96180  Biso   1.000  C
  H5       1.0000 0.07780  0.71980  0.00390  Biso   1.000  H
  C6       1.0000 0.97070  0.26330  0.67040  Biso   1.000  C
  H6       1.0000 0.05260  0.28400  0.66910  Biso   1.000  H
  C7       1.0000 0.80400  0.27200  0.68890  Biso   1.000  C
  H7       1.0000 0.74780  0.30070  0.70470  Biso   1.000  H
  C8       1.0000 0.12950  0.94560  0.13760  Biso   1.000  C
  H8       1.0000 0.05420  0.88050  0.10850  Biso   1.000  H
  C9       1.0000 0.68840  0.21960  0.42530  Biso   1.000  C
  C10      1.0000 0.26000  0.87770  0.91240  Biso   1.000  C
  H9       1.0000 0.31620  0.94700  0.90960  Biso   1.000  H
  C11      1.0000 0.88200  0.15560  0.64300  Biso   1.000  C
  H10      1.0000 0.89210  0.08880  0.62110  Biso   1.000  H
  C12      1.0000 0.48310  0.13260  0.46410  Biso   1.000  C
  H11      1.0000 0.50120  0.20390  0.51520  Biso   1.000  H
  N12      1.0000 0.29730  0.67350  0.55990  Biso   1.000  N
  C13      1.0000 0.42660  0.92140  0.31060  Biso   1.000  C
  H12      1.0000 0.40660  0.85010  0.25850  Biso   1.000  H
  C14      1.0000 0.56920  0.12000  0.40620  Biso   1.000  C
  C15      1.0000 0.22610  0.95480  0.09140  Biso   1.000  C
  C16      1.0000 0.33700  0.04780  0.13330  Biso   1.000  C
  H13      1.0000 0.40210  0.05040  0.10080  Biso   1.000  H
  C17      1.0000 0.25870  0.13420  0.27190  Biso   1.000  C
  C18      1.0000 0.35480  0.13840  0.22310  Biso   1.000  C
  H14      1.0000 0.43120  0.20230  0.25070  Biso   1.000  H
  C19      1.0000 0.26930  0.23430  0.36340  Biso   1.000  C
  C20      1.0000 0.65610  0.06430  0.63240  Biso   1.000  C
  Ag4      1.0000 0.05730  0.87530  0.59450  Biso   1.000  Ag
  O1       1.0000 0.01500  0.04100  0.46900  Biso   1.000  O
  Ag5      1.0000 0.88110  0.10250  0.42450  Biso   1.000  Ag
  Ag6      1.0000 0.98254  0.48216  0.22131  Biso   1.000  Ag
  N13      1.0000 0.78820  0.66080  0.52080  Biso   1.000  N
  C21      1.0000 0.78300  0.22900  0.16400  Biso   1.000  C
  H15      1.0000 0.75370  0.24750  0.22460  Biso   1.000  H
  Ag7      1.0000 0.91884  0.58671  0.49464  Biso   1.000  Ag
  N14      1.0000 0.87850  0.30430  0.13410  Biso   1.000  N
  N15      1.0000 0.07930  0.66220  0.29940  Biso   1.000  N
  Ag8      1.0000 0.56958  0.40084  0.43524  Biso   1.000  Ag
  N16      1.0000 0.83180  0.76600  0.59880  Biso   1.000  N
  N17      1.0000 0.82350  0.39430  0.46020  Biso   1.000  N
  N18      1.0000 0.67070  0.60260  0.50950  Biso   1.000  N
  C22      1.0000 0.45860  0.98640  0.66970  Biso   1.000  C
  H16      1.0000 0.40070  0.99630  0.70730  Biso   1.000  H
  N19      1.0000 0.11950  0.66870  0.54220  Biso   1.000  N
  N20      1.0000 0.20150  0.77980  0.56560  Biso   1.000  N
  N21      1.0000 0.22590  0.83980  0.34750  Biso   1.000  N
  C23      1.0000 0.62860  0.96020  0.55400  Biso   1.000  C
  H17      1.0000 0.68520  0.95270  0.51360  Biso   1.000  H
  N22      1.0000 0.79430  0.13560  0.00640  Biso   1.000  N
  C24      1.0000 0.85520  0.96500  0.77130  Biso   1.000  C
  H18      1.0000 0.92040  0.97040  0.73830  Biso   1.000  H
  N23      1.0000 0.63310  0.66920  0.58180  Biso   1.000  N
  C25      1.0000 0.87470  0.24740  0.03820  Biso   1.000  C
  H19      1.0000 0.92220  0.28020  0.99610  Biso   1.000  H
  C26      1.0000 0.02930  0.73670  0.32960  Biso   1.000  C
  H20      1.0000 0.94740  0.71600  0.33090  Biso   1.000  H
  C27      1.0000 0.19600  0.72800  0.31110  Biso   1.000  C
  H21      1.0000 0.25220  0.69930  0.29530  Biso   1.000  H
  C28      1.0000 0.87050  0.05440  0.86240  Biso   1.000  C
  H22      1.0000 0.94580  0.11950  0.89150  Biso   1.000  H
  C29      1.0000 0.31160  0.78040  0.57470  Biso   1.000  C
  C30      1.0000 0.74000  0.12230  0.08760  Biso   1.000  C
  H23      1.0000 0.68380  0.05300  0.09040  Biso   1.000  H
  C31      1.0000 0.11800  0.84440  0.35700  Biso   1.000  C
  H24      1.0000 0.10790  0.91120  0.37890  Biso   1.000  H
  C32      1.0000 0.51690  0.86740  0.53590  Biso   1.000  C
  H25      1.0000 0.49880  0.79610  0.48480  Biso   1.000  H
  N24      1.0000 0.70270  0.32650  0.44010  Biso   1.000  N
  C33      1.0000 0.57340  0.07860  0.68940  Biso   1.000  C
  H26      1.0000 0.59340  0.14990  0.74150  Biso   1.000  H
  C34      1.0000 0.43080  0.88000  0.59380  Biso   1.000  C
  C35      1.0000 0.77390  0.04520  0.90860  Biso   1.000  C
  C36      1.0000 0.66300  0.95220  0.86670  Biso   1.000  C
  H27      1.0000 0.59790  0.94960  0.89920  Biso   1.000  H
  C37      1.0000 0.74130  0.86580  0.72810  Biso   1.000  C
  C38      1.0000 0.64520  0.86160  0.77690  Biso   1.000  C
  H28      1.0000 0.56880  0.79770  0.74930  Biso   1.000  H
  C39      1.0000 0.73070  0.76570  0.63660  Biso   1.000  C
  C40      1.0000 0.34390  0.93570  0.36760  Biso   1.000  C
  Ag9      1.0000 0.94270  0.12470  0.40550  Biso   1.000  Ag
  O2       1.0000 0.98500  0.95900  0.53100  Biso   1.000  O
  Ag10     1.0000 0.11890  0.89750  0.57550  Biso   1.000  Ag
