data_image0
_cell_length_a       20.512
_cell_length_b       9.9435
_cell_length_c       26.994
_cell_angle_alpha    90
_cell_angle_beta     101.945
_cell_angle_gamma    90

_symmetry_space_group_name_H-M    "P 1"
_symmetry_int_tables_number       1

loop_
  _symmetry_equiv_pos_as_xyz
  'x, y, z'

loop_
  _atom_site_label
  _atom_site_occupancy
  _atom_site_fract_x
  _atom_site_fract_y
  _atom_site_fract_z
  _atom_site_thermal_displace_type
  _atom_site_B_iso_or_equiv
  _atom_site_type_symbol
  Co1      1.0000 0.85893  0.95292  0.32287  Biso   1.000  Co
  O1       1.0000 0.44636  0.58228  0.33040  Biso   1.000  O
  O2       1.0000 0.34999  0.68255  0.32354  Biso   1.000  O
  O3       1.0000 0.43096  0.30175  0.32680  Biso   1.000  O
  O4       1.0000 0.33802  0.18598  0.31581  Biso   1.000  O
  O5       1.0000 0.79152  0.84460  0.56798  Biso   1.000  O
  N1       1.0000 0.75247  0.95726  0.31690  Biso   1.000  N
  N2       1.0000 0.87888  0.97310  0.55970  Biso   1.000  N
  H1       1.0000 0.91330  0.01740  0.57700  Biso   1.000  H
  N3       1.0000 0.84886  0.03959  0.74218  Biso   1.000  N
  N4       1.0000 0.86879  0.93980  0.40368  Biso   1.000  N
  C1       1.0000 0.54371  0.95060  0.32046  Biso   1.000  C
  C2       1.0000 0.51226  0.82740  0.32361  Biso   1.000  C
  H2       1.0000 0.53700  0.74640  0.32450  Biso   1.000  H
  C3       1.0000 0.44497  0.82220  0.32551  Biso   1.000  C
  C4       1.0000 0.40872  0.93980  0.32442  Biso   1.000  C
  H3       1.0000 0.36280  0.93580  0.32550  Biso   1.000  H
  C5       1.0000 0.43901  0.06420  0.32178  Biso   1.000  C
  C6       1.0000 0.50638  0.06880  0.31944  Biso   1.000  C
  H4       1.0000 0.52720  0.15330  0.31710  Biso   1.000  H
  C7       1.0000 0.71283  0.85500  0.29721  Biso   1.000  C
  H5       1.0000 0.73200  0.78220  0.28240  Biso   1.000  H
  C8       1.0000 0.64562  0.85000  0.29734  Biso   1.000  C
  H6       1.0000 0.61980  0.77490  0.28300  Biso   1.000  H
  C9       1.0000 0.61559  0.95500  0.31851  Biso   1.000  C
  C10      1.0000 0.65633  0.06300  0.33789  Biso   1.000  C
  H7       1.0000 0.63810  0.13810  0.35210  Biso   1.000  H
  C11      1.0000 0.72334  0.06060  0.33637  Biso   1.000  C
  H8       1.0000 0.75010  0.13540  0.34970  Biso   1.000  H
  C12      1.0000 0.83280  0.92750  0.58550  Biso   1.000  C
  C13      1.0000 0.79000  0.99810  0.71100  Biso   1.000  C
  H9       1.0000 0.75150  0.98870  0.72520  Biso   1.000  H
  C14      1.0000 0.78440  0.96960  0.66000  Biso   1.000  C
  H10      1.0000 0.74250  0.94570  0.63960  Biso   1.000  H
  C15      1.0000 0.84010  0.97600  0.63920  Biso   1.000  C
  C16      1.0000 0.89920  0.01340  0.66970  Biso   1.000  C
  H11      1.0000 0.93880  0.01800  0.65670  Biso   1.000  H
  C17      1.0000 0.90030  0.04460  0.72030  Biso   1.000  C
  H12      1.0000 0.94180  0.07160  0.74060  Biso   1.000  H
  C18      1.0000 0.41162  0.68760  0.32676  Biso   1.000  C
  C19      1.0000 0.83350  0.86620  0.42630  Biso   1.000  C
  H13      1.0000 0.80450  0.80400  0.40600  Biso   1.000  H
  C20      1.0000 0.83320  0.86730  0.47750  Biso   1.000  C
  H14      1.0000 0.80450  0.80960  0.49120  Biso   1.000  H
  C21      1.0000 0.87590  0.95530  0.50810  Biso   1.000  C
  C22      1.0000 0.91840  0.03160  0.48560  Biso   1.000  C
  H15      1.0000 0.95010  0.08950  0.50570  Biso   1.000  H
  C23      1.0000 0.91470  0.02350  0.43420  Biso   1.000  C
  H16      1.0000 0.94410  0.07610  0.41920  Biso   1.000  H
  C24      1.0000 0.39900  0.19090  0.32108  Biso   1.000  C
  C25      1.0000 0.84100  0.90660  0.55930  Biso   1.000  C
  C26      1.0000 0.80320  0.00500  0.70790  Biso   1.000  C
  C27      1.0000 0.80610  0.97990  0.65820  Biso   1.000  C
  C28      1.0000 0.86400  0.00550  0.64310  Biso   1.000  C
  C29      1.0000 0.91590  0.05410  0.67840  Biso   1.000  C
  C30      1.0000 0.91020  0.07100  0.72830  Biso   1.000  C
  C31      1.0000 0.82380  0.84400  0.41970  Biso   1.000  C
  C32      1.0000 0.81990  0.83070  0.47020  Biso   1.000  C
  C33      1.0000 0.85600  0.91520  0.50520  Biso   1.000  C
  C34      1.0000 0.89740  0.00630  0.49030  Biso   1.000  C
  C35      1.0000 0.90110  0.00700  0.43910  Biso   1.000  C
  H17      1.0000 0.76850  0.94570  0.63510  Biso   1.000  H
  H18      1.0000 0.95650  0.07670  0.66870  Biso   1.000  H
  H19      1.0000 0.94680  0.10340  0.75280  Biso   1.000  H
  H20      1.0000 0.79640  0.78850  0.39500  Biso   1.000  H
  H21      1.0000 0.79240  0.76350  0.48020  Biso   1.000  H
  H22      1.0000 0.92290  0.06720  0.51370  Biso   1.000  H
  H23      1.0000 0.93290  0.06670  0.43030  Biso   1.000  H
  H24      1.0000 0.90330  0.04610  0.58400  Biso   1.000  H
  H25      1.0000 0.76090  0.99380  0.71650  Biso   1.000  H
  N5       1.0000 0.87370  0.99310  0.59330  Biso   1.000  N
  Co2      1.0000 0.35893  0.45292  0.32287  Biso   1.000  Co
  O6       1.0000 0.94636  0.08228  0.33040  Biso   1.000  O
  O7       1.0000 0.84999  0.18255  0.32354  Biso   1.000  O
  O8       1.0000 0.93096  0.80175  0.32680  Biso   1.000  O
  O9       1.0000 0.83802  0.68598  0.31581  Biso   1.000  O
  O10      1.0000 0.29152  0.34460  0.56798  Biso   1.000  O
  N6       1.0000 0.25247  0.45726  0.31690  Biso   1.000  N
  N7       1.0000 0.37888  0.47310  0.55970  Biso   1.000  N
  H26      1.0000 0.41330  0.51740  0.57700  Biso   1.000  H
  N8       1.0000 0.34886  0.53959  0.74218  Biso   1.000  N
  N9       1.0000 0.36879  0.43980  0.40368  Biso   1.000  N
  C36      1.0000 0.04371  0.45060  0.32046  Biso   1.000  C
  C37      1.0000 0.01226  0.32740  0.32361  Biso   1.000  C
  H27      1.0000 0.03700  0.24640  0.32450  Biso   1.000  H
  C38      1.0000 0.94497  0.32220  0.32551  Biso   1.000  C
  C39      1.0000 0.90872  0.43980  0.32442  Biso   1.000  C
  H28      1.0000 0.86280  0.43580  0.32550  Biso   1.000  H
  C40      1.0000 0.93901  0.56420  0.32178  Biso   1.000  C
  C41      1.0000 0.00638  0.56880  0.31944  Biso   1.000  C
  H29      1.0000 0.02720  0.65330  0.31710  Biso   1.000  H
  C42      1.0000 0.21283  0.35500  0.29721  Biso   1.000  C
  H30      1.0000 0.23200  0.28220  0.28240  Biso   1.000  H
  C43      1.0000 0.14562  0.35000  0.29734  Biso   1.000  C
  H31      1.0000 0.11980  0.27490  0.28300  Biso   1.000  H
  C44      1.0000 0.11559  0.45500  0.31851  Biso   1.000  C
  C45      1.0000 0.15633  0.56300  0.33789  Biso   1.000  C
  H32      1.0000 0.13810  0.63810  0.35210  Biso   1.000  H
  C46      1.0000 0.22334  0.56060  0.33637  Biso   1.000  C
  H33      1.0000 0.25010  0.63540  0.34970  Biso   1.000  H
  C47      1.0000 0.33280  0.42750  0.58550  Biso   1.000  C
  C48      1.0000 0.29000  0.49810  0.71100  Biso   1.000  C
  H34      1.0000 0.25150  0.48870  0.72520  Biso   1.000  H
  C49      1.0000 0.28440  0.46960  0.66000  Biso   1.000  C
  H35      1.0000 0.24250  0.44570  0.63960  Biso   1.000  H
  C50      1.0000 0.34010  0.47600  0.63920  Biso   1.000  C
  C51      1.0000 0.39920  0.51340  0.66970  Biso   1.000  C
  H36      1.0000 0.43880  0.51800  0.65670  Biso   1.000  H
  C52      1.0000 0.40030  0.54460  0.72030  Biso   1.000  C
  H37      1.0000 0.44180  0.57160  0.74060  Biso   1.000  H
  C53      1.0000 0.91162  0.18760  0.32676  Biso   1.000  C
  C54      1.0000 0.33350  0.36620  0.42630  Biso   1.000  C
  H38      1.0000 0.30450  0.30400  0.40600  Biso   1.000  H
  C55      1.0000 0.33320  0.36730  0.47750  Biso   1.000  C
  H39      1.0000 0.30450  0.30960  0.49120  Biso   1.000  H
  C56      1.0000 0.37590  0.45530  0.50810  Biso   1.000  C
  C57      1.0000 0.41840  0.53160  0.48560  Biso   1.000  C
  H40      1.0000 0.45010  0.58950  0.50570  Biso   1.000  H
  C58      1.0000 0.41470  0.52350  0.43420  Biso   1.000  C
  H41      1.0000 0.44410  0.57610  0.41920  Biso   1.000  H
  C59      1.0000 0.89900  0.69090  0.32108  Biso   1.000  C
  C60      1.0000 0.34100  0.40660  0.55930  Biso   1.000  C
  C61      1.0000 0.30320  0.50500  0.70790  Biso   1.000  C
  C62      1.0000 0.30610  0.47990  0.65820  Biso   1.000  C
  C63      1.0000 0.36400  0.50550  0.64310  Biso   1.000  C
  C64      1.0000 0.41590  0.55410  0.67840  Biso   1.000  C
  C65      1.0000 0.41020  0.57100  0.72830  Biso   1.000  C
  C66      1.0000 0.32380  0.34400  0.41970  Biso   1.000  C
  C67      1.0000 0.31990  0.33070  0.47020  Biso   1.000  C
  C68      1.0000 0.35600  0.41520  0.50520  Biso   1.000  C
  C69      1.0000 0.39740  0.50630  0.49030  Biso   1.000  C
  C70      1.0000 0.40110  0.50700  0.43910  Biso   1.000  C
  H42      1.0000 0.26850  0.44570  0.63510  Biso   1.000  H
  H43      1.0000 0.45650  0.57670  0.66870  Biso   1.000  H
  H44      1.0000 0.44680  0.60340  0.75280  Biso   1.000  H
  H45      1.0000 0.29640  0.28850  0.39500  Biso   1.000  H
  H46      1.0000 0.29240  0.26350  0.48020  Biso   1.000  H
  H47      1.0000 0.42290  0.56720  0.51370  Biso   1.000  H
  H48      1.0000 0.43290  0.56670  0.43030  Biso   1.000  H
  H49      1.0000 0.40330  0.54610  0.58400  Biso   1.000  H
  H50      1.0000 0.26090  0.49380  0.71650  Biso   1.000  H
  N10      1.0000 0.37370  0.49310  0.59330  Biso   1.000  N
  Co3      1.0000 0.85893  0.04708  0.82287  Biso   1.000  Co
  O11      1.0000 0.44636  0.41772  0.83040  Biso   1.000  O
  O12      1.0000 0.34999  0.31745  0.82354  Biso   1.000  O
  O13      1.0000 0.43096  0.69825  0.82680  Biso   1.000  O
  O14      1.0000 0.33802  0.81402  0.81581  Biso   1.000  O
  O15      1.0000 0.79152  0.15540  0.06798  Biso   1.000  O
  N11      1.0000 0.75247  0.04274  0.81690  Biso   1.000  N
  N12      1.0000 0.87888  0.02690  0.05970  Biso   1.000  N
  H51      1.0000 0.91330  0.98260  0.07700  Biso   1.000  H
  N13      1.0000 0.84886  0.96041  0.24218  Biso   1.000  N
  N14      1.0000 0.86879  0.06020  0.90368  Biso   1.000  N
  C71      1.0000 0.54371  0.04940  0.82046  Biso   1.000  C
  C72      1.0000 0.51226  0.17260  0.82361  Biso   1.000  C
  H52      1.0000 0.53700  0.25360  0.82450  Biso   1.000  H
  C73      1.0000 0.44497  0.17780  0.82551  Biso   1.000  C
  C74      1.0000 0.40872  0.06020  0.82442  Biso   1.000  C
  H53      1.0000 0.36280  0.06420  0.82550  Biso   1.000  H
  C75      1.0000 0.43901  0.93580  0.82178  Biso   1.000  C
  C76      1.0000 0.50638  0.93120  0.81944  Biso   1.000  C
  H54      1.0000 0.52720  0.84670  0.81710  Biso   1.000  H
  C77      1.0000 0.71283  0.14500  0.79721  Biso   1.000  C
  H55      1.0000 0.73200  0.21780  0.78240  Biso   1.000  H
  C78      1.0000 0.64562  0.15000  0.79734  Biso   1.000  C
  H56      1.0000 0.61980  0.22510  0.78300  Biso   1.000  H
  C79      1.0000 0.61559  0.04500  0.81851  Biso   1.000  C
  C80      1.0000 0.65633  0.93700  0.83789  Biso   1.000  C
  H57      1.0000 0.63810  0.86190  0.85210  Biso   1.000  H
  C81      1.0000 0.72334  0.93940  0.83637  Biso   1.000  C
  H58      1.0000 0.75010  0.86460  0.84970  Biso   1.000  H
  C82      1.0000 0.83280  0.07250  0.08550  Biso   1.000  C
  C83      1.0000 0.79000  0.00190  0.21100  Biso   1.000  C
  H59      1.0000 0.75150  0.01130  0.22520  Biso   1.000  H
  C84      1.0000 0.78440  0.03040  0.16000  Biso   1.000  C
  H60      1.0000 0.74250  0.05430  0.13960  Biso   1.000  H
  C85      1.0000 0.84010  0.02400  0.13920  Biso   1.000  C
  C86      1.0000 0.89920  0.98660  0.16970  Biso   1.000  C
  H61      1.0000 0.93880  0.98200  0.15670  Biso   1.000  H
  C87      1.0000 0.90030  0.95540  0.22030  Biso   1.000  C
  H62      1.0000 0.94180  0.92840  0.24060  Biso   1.000  H
  C88      1.0000 0.41162  0.31240  0.82676  Biso   1.000  C
  C89      1.0000 0.83350  0.13380  0.92630  Biso   1.000  C
  H63      1.0000 0.80450  0.19600  0.90600  Biso   1.000  H
  C90      1.0000 0.83320  0.13270  0.97750  Biso   1.000  C
  H64      1.0000 0.80450  0.19040  0.99120  Biso   1.000  H
  C91      1.0000 0.87590  0.04470  0.00810  Biso   1.000  C
  C92      1.0000 0.91840  0.96840  0.98560  Biso   1.000  C
  H65      1.0000 0.95010  0.91050  0.00570  Biso   1.000  H
  C93      1.0000 0.91470  0.97650  0.93420  Biso   1.000  C
  H66      1.0000 0.94410  0.92390  0.91920  Biso   1.000  H
  C94      1.0000 0.39900  0.80910  0.82108  Biso   1.000  C
  C95      1.0000 0.84100  0.09340  0.05930  Biso   1.000  C
  C96      1.0000 0.80320  0.99500  0.20790  Biso   1.000  C
  C97      1.0000 0.80610  0.02010  0.15820  Biso   1.000  C
  C98      1.0000 0.86400  0.99450  0.14310  Biso   1.000  C
  C99      1.0000 0.91590  0.94590  0.17840  Biso   1.000  C
  C100     1.0000 0.91020  0.92900  0.22830  Biso   1.000  C
  C101     1.0000 0.82380  0.15600  0.91970  Biso   1.000  C
  C102     1.0000 0.81990  0.16930  0.97020  Biso   1.000  C
  C103     1.0000 0.85600  0.08480  0.00520  Biso   1.000  C
  C104     1.0000 0.89740  0.99370  0.99030  Biso   1.000  C
  C105     1.0000 0.90110  0.99300  0.93910  Biso   1.000  C
  H67      1.0000 0.76850  0.05430  0.13510  Biso   1.000  H
  H68      1.0000 0.95650  0.92330  0.16870  Biso   1.000  H
  H69      1.0000 0.94680  0.89660  0.25280  Biso   1.000  H
  H70      1.0000 0.79640  0.21150  0.89500  Biso   1.000  H
  H71      1.0000 0.79240  0.23650  0.98020  Biso   1.000  H
  H72      1.0000 0.92290  0.93280  0.01370  Biso   1.000  H
  H73      1.0000 0.93290  0.93330  0.93030  Biso   1.000  H
  H74      1.0000 0.90330  0.95390  0.08400  Biso   1.000  H
  H75      1.0000 0.76090  0.00620  0.21650  Biso   1.000  H
  N15      1.0000 0.87370  0.00690  0.09330  Biso   1.000  N
  Co4      1.0000 0.35893  0.54708  0.82287  Biso   1.000  Co
  O16      1.0000 0.94636  0.91772  0.83040  Biso   1.000  O
  O17      1.0000 0.84999  0.81745  0.82354  Biso   1.000  O
  O18      1.0000 0.93096  0.19825  0.82680  Biso   1.000  O
  O19      1.0000 0.83802  0.31402  0.81581  Biso   1.000  O
  O20      1.0000 0.29152  0.65540  0.06798  Biso   1.000  O
  N16      1.0000 0.25247  0.54274  0.81690  Biso   1.000  N
  N17      1.0000 0.37888  0.52690  0.05970  Biso   1.000  N
  H76      1.0000 0.41330  0.48260  0.07700  Biso   1.000  H
  N18      1.0000 0.34886  0.46041  0.24218  Biso   1.000  N
  N19      1.0000 0.36879  0.56020  0.90368  Biso   1.000  N
  C106     1.0000 0.04371  0.54940  0.82046  Biso   1.000  C
  C107     1.0000 0.01226  0.67260  0.82361  Biso   1.000  C
  H77      1.0000 0.03700  0.75360  0.82450  Biso   1.000  H
  C108     1.0000 0.94497  0.67780  0.82551  Biso   1.000  C
  C109     1.0000 0.90872  0.56020  0.82442  Biso   1.000  C
  H78      1.0000 0.86280  0.56420  0.82550  Biso   1.000  H
  C110     1.0000 0.93901  0.43580  0.82178  Biso   1.000  C
  C111     1.0000 0.00638  0.43120  0.81944  Biso   1.000  C
  H79      1.0000 0.02720  0.34670  0.81710  Biso   1.000  H
  C112     1.0000 0.21283  0.64500  0.79721  Biso   1.000  C
  H80      1.0000 0.23200  0.71780  0.78240  Biso   1.000  H
  C113     1.0000 0.14562  0.65000  0.79734  Biso   1.000  C
  H81      1.0000 0.11980  0.72510  0.78300  Biso   1.000  H
  C114     1.0000 0.11559  0.54500  0.81851  Biso   1.000  C
  C115     1.0000 0.15633  0.43700  0.83789  Biso   1.000  C
  H82      1.0000 0.13810  0.36190  0.85210  Biso   1.000  H
  C116     1.0000 0.22334  0.43940  0.83637  Biso   1.000  C
  H83      1.0000 0.25010  0.36460  0.84970  Biso   1.000  H
  C117     1.0000 0.33280  0.57250  0.08550  Biso   1.000  C
  C118     1.0000 0.29000  0.50190  0.21100  Biso   1.000  C
  H84      1.0000 0.25150  0.51130  0.22520  Biso   1.000  H
  C119     1.0000 0.28440  0.53040  0.16000  Biso   1.000  C
  H85      1.0000 0.24250  0.55430  0.13960  Biso   1.000  H
  C120     1.0000 0.34010  0.52400  0.13920  Biso   1.000  C
  C121     1.0000 0.39920  0.48660  0.16970  Biso   1.000  C
  H86      1.0000 0.43880  0.48200  0.15670  Biso   1.000  H
  C122     1.0000 0.40030  0.45540  0.22030  Biso   1.000  C
  H87      1.0000 0.44180  0.42840  0.24060  Biso   1.000  H
  C123     1.0000 0.91162  0.81240  0.82676  Biso   1.000  C
  C124     1.0000 0.33350  0.63380  0.92630  Biso   1.000  C
  H88      1.0000 0.30450  0.69600  0.90600  Biso   1.000  H
  C125     1.0000 0.33320  0.63270  0.97750  Biso   1.000  C
  H89      1.0000 0.30450  0.69040  0.99120  Biso   1.000  H
  C126     1.0000 0.37590  0.54470  0.00810  Biso   1.000  C
  C127     1.0000 0.41840  0.46840  0.98560  Biso   1.000  C
  H90      1.0000 0.45010  0.41050  0.00570  Biso   1.000  H
  C128     1.0000 0.41470  0.47650  0.93420  Biso   1.000  C
  H91      1.0000 0.44410  0.42390  0.91920  Biso   1.000  H
  C129     1.0000 0.89900  0.30910  0.82108  Biso   1.000  C
  C130     1.0000 0.34100  0.59340  0.05930  Biso   1.000  C
  C131     1.0000 0.30320  0.49500  0.20790  Biso   1.000  C
  C132     1.0000 0.30610  0.52010  0.15820  Biso   1.000  C
  C133     1.0000 0.36400  0.49450  0.14310  Biso   1.000  C
  C134     1.0000 0.41590  0.44590  0.17840  Biso   1.000  C
  C135     1.0000 0.41020  0.42900  0.22830  Biso   1.000  C
  C136     1.0000 0.32380  0.65600  0.91970  Biso   1.000  C
  C137     1.0000 0.31990  0.66930  0.97020  Biso   1.000  C
  C138     1.0000 0.35600  0.58480  0.00520  Biso   1.000  C
  C139     1.0000 0.39740  0.49370  0.99030  Biso   1.000  C
  C140     1.0000 0.40110  0.49300  0.93910  Biso   1.000  C
  H92      1.0000 0.26850  0.55430  0.13510  Biso   1.000  H
  H93      1.0000 0.45650  0.42330  0.16870  Biso   1.000  H
  H94      1.0000 0.44680  0.39660  0.25280  Biso   1.000  H
  H95      1.0000 0.29640  0.71150  0.89500  Biso   1.000  H
  H96      1.0000 0.29240  0.73650  0.98020  Biso   1.000  H
  H97      1.0000 0.42290  0.43280  0.01370  Biso   1.000  H
  H98      1.0000 0.43290  0.43330  0.93030  Biso   1.000  H
  H99      1.0000 0.40330  0.45390  0.08400  Biso   1.000  H
  H100     1.0000 0.26090  0.50620  0.21650  Biso   1.000  H
  N20      1.0000 0.37370  0.50690  0.09330  Biso   1.000  N
  Co5      1.0000 0.14107  0.95292  0.17713  Biso   1.000  Co
  O21      1.0000 0.55364  0.58228  0.16960  Biso   1.000  O
  O22      1.0000 0.65001  0.68255  0.17646  Biso   1.000  O
  O23      1.0000 0.56904  0.30175  0.17320  Biso   1.000  O
  O24      1.0000 0.66198  0.18598  0.18419  Biso   1.000  O
  O25      1.0000 0.20848  0.84460  0.93202  Biso   1.000  O
  N21      1.0000 0.24753  0.95726  0.18310  Biso   1.000  N
  N22      1.0000 0.12112  0.97310  0.94030  Biso   1.000  N
  H101     1.0000 0.08670  0.01740  0.92300  Biso   1.000  H
  N23      1.0000 0.15114  0.03959  0.75782  Biso   1.000  N
  N24      1.0000 0.13121  0.93980  0.09632  Biso   1.000  N
  C141     1.0000 0.45629  0.95060  0.17954  Biso   1.000  C
  C142     1.0000 0.48774  0.82740  0.17639  Biso   1.000  C
  H102     1.0000 0.46300  0.74640  0.17550  Biso   1.000  H
  C143     1.0000 0.55503  0.82220  0.17449  Biso   1.000  C
  C144     1.0000 0.59128  0.93980  0.17558  Biso   1.000  C
  H103     1.0000 0.63720  0.93580  0.17450  Biso   1.000  H
  C145     1.0000 0.56099  0.06420  0.17822  Biso   1.000  C
  C146     1.0000 0.49362  0.06880  0.18056  Biso   1.000  C
  H104     1.0000 0.47280  0.15330  0.18290  Biso   1.000  H
  C147     1.0000 0.28717  0.85500  0.20279  Biso   1.000  C
  H105     1.0000 0.26800  0.78220  0.21760  Biso   1.000  H
  C148     1.0000 0.35438  0.85000  0.20266  Biso   1.000  C
  H106     1.0000 0.38020  0.77490  0.21700  Biso   1.000  H
  C149     1.0000 0.38441  0.95500  0.18149  Biso   1.000  C
  C150     1.0000 0.34367  0.06300  0.16211  Biso   1.000  C
  H107     1.0000 0.36190  0.13810  0.14790  Biso   1.000  H
  C151     1.0000 0.27666  0.06060  0.16363  Biso   1.000  C
  H108     1.0000 0.24990  0.13540  0.15030  Biso   1.000  H
  C152     1.0000 0.16720  0.92750  0.91450  Biso   1.000  C
  C153     1.0000 0.21000  0.99810  0.78900  Biso   1.000  C
  H109     1.0000 0.24850  0.98870  0.77480  Biso   1.000  H
  C154     1.0000 0.21560  0.96960  0.84000  Biso   1.000  C
  H110     1.0000 0.25750  0.94570  0.86040  Biso   1.000  H
  C155     1.0000 0.15990  0.97600  0.86080  Biso   1.000  C
  C156     1.0000 0.10080  0.01340  0.83030  Biso   1.000  C
  H111     1.0000 0.06120  0.01800  0.84330  Biso   1.000  H
  C157     1.0000 0.09970  0.04460  0.77970  Biso   1.000  C
  H112     1.0000 0.05820  0.07160  0.75940  Biso   1.000  H
  C158     1.0000 0.58838  0.68760  0.17324  Biso   1.000  C
  C159     1.0000 0.16650  0.86620  0.07370  Biso   1.000  C
  H113     1.0000 0.19550  0.80400  0.09400  Biso   1.000  H
  C160     1.0000 0.16680  0.86730  0.02250  Biso   1.000  C
  H114     1.0000 0.19550  0.80960  0.00880  Biso   1.000  H
  C161     1.0000 0.12410  0.95530  0.99190  Biso   1.000  C
  C162     1.0000 0.08160  0.03160  0.01440  Biso   1.000  C
  H115     1.0000 0.04990  0.08950  0.99430  Biso   1.000  H
  C163     1.0000 0.08530  0.02350  0.06580  Biso   1.000  C
  H116     1.0000 0.05590  0.07610  0.08080  Biso   1.000  H
  C164     1.0000 0.60100  0.19090  0.17892  Biso   1.000  C
  C165     1.0000 0.15900  0.90660  0.94070  Biso   1.000  C
  C166     1.0000 0.19680  0.00500  0.79210  Biso   1.000  C
  C167     1.0000 0.19390  0.97990  0.84180  Biso   1.000  C
  C168     1.0000 0.13600  0.00550  0.85690  Biso   1.000  C
  C169     1.0000 0.08410  0.05410  0.82160  Biso   1.000  C
  C170     1.0000 0.08980  0.07100  0.77170  Biso   1.000  C
  C171     1.0000 0.17620  0.84400  0.08030  Biso   1.000  C
  C172     1.0000 0.18010  0.83070  0.02980  Biso   1.000  C
  C173     1.0000 0.14400  0.91520  0.99480  Biso   1.000  C
  C174     1.0000 0.10260  0.00630  0.00970  Biso   1.000  C
  C175     1.0000 0.09890  0.00700  0.06090  Biso   1.000  C
  H117     1.0000 0.23150  0.94570  0.86490  Biso   1.000  H
  H118     1.0000 0.04350  0.07670  0.83130  Biso   1.000  H
  H119     1.0000 0.05320  0.10340  0.74720  Biso   1.000  H
  H120     1.0000 0.20360  0.78850  0.10500  Biso   1.000  H
  H121     1.0000 0.20760  0.76350  0.01980  Biso   1.000  H
  H122     1.0000 0.07710  0.06720  0.98630  Biso   1.000  H
  H123     1.0000 0.06710  0.06670  0.06970  Biso   1.000  H
  H124     1.0000 0.09670  0.04610  0.91600  Biso   1.000  H
  H125     1.0000 0.23910  0.99380  0.78350  Biso   1.000  H
  N25      1.0000 0.12630  0.99310  0.90670  Biso   1.000  N
  Co6      1.0000 0.64107  0.45292  0.17713  Biso   1.000  Co
  O26      1.0000 0.05364  0.08228  0.16960  Biso   1.000  O
  O27      1.0000 0.15001  0.18255  0.17646  Biso   1.000  O
  O28      1.0000 0.06904  0.80175  0.17320  Biso   1.000  O
  O29      1.0000 0.16198  0.68598  0.18419  Biso   1.000  O
  O30      1.0000 0.70848  0.34460  0.93202  Biso   1.000  O
  N26      1.0000 0.74753  0.45726  0.18310  Biso   1.000  N
  N27      1.0000 0.62112  0.47310  0.94030  Biso   1.000  N
  H126     1.0000 0.58670  0.51740  0.92300  Biso   1.000  H
  N28      1.0000 0.65114  0.53959  0.75782  Biso   1.000  N
  N29      1.0000 0.63121  0.43980  0.09632  Biso   1.000  N
  C176     1.0000 0.95629  0.45060  0.17954  Biso   1.000  C
  C177     1.0000 0.98774  0.32740  0.17639  Biso   1.000  C
  H127     1.0000 0.96300  0.24640  0.17550  Biso   1.000  H
  C178     1.0000 0.05503  0.32220  0.17449  Biso   1.000  C
  C179     1.0000 0.09128  0.43980  0.17558  Biso   1.000  C
  H128     1.0000 0.13720  0.43580  0.17450  Biso   1.000  H
  C180     1.0000 0.06099  0.56420  0.17822  Biso   1.000  C
  C181     1.0000 0.99362  0.56880  0.18056  Biso   1.000  C
  H129     1.0000 0.97280  0.65330  0.18290  Biso   1.000  H
  C182     1.0000 0.78717  0.35500  0.20279  Biso   1.000  C
  H130     1.0000 0.76800  0.28220  0.21760  Biso   1.000  H
  C183     1.0000 0.85438  0.35000  0.20266  Biso   1.000  C
  H131     1.0000 0.88020  0.27490  0.21700  Biso   1.000  H
  C184     1.0000 0.88441  0.45500  0.18149  Biso   1.000  C
  C185     1.0000 0.84367  0.56300  0.16211  Biso   1.000  C
  H132     1.0000 0.86190  0.63810  0.14790  Biso   1.000  H
  C186     1.0000 0.77666  0.56060  0.16363  Biso   1.000  C
  H133     1.0000 0.74990  0.63540  0.15030  Biso   1.000  H
  C187     1.0000 0.66720  0.42750  0.91450  Biso   1.000  C
  C188     1.0000 0.71000  0.49810  0.78900  Biso   1.000  C
  H134     1.0000 0.74850  0.48870  0.77480  Biso   1.000  H
  C189     1.0000 0.71560  0.46960  0.84000  Biso   1.000  C
  H135     1.0000 0.75750  0.44570  0.86040  Biso   1.000  H
  C190     1.0000 0.65990  0.47600  0.86080  Biso   1.000  C
  C191     1.0000 0.60080  0.51340  0.83030  Biso   1.000  C
  H136     1.0000 0.56120  0.51800  0.84330  Biso   1.000  H
  C192     1.0000 0.59970  0.54460  0.77970  Biso   1.000  C
  H137     1.0000 0.55820  0.57160  0.75940  Biso   1.000  H
  C193     1.0000 0.08838  0.18760  0.17324  Biso   1.000  C
  C194     1.0000 0.66650  0.36620  0.07370  Biso   1.000  C
  H138     1.0000 0.69550  0.30400  0.09400  Biso   1.000  H
  C195     1.0000 0.66680  0.36730  0.02250  Biso   1.000  C
  H139     1.0000 0.69550  0.30960  0.00880  Biso   1.000  H
  C196     1.0000 0.62410  0.45530  0.99190  Biso   1.000  C
  C197     1.0000 0.58160  0.53160  0.01440  Biso   1.000  C
  H140     1.0000 0.54990  0.58950  0.99430  Biso   1.000  H
  C198     1.0000 0.58530  0.52350  0.06580  Biso   1.000  C
  H141     1.0000 0.55590  0.57610  0.08080  Biso   1.000  H
  C199     1.0000 0.10100  0.69090  0.17892  Biso   1.000  C
  C200     1.0000 0.65900  0.40660  0.94070  Biso   1.000  C
  C201     1.0000 0.69680  0.50500  0.79210  Biso   1.000  C
  C202     1.0000 0.69390  0.47990  0.84180  Biso   1.000  C
  C203     1.0000 0.63600  0.50550  0.85690  Biso   1.000  C
  C204     1.0000 0.58410  0.55410  0.82160  Biso   1.000  C
  C205     1.0000 0.58980  0.57100  0.77170  Biso   1.000  C
  C206     1.0000 0.67620  0.34400  0.08030  Biso   1.000  C
  C207     1.0000 0.68010  0.33070  0.02980  Biso   1.000  C
  C208     1.0000 0.64400  0.41520  0.99480  Biso   1.000  C
  C209     1.0000 0.60260  0.50630  0.00970  Biso   1.000  C
  C210     1.0000 0.59890  0.50700  0.06090  Biso   1.000  C
  H142     1.0000 0.73150  0.44570  0.86490  Biso   1.000  H
  H143     1.0000 0.54350  0.57670  0.83130  Biso   1.000  H
  H144     1.0000 0.55320  0.60340  0.74720  Biso   1.000  H
  H145     1.0000 0.70360  0.28850  0.10500  Biso   1.000  H
  H146     1.0000 0.70760  0.26350  0.01980  Biso   1.000  H
  H147     1.0000 0.57710  0.56720  0.98630  Biso   1.000  H
  H148     1.0000 0.56710  0.56670  0.06970  Biso   1.000  H
  H149     1.0000 0.59670  0.54610  0.91600  Biso   1.000  H
  H150     1.0000 0.73910  0.49380  0.78350  Biso   1.000  H
  N30      1.0000 0.62630  0.49310  0.90670  Biso   1.000  N
  Co7      1.0000 0.14107  0.04708  0.67713  Biso   1.000  Co
  O31      1.0000 0.55364  0.41772  0.66960  Biso   1.000  O
  O32      1.0000 0.65001  0.31745  0.67646  Biso   1.000  O
  O33      1.0000 0.56904  0.69825  0.67320  Biso   1.000  O
  O34      1.0000 0.66198  0.81402  0.68419  Biso   1.000  O
  O35      1.0000 0.20848  0.15540  0.43202  Biso   1.000  O
  N31      1.0000 0.24753  0.04274  0.68310  Biso   1.000  N
  N32      1.0000 0.12112  0.02690  0.44030  Biso   1.000  N
  H151     1.0000 0.08670  0.98260  0.42300  Biso   1.000  H
  N33      1.0000 0.15114  0.96041  0.25782  Biso   1.000  N
  N34      1.0000 0.13121  0.06020  0.59632  Biso   1.000  N
  C211     1.0000 0.45629  0.04940  0.67954  Biso   1.000  C
  C212     1.0000 0.48774  0.17260  0.67639  Biso   1.000  C
  H152     1.0000 0.46300  0.25360  0.67550  Biso   1.000  H
  C213     1.0000 0.55503  0.17780  0.67449  Biso   1.000  C
  C214     1.0000 0.59128  0.06020  0.67558  Biso   1.000  C
  H153     1.0000 0.63720  0.06420  0.67450  Biso   1.000  H
  C215     1.0000 0.56099  0.93580  0.67822  Biso   1.000  C
  C216     1.0000 0.49362  0.93120  0.68056  Biso   1.000  C
  H154     1.0000 0.47280  0.84670  0.68290  Biso   1.000  H
  C217     1.0000 0.28717  0.14500  0.70279  Biso   1.000  C
  H155     1.0000 0.26800  0.21780  0.71760  Biso   1.000  H
  C218     1.0000 0.35438  0.15000  0.70266  Biso   1.000  C
  H156     1.0000 0.38020  0.22510  0.71700  Biso   1.000  H
  C219     1.0000 0.38441  0.04500  0.68149  Biso   1.000  C
  C220     1.0000 0.34367  0.93700  0.66211  Biso   1.000  C
  H157     1.0000 0.36190  0.86190  0.64790  Biso   1.000  H
  C221     1.0000 0.27666  0.93940  0.66363  Biso   1.000  C
  H158     1.0000 0.24990  0.86460  0.65030  Biso   1.000  H
  C222     1.0000 0.16720  0.07250  0.41450  Biso   1.000  C
  C223     1.0000 0.21000  0.00190  0.28900  Biso   1.000  C
  H159     1.0000 0.24850  0.01130  0.27480  Biso   1.000  H
  C224     1.0000 0.21560  0.03040  0.34000  Biso   1.000  C
  H160     1.0000 0.25750  0.05430  0.36040  Biso   1.000  H
  C225     1.0000 0.15990  0.02400  0.36080  Biso   1.000  C
  C226     1.0000 0.10080  0.98660  0.33030  Biso   1.000  C
  H161     1.0000 0.06120  0.98200  0.34330  Biso   1.000  H
  C227     1.0000 0.09970  0.95540  0.27970  Biso   1.000  C
  H162     1.0000 0.05820  0.92840  0.25940  Biso   1.000  H
  C228     1.0000 0.58838  0.31240  0.67324  Biso   1.000  C
  C229     1.0000 0.16650  0.13380  0.57370  Biso   1.000  C
  H163     1.0000 0.19550  0.19600  0.59400  Biso   1.000  H
  C230     1.0000 0.16680  0.13270  0.52250  Biso   1.000  C
  H164     1.0000 0.19550  0.19040  0.50880  Biso   1.000  H
  C231     1.0000 0.12410  0.04470  0.49190  Biso   1.000  C
  C232     1.0000 0.08160  0.96840  0.51440  Biso   1.000  C
  H165     1.0000 0.04990  0.91050  0.49430  Biso   1.000  H
  C233     1.0000 0.08530  0.97650  0.56580  Biso   1.000  C
  H166     1.0000 0.05590  0.92390  0.58080  Biso   1.000  H
  C234     1.0000 0.60100  0.80910  0.67892  Biso   1.000  C
  C235     1.0000 0.15900  0.09340  0.44070  Biso   1.000  C
  C236     1.0000 0.19680  0.99500  0.29210  Biso   1.000  C
  C237     1.0000 0.19390  0.02010  0.34180  Biso   1.000  C
  C238     1.0000 0.13600  0.99450  0.35690  Biso   1.000  C
  C239     1.0000 0.08410  0.94590  0.32160  Biso   1.000  C
  C240     1.0000 0.08980  0.92900  0.27170  Biso   1.000  C
  C241     1.0000 0.17620  0.15600  0.58030  Biso   1.000  C
  C242     1.0000 0.18010  0.16930  0.52980  Biso   1.000  C
  C243     1.0000 0.14400  0.08480  0.49480  Biso   1.000  C
  C244     1.0000 0.10260  0.99370  0.50970  Biso   1.000  C
  C245     1.0000 0.09890  0.99300  0.56090  Biso   1.000  C
  H167     1.0000 0.23150  0.05430  0.36490  Biso   1.000  H
  H168     1.0000 0.04350  0.92330  0.33130  Biso   1.000  H
  H169     1.0000 0.05320  0.89660  0.24720  Biso   1.000  H
  H170     1.0000 0.20360  0.21150  0.60500  Biso   1.000  H
  H171     1.0000 0.20760  0.23650  0.51980  Biso   1.000  H
  H172     1.0000 0.07710  0.93280  0.48630  Biso   1.000  H
  H173     1.0000 0.06710  0.93330  0.56970  Biso   1.000  H
  H174     1.0000 0.09670  0.95390  0.41600  Biso   1.000  H
  H175     1.0000 0.23910  0.00620  0.28350  Biso   1.000  H
  N35      1.0000 0.12630  0.00690  0.40670  Biso   1.000  N
  Co8      1.0000 0.64107  0.54708  0.67713  Biso   1.000  Co
  O36      1.0000 0.05364  0.91772  0.66960  Biso   1.000  O
  O37      1.0000 0.15001  0.81745  0.67646  Biso   1.000  O
  O38      1.0000 0.06904  0.19825  0.67320  Biso   1.000  O
  O39      1.0000 0.16198  0.31402  0.68419  Biso   1.000  O
  O40      1.0000 0.70848  0.65540  0.43202  Biso   1.000  O
  N36      1.0000 0.74753  0.54274  0.68310  Biso   1.000  N
  N37      1.0000 0.62112  0.52690  0.44030  Biso   1.000  N
  H176     1.0000 0.58670  0.48260  0.42300  Biso   1.000  H
  N38      1.0000 0.65114  0.46041  0.25782  Biso   1.000  N
  N39      1.0000 0.63121  0.56020  0.59632  Biso   1.000  N
  C246     1.0000 0.95629  0.54940  0.67954  Biso   1.000  C
  C247     1.0000 0.98774  0.67260  0.67639  Biso   1.000  C
  H177     1.0000 0.96300  0.75360  0.67550  Biso   1.000  H
  C248     1.0000 0.05503  0.67780  0.67449  Biso   1.000  C
  C249     1.0000 0.09128  0.56020  0.67558  Biso   1.000  C
  H178     1.0000 0.13720  0.56420  0.67450  Biso   1.000  H
  C250     1.0000 0.06099  0.43580  0.67822  Biso   1.000  C
  C251     1.0000 0.99362  0.43120  0.68056  Biso   1.000  C
  H179     1.0000 0.97280  0.34670  0.68290  Biso   1.000  H
  C252     1.0000 0.78717  0.64500  0.70279  Biso   1.000  C
  H180     1.0000 0.76800  0.71780  0.71760  Biso   1.000  H
  C253     1.0000 0.85438  0.65000  0.70266  Biso   1.000  C
  H181     1.0000 0.88020  0.72510  0.71700  Biso   1.000  H
  C254     1.0000 0.88441  0.54500  0.68149  Biso   1.000  C
  C255     1.0000 0.84367  0.43700  0.66211  Biso   1.000  C
  H182     1.0000 0.86190  0.36190  0.64790  Biso   1.000  H
  C256     1.0000 0.77666  0.43940  0.66363  Biso   1.000  C
  H183     1.0000 0.74990  0.36460  0.65030  Biso   1.000  H
  C257     1.0000 0.66720  0.57250  0.41450  Biso   1.000  C
  C258     1.0000 0.71000  0.50190  0.28900  Biso   1.000  C
  H184     1.0000 0.74850  0.51130  0.27480  Biso   1.000  H
  C259     1.0000 0.71560  0.53040  0.34000  Biso   1.000  C
  H185     1.0000 0.75750  0.55430  0.36040  Biso   1.000  H
  C260     1.0000 0.65990  0.52400  0.36080  Biso   1.000  C
  C261     1.0000 0.60080  0.48660  0.33030  Biso   1.000  C
  H186     1.0000 0.56120  0.48200  0.34330  Biso   1.000  H
  C262     1.0000 0.59970  0.45540  0.27970  Biso   1.000  C
  H187     1.0000 0.55820  0.42840  0.25940  Biso   1.000  H
  C263     1.0000 0.08838  0.81240  0.67324  Biso   1.000  C
  C264     1.0000 0.66650  0.63380  0.57370  Biso   1.000  C
  H188     1.0000 0.69550  0.69600  0.59400  Biso   1.000  H
  C265     1.0000 0.66680  0.63270  0.52250  Biso   1.000  C
  H189     1.0000 0.69550  0.69040  0.50880  Biso   1.000  H
  C266     1.0000 0.62410  0.54470  0.49190  Biso   1.000  C
  C267     1.0000 0.58160  0.46840  0.51440  Biso   1.000  C
  H190     1.0000 0.54990  0.41050  0.49430  Biso   1.000  H
  C268     1.0000 0.58530  0.47650  0.56580  Biso   1.000  C
  H191     1.0000 0.55590  0.42390  0.58080  Biso   1.000  H
  C269     1.0000 0.10100  0.30910  0.67892  Biso   1.000  C
  C270     1.0000 0.65900  0.59340  0.44070  Biso   1.000  C
  C271     1.0000 0.69680  0.49500  0.29210  Biso   1.000  C
  C272     1.0000 0.69390  0.52010  0.34180  Biso   1.000  C
  C273     1.0000 0.63600  0.49450  0.35690  Biso   1.000  C
  C274     1.0000 0.58410  0.44590  0.32160  Biso   1.000  C
  C275     1.0000 0.58980  0.42900  0.27170  Biso   1.000  C
  C276     1.0000 0.67620  0.65600  0.58030  Biso   1.000  C
  C277     1.0000 0.68010  0.66930  0.52980  Biso   1.000  C
  C278     1.0000 0.64400  0.58480  0.49480  Biso   1.000  C
  C279     1.0000 0.60260  0.49370  0.50970  Biso   1.000  C
  C280     1.0000 0.59890  0.49300  0.56090  Biso   1.000  C
  H192     1.0000 0.73150  0.55430  0.36490  Biso   1.000  H
  H193     1.0000 0.54350  0.42330  0.33130  Biso   1.000  H
  H194     1.0000 0.55320  0.39660  0.24720  Biso   1.000  H
  H195     1.0000 0.70360  0.71150  0.60500  Biso   1.000  H
  H196     1.0000 0.70760  0.73650  0.51980  Biso   1.000  H
  H197     1.0000 0.57710  0.43280  0.48630  Biso   1.000  H
  H198     1.0000 0.56710  0.43330  0.56970  Biso   1.000  H
  H199     1.0000 0.59670  0.45390  0.41600  Biso   1.000  H
  H200     1.0000 0.73910  0.50620  0.28350  Biso   1.000  H
  N40      1.0000 0.62630  0.50690  0.40670  Biso   1.000  N
