data_image0
_cell_length_a       12.1827
_cell_length_b       12.1827
_cell_length_c       7.0923
_cell_angle_alpha    90
_cell_angle_beta     90
_cell_angle_gamma    120

_symmetry_space_group_name_H-M    "P 1"
_symmetry_int_tables_number       1

loop_
  _symmetry_equiv_pos_as_xyz
  'x, y, z'

loop_
  _atom_site_label
  _atom_site_occupancy
  _atom_site_fract_x
  _atom_site_fract_y
  _atom_site_fract_z
  _atom_site_thermal_displace_type
  _atom_site_B_iso_or_equiv
  _atom_site_type_symbol
  Co1      1.0000 0.50000  0.00000  0.00000  Biso   1.000  Co
  Co2      1.0000 0.00000  0.50000  0.00000  Biso   1.000  Co
  Co3      1.0000 0.50000  0.50000  0.00000  Biso   1.000  Co
  O1       1.0000 0.70290  0.12770  0.00000  Biso   1.000  O
  N1       1.0000 0.50460  0.16230  0.00000  Biso   1.000  N
  O2       1.0000 0.87230  0.57520  0.00000  Biso   1.000  O
  N2       1.0000 0.83770  0.34230  0.00000  Biso   1.000  N
  O3       1.0000 0.42480  0.29710  0.00000  Biso   1.000  O
  N3       1.0000 0.65770  0.49540  0.00000  Biso   1.000  N
  O4       1.0000 0.29710  0.87230  0.00000  Biso   1.000  O
  N4       1.0000 0.49540  0.83770  0.00000  Biso   1.000  N
  O5       1.0000 0.12770  0.42480  0.00000  Biso   1.000  O
  N5       1.0000 0.16230  0.65770  0.00000  Biso   1.000  N
  O6       1.0000 0.57520  0.70290  0.00000  Biso   1.000  O
  N6       1.0000 0.34230  0.50460  0.00000  Biso   1.000  N
  O7       1.0000 0.12770  0.70290  0.00000  Biso   1.000  O
  N7       1.0000 0.16230  0.50460  0.00000  Biso   1.000  N
  O8       1.0000 0.57520  0.87230  0.00000  Biso   1.000  O
  N8       1.0000 0.34230  0.83770  0.00000  Biso   1.000  N
  O9       1.0000 0.29710  0.42480  0.00000  Biso   1.000  O
  N9       1.0000 0.49540  0.65770  0.00000  Biso   1.000  N
  O10      1.0000 0.87230  0.29710  0.00000  Biso   1.000  O
  N10      1.0000 0.83770  0.49540  0.00000  Biso   1.000  N
  O11      1.0000 0.42480  0.12770  0.00000  Biso   1.000  O
  N11      1.0000 0.65770  0.16230  0.00000  Biso   1.000  N
  O12      1.0000 0.70290  0.57520  0.00000  Biso   1.000  O
  N12      1.0000 0.50460  0.34230  0.00000  Biso   1.000  N
  C1       1.0000 0.62895  0.25790  0.00000  Biso   1.000  C
  C2       1.0000 0.74210  0.37105  0.00000  Biso   1.000  C
  C3       1.0000 0.62895  0.37105  0.00000  Biso   1.000  C
  C4       1.0000 0.37105  0.74210  0.00000  Biso   1.000  C
  C5       1.0000 0.25790  0.62895  0.00000  Biso   1.000  C
  C6       1.0000 0.37105  0.62895  0.00000  Biso   1.000  C
  C7       1.0000 0.78570  0.21430  0.00000  Biso   1.000  C
  H1       1.0000 0.83120  0.16880  0.00000  Biso   1.000  H
  C8       1.0000 0.75030  0.24970  0.00000  Biso   1.000  C
  C9       1.0000 0.78570  0.57140  0.00000  Biso   1.000  C
  H2       1.0000 0.83120  0.66240  0.00000  Biso   1.000  H
  C10      1.0000 0.75030  0.50060  0.00000  Biso   1.000  C
  C11      1.0000 0.42860  0.21430  0.00000  Biso   1.000  C
  H3       1.0000 0.33760  0.16880  0.00000  Biso   1.000  H
  C12      1.0000 0.49940  0.24970  0.00000  Biso   1.000  C
  C13      1.0000 0.21430  0.78570  0.00000  Biso   1.000  C
  H4       1.0000 0.16880  0.83120  0.00000  Biso   1.000  H
  C14      1.0000 0.24970  0.75030  0.00000  Biso   1.000  C
  C15      1.0000 0.21430  0.42860  0.00000  Biso   1.000  C
  H5       1.0000 0.16880  0.33760  0.00000  Biso   1.000  H
  C16      1.0000 0.24970  0.49940  0.00000  Biso   1.000  C
  C17      1.0000 0.57140  0.78570  0.00000  Biso   1.000  C
  H6       1.0000 0.66240  0.83120  0.00000  Biso   1.000  H
  C18      1.0000 0.50060  0.75030  0.00000  Biso   1.000  C
  N13      1.0000 0.50000  0.00000  0.69500  Biso   1.000  N
  N14      1.0000 0.00000  0.50000  0.69500  Biso   1.000  N
  N15      1.0000 0.50000  0.50000  0.69500  Biso   1.000  N
  N16      1.0000 0.00000  0.50000  0.30500  Biso   1.000  N
  N17      1.0000 0.50000  0.00000  0.30500  Biso   1.000  N
  N18      1.0000 0.50000  0.50000  0.30500  Biso   1.000  N
  C19      1.0000 0.59220  0.00000  0.59870  Biso   1.000  C
  H7       1.0000 0.66020  0.00000  0.66440  Biso   1.000  H
  C20      1.0000 0.00000  0.59220  0.59870  Biso   1.000  C
  H8       1.0000 0.00000  0.66020  0.66440  Biso   1.000  H
  C21      1.0000 0.40780  0.40780  0.59870  Biso   1.000  C
  H9       1.0000 0.33980  0.33980  0.66440  Biso   1.000  H
  C22      1.0000 0.40780  0.00000  0.59870  Biso   1.000  C
  H10      1.0000 0.33980  0.00000  0.66440  Biso   1.000  H
  C23      1.0000 0.00000  0.40780  0.59870  Biso   1.000  C
  H11      1.0000 0.00000  0.33980  0.66440  Biso   1.000  H
  C24      1.0000 0.59220  0.59220  0.59870  Biso   1.000  C
  H12      1.0000 0.66020  0.66020  0.66440  Biso   1.000  H
  C25      1.0000 0.00000  0.59220  0.40130  Biso   1.000  C
  H13      1.0000 0.00000  0.66020  0.33560  Biso   1.000  H
  C26      1.0000 0.59220  0.00000  0.40130  Biso   1.000  C
  H14      1.0000 0.66020  0.00000  0.33560  Biso   1.000  H
  C27      1.0000 0.40780  0.40780  0.40130  Biso   1.000  C
  H15      1.0000 0.33980  0.33980  0.33560  Biso   1.000  H
  C28      1.0000 0.00000  0.40780  0.40130  Biso   1.000  C
  H16      1.0000 0.00000  0.33980  0.33560  Biso   1.000  H
  C29      1.0000 0.40780  0.00000  0.40130  Biso   1.000  C
  H17      1.0000 0.33980  0.00000  0.33560  Biso   1.000  H
  C30      1.0000 0.59220  0.59220  0.40130  Biso   1.000  C
  H18      1.0000 0.66020  0.66020  0.33560  Biso   1.000  H
