data_image0
_cell_length_a       35.748
_cell_length_b       18.52
_cell_length_c       24.411
_cell_angle_alpha    90
_cell_angle_beta     118.62
_cell_angle_gamma    90

_symmetry_space_group_name_H-M    "P 1"
_symmetry_int_tables_number       1

loop_
  _symmetry_equiv_pos_as_xyz
  'x, y, z'

loop_
  _atom_site_label
  _atom_site_occupancy
  _atom_site_fract_x
  _atom_site_fract_y
  _atom_site_fract_z
  _atom_site_thermal_displace_type
  _atom_site_B_iso_or_equiv
  _atom_site_type_symbol
  Cd1      1.0000 0.20979  0.62229  0.81003  Biso   1.000  Cd
  Cd2      1.0000 0.31561  0.64121  0.81947  Biso   1.000  Cd
  Cd3      1.0000 0.32241  0.56859  0.95527  Biso   1.000  Cd
  O1       1.0000 0.87623  0.93110  0.42950  Biso   1.000  O
  O2       1.0000 0.28153  0.60070  0.99654  Biso   1.000  O
  O3       1.0000 0.22772  0.56690  0.90587  Biso   1.000  O
  O4       1.0000 0.21801  0.05073  0.65606  Biso   1.000  O
  O5       1.0000 0.28073  0.00910  0.72442  Biso   1.000  O
  O6       1.0000 0.25802  0.78060  0.12578  Biso   1.000  O
  O7       1.0000 0.19175  0.81880  0.09439  Biso   1.000  O
  O8       1.0000 0.88413  0.83980  0.37760  Biso   1.000  O
  O9       1.0000 0.29499  0.74960  0.77550  Biso   1.000  O
  O10      1.0000 0.23936  0.68070  0.75182  Biso   1.000  O
  O11      1.0000 0.85870  0.60810  0.70090  Biso   1.000  O
  C1       1.0000 0.17763  0.92450  0.66210  Biso   1.000  C
  H1       1.0000 0.16070  0.96420  0.64170  Biso   1.000  H
  C2       1.0000 0.89790  0.88420  0.42380  Biso   1.000  C
  C3       1.0000 0.98781  0.68610  0.86990  Biso   1.000  C
  H2       1.0000 0.00020  0.72170  0.90020  Biso   1.000  H
  C4       1.0000 0.94343  0.68160  0.83600  Biso   1.000  C
  H3       1.0000 0.92720  0.71370  0.84520  Biso   1.000  H
  C5       1.0000 0.99320  0.59160  0.81540  Biso   1.000  C
  H4       1.0000 0.00990  0.56000  0.80670  Biso   1.000  H
  C6       1.0000 0.22215  0.93060  0.69270  Biso   1.000  C
  C7       1.0000 0.24650  0.87060  0.72160  Biso   1.000  C
  H5       1.0000 0.27610  0.87420  0.74190  Biso   1.000  H
  C8       1.0000 0.11249  0.85550  0.62890  Biso   1.000  C
  C9       1.0000 0.07523  0.85890  0.59760  Biso   1.000  C
  C10      1.0000 0.03015  0.86390  0.55550  Biso   1.000  C
  C11      1.0000 0.01020  0.81270  0.51100  Biso   1.000  C
  H6       1.0000 0.02540  0.77340  0.50840  Biso   1.000  H
  C12      1.0000 0.00710  0.91610  0.55770  Biso   1.000  C
  H7       1.0000 0.01990  0.95090  0.58860  Biso   1.000  H
  C13      1.0000 0.21906  0.77710  0.09180  Biso   1.000  C
  C14      1.0000 0.24207  0.00080  0.69170  Biso   1.000  C
  C15      1.0000 0.24234  0.59760  0.95750  Biso   1.000  C
  C16      1.0000 0.21228  0.63530  0.97520  Biso   1.000  C
  C17      1.0000 0.22886  0.68260  0.02570  Biso   1.000  C
  H8       1.0000 0.25820  0.68880  0.04920  Biso   1.000  H
  C18      1.0000 0.20185  0.72070  0.04120  Biso   1.000  C
  C19      1.0000 0.15773  0.71030  0.00620  Biso   1.000  C
  H9       1.0000 0.13940  0.73640  0.01580  Biso   1.000  H
  C20      1.0000 0.16867  0.62450  0.94110  Biso   1.000  C
  H10      1.0000 0.15770  0.59290  0.90740  Biso   1.000  H
  C21      1.0000 0.14131  0.66100  0.95720  Biso   1.000  C
  C22      1.0000 0.09570  0.65170  0.92200  Biso   1.000  C
  C23      1.0000 0.05833  0.64710  0.89460  Biso   1.000  C
  C24      1.0000 0.01235  0.64200  0.86030  Biso   1.000  C
  C25      1.0000 0.94860  0.58590  0.78140  Biso   1.000  C
  H11      1.0000 0.93620  0.54930  0.75200  Biso   1.000  H
  C26      1.0000 0.96330  0.92280  0.51570  Biso   1.000  C
  H12      1.0000 0.94800  0.96070  0.52030  Biso   1.000  H
  C27      1.0000 0.92358  0.63280  0.79100  Biso   1.000  C
  C28      1.0000 0.87605  0.62830  0.75410  Biso   1.000  C
  C29      1.0000 0.94407  0.87690  0.47060  Biso   1.000  C
  C30      1.0000 0.96690  0.81920  0.46930  Biso   1.000  C
  H13      1.0000 0.95330  0.78300  0.43990  Biso   1.000  H
  C31      1.0000 0.25536  0.74030  0.75080  Biso   1.000  C
  C32      1.0000 0.22750  0.80460  0.72080  Biso   1.000  C
  C33      1.0000 0.18354  0.79850  0.69110  Biso   1.000  C
  H14      1.0000 0.17080  0.75450  0.69040  Biso   1.000  H
  C34      1.0000 0.15880  0.85860  0.66230  Biso   1.000  C
  O12      1.0000 0.85390  0.67560  0.75390  Biso   1.000  O
  O13      1.0000 0.86060  0.56950  0.71920  Biso   1.000  O
  O14      1.0000 0.85410  0.65180  0.78240  Biso   1.000  O
  Cd4      1.0000 0.70979  0.12229  0.81003  Biso   1.000  Cd
  Cd5      1.0000 0.81561  0.14121  0.81947  Biso   1.000  Cd
  Cd6      1.0000 0.82241  0.06859  0.95527  Biso   1.000  Cd
  O15      1.0000 0.37623  0.43110  0.42950  Biso   1.000  O
  O16      1.0000 0.78153  0.10070  0.99654  Biso   1.000  O
  O17      1.0000 0.72772  0.06690  0.90587  Biso   1.000  O
  O18      1.0000 0.71801  0.55073  0.65606  Biso   1.000  O
  O19      1.0000 0.78073  0.50910  0.72442  Biso   1.000  O
  O20      1.0000 0.75802  0.28060  0.12578  Biso   1.000  O
  O21      1.0000 0.69175  0.31880  0.09439  Biso   1.000  O
  O22      1.0000 0.38413  0.33980  0.37760  Biso   1.000  O
  O23      1.0000 0.79499  0.24960  0.77550  Biso   1.000  O
  O24      1.0000 0.73936  0.18070  0.75182  Biso   1.000  O
  O25      1.0000 0.35870  0.10810  0.70090  Biso   1.000  O
  C35      1.0000 0.67763  0.42450  0.66210  Biso   1.000  C
  H15      1.0000 0.66070  0.46420  0.64170  Biso   1.000  H
  C36      1.0000 0.39790  0.38420  0.42380  Biso   1.000  C
  C37      1.0000 0.48781  0.18610  0.86990  Biso   1.000  C
  H16      1.0000 0.50020  0.22170  0.90020  Biso   1.000  H
  C38      1.0000 0.44343  0.18160  0.83600  Biso   1.000  C
  H17      1.0000 0.42720  0.21370  0.84520  Biso   1.000  H
  C39      1.0000 0.49320  0.09160  0.81540  Biso   1.000  C
  H18      1.0000 0.50990  0.06000  0.80670  Biso   1.000  H
  C40      1.0000 0.72215  0.43060  0.69270  Biso   1.000  C
  C41      1.0000 0.74650  0.37060  0.72160  Biso   1.000  C
  H19      1.0000 0.77610  0.37420  0.74190  Biso   1.000  H
  C42      1.0000 0.61249  0.35550  0.62890  Biso   1.000  C
  C43      1.0000 0.57523  0.35890  0.59760  Biso   1.000  C
  C44      1.0000 0.53015  0.36390  0.55550  Biso   1.000  C
  C45      1.0000 0.51020  0.31270  0.51100  Biso   1.000  C
  H20      1.0000 0.52540  0.27340  0.50840  Biso   1.000  H
  C46      1.0000 0.50710  0.41610  0.55770  Biso   1.000  C
  H21      1.0000 0.51990  0.45090  0.58860  Biso   1.000  H
  C47      1.0000 0.71906  0.27710  0.09180  Biso   1.000  C
  C48      1.0000 0.74207  0.50080  0.69170  Biso   1.000  C
  C49      1.0000 0.74234  0.09760  0.95750  Biso   1.000  C
  C50      1.0000 0.71228  0.13530  0.97520  Biso   1.000  C
  C51      1.0000 0.72886  0.18260  0.02570  Biso   1.000  C
  H22      1.0000 0.75820  0.18880  0.04920  Biso   1.000  H
  C52      1.0000 0.70185  0.22070  0.04120  Biso   1.000  C
  C53      1.0000 0.65773  0.21030  0.00620  Biso   1.000  C
  H23      1.0000 0.63940  0.23640  0.01580  Biso   1.000  H
  C54      1.0000 0.66867  0.12450  0.94110  Biso   1.000  C
  H24      1.0000 0.65770  0.09290  0.90740  Biso   1.000  H
  C55      1.0000 0.64131  0.16100  0.95720  Biso   1.000  C
  C56      1.0000 0.59570  0.15170  0.92200  Biso   1.000  C
  C57      1.0000 0.55833  0.14710  0.89460  Biso   1.000  C
  C58      1.0000 0.51235  0.14200  0.86030  Biso   1.000  C
  C59      1.0000 0.44860  0.08590  0.78140  Biso   1.000  C
  H25      1.0000 0.43620  0.04930  0.75200  Biso   1.000  H
  C60      1.0000 0.46330  0.42280  0.51570  Biso   1.000  C
  H26      1.0000 0.44800  0.46070  0.52030  Biso   1.000  H
  C61      1.0000 0.42358  0.13280  0.79100  Biso   1.000  C
  C62      1.0000 0.37605  0.12830  0.75410  Biso   1.000  C
  C63      1.0000 0.44407  0.37690  0.47060  Biso   1.000  C
  C64      1.0000 0.46690  0.31920  0.46930  Biso   1.000  C
  H27      1.0000 0.45330  0.28300  0.43990  Biso   1.000  H
  C65      1.0000 0.75536  0.24030  0.75080  Biso   1.000  C
  C66      1.0000 0.72750  0.30460  0.72080  Biso   1.000  C
  C67      1.0000 0.68354  0.29850  0.69110  Biso   1.000  C
  H28      1.0000 0.67080  0.25450  0.69040  Biso   1.000  H
  C68      1.0000 0.65880  0.35860  0.66230  Biso   1.000  C
  O26      1.0000 0.35390  0.17560  0.75390  Biso   1.000  O
  O27      1.0000 0.36060  0.06950  0.71920  Biso   1.000  O
  O28      1.0000 0.35410  0.15180  0.78240  Biso   1.000  O
  Cd7      1.0000 0.79021  0.62229  0.68997  Biso   1.000  Cd
  Cd8      1.0000 0.68439  0.64121  0.68053  Biso   1.000  Cd
  Cd9      1.0000 0.67759  0.56859  0.54473  Biso   1.000  Cd
  O29      1.0000 0.12377  0.93110  0.07050  Biso   1.000  O
  O30      1.0000 0.71847  0.60070  0.50346  Biso   1.000  O
  O31      1.0000 0.77228  0.56690  0.59413  Biso   1.000  O
  O32      1.0000 0.78199  0.05073  0.84394  Biso   1.000  O
  O33      1.0000 0.71927  0.00910  0.77558  Biso   1.000  O
  O34      1.0000 0.74198  0.78060  0.37422  Biso   1.000  O
  O35      1.0000 0.80825  0.81880  0.40561  Biso   1.000  O
  O36      1.0000 0.11587  0.83980  0.12240  Biso   1.000  O
  O37      1.0000 0.70501  0.74960  0.72450  Biso   1.000  O
  O38      1.0000 0.76064  0.68070  0.74818  Biso   1.000  O
  O39      1.0000 0.14130  0.60810  0.79910  Biso   1.000  O
  C69      1.0000 0.82237  0.92450  0.83790  Biso   1.000  C
  H29      1.0000 0.83930  0.96420  0.85830  Biso   1.000  H
  C70      1.0000 0.10210  0.88420  0.07620  Biso   1.000  C
  C71      1.0000 0.01219  0.68610  0.63010  Biso   1.000  C
  H30      1.0000 0.99980  0.72170  0.59980  Biso   1.000  H
  C72      1.0000 0.05657  0.68160  0.66400  Biso   1.000  C
  H31      1.0000 0.07280  0.71370  0.65480  Biso   1.000  H
  C73      1.0000 0.00680  0.59160  0.68460  Biso   1.000  C
  H32      1.0000 0.99010  0.56000  0.69330  Biso   1.000  H
  C74      1.0000 0.77785  0.93060  0.80730  Biso   1.000  C
  C75      1.0000 0.75350  0.87060  0.77840  Biso   1.000  C
  H33      1.0000 0.72390  0.87420  0.75810  Biso   1.000  H
  C76      1.0000 0.88751  0.85550  0.87110  Biso   1.000  C
  C77      1.0000 0.92477  0.85890  0.90240  Biso   1.000  C
  C78      1.0000 0.96985  0.86390  0.94450  Biso   1.000  C
  C79      1.0000 0.98980  0.81270  0.98900  Biso   1.000  C
  H34      1.0000 0.97460  0.77340  0.99160  Biso   1.000  H
  C80      1.0000 0.99290  0.91610  0.94230  Biso   1.000  C
  H35      1.0000 0.98010  0.95090  0.91140  Biso   1.000  H
  C81      1.0000 0.78094  0.77710  0.40820  Biso   1.000  C
  C82      1.0000 0.75793  0.00080  0.80830  Biso   1.000  C
  C83      1.0000 0.75766  0.59760  0.54250  Biso   1.000  C
  C84      1.0000 0.78772  0.63530  0.52480  Biso   1.000  C
  C85      1.0000 0.77114  0.68260  0.47430  Biso   1.000  C
  H36      1.0000 0.74180  0.68880  0.45080  Biso   1.000  H
  C86      1.0000 0.79815  0.72070  0.45880  Biso   1.000  C
  C87      1.0000 0.84227  0.71030  0.49380  Biso   1.000  C
  H37      1.0000 0.86060  0.73640  0.48420  Biso   1.000  H
  C88      1.0000 0.83133  0.62450  0.55890  Biso   1.000  C
  H38      1.0000 0.84230  0.59290  0.59260  Biso   1.000  H
  C89      1.0000 0.85869  0.66100  0.54280  Biso   1.000  C
  C90      1.0000 0.90430  0.65170  0.57800  Biso   1.000  C
  C91      1.0000 0.94167  0.64710  0.60540  Biso   1.000  C
  C92      1.0000 0.98765  0.64200  0.63970  Biso   1.000  C
  C93      1.0000 0.05140  0.58590  0.71860  Biso   1.000  C
  H39      1.0000 0.06380  0.54930  0.74800  Biso   1.000  H
  C94      1.0000 0.03670  0.92280  0.98430  Biso   1.000  C
  H40      1.0000 0.05200  0.96070  0.97970  Biso   1.000  H
  C95      1.0000 0.07642  0.63280  0.70900  Biso   1.000  C
  C96      1.0000 0.12395  0.62830  0.74590  Biso   1.000  C
  C97      1.0000 0.05593  0.87690  0.02940  Biso   1.000  C
  C98      1.0000 0.03310  0.81920  0.03070  Biso   1.000  C
  H41      1.0000 0.04670  0.78300  0.06010  Biso   1.000  H
  C99      1.0000 0.74464  0.74030  0.74920  Biso   1.000  C
  C100     1.0000 0.77250  0.80460  0.77920  Biso   1.000  C
  C101     1.0000 0.81646  0.79850  0.80890  Biso   1.000  C
  H42      1.0000 0.82920  0.75450  0.80960  Biso   1.000  H
  C102     1.0000 0.84120  0.85860  0.83770  Biso   1.000  C
  O40      1.0000 0.14610  0.67560  0.74610  Biso   1.000  O
  O41      1.0000 0.13940  0.56950  0.78080  Biso   1.000  O
  O42      1.0000 0.14590  0.65180  0.71760  Biso   1.000  O
  Cd10     1.0000 0.29021  0.12229  0.68997  Biso   1.000  Cd
  Cd11     1.0000 0.18439  0.14121  0.68053  Biso   1.000  Cd
  Cd12     1.0000 0.17759  0.06859  0.54473  Biso   1.000  Cd
  O43      1.0000 0.62377  0.43110  0.07050  Biso   1.000  O
  O44      1.0000 0.21847  0.10070  0.50346  Biso   1.000  O
  O45      1.0000 0.27228  0.06690  0.59413  Biso   1.000  O
  O46      1.0000 0.28199  0.55073  0.84394  Biso   1.000  O
  O47      1.0000 0.21927  0.50910  0.77558  Biso   1.000  O
  O48      1.0000 0.24198  0.28060  0.37422  Biso   1.000  O
  O49      1.0000 0.30825  0.31880  0.40561  Biso   1.000  O
  O50      1.0000 0.61587  0.33980  0.12240  Biso   1.000  O
  O51      1.0000 0.20501  0.24960  0.72450  Biso   1.000  O
  O52      1.0000 0.26064  0.18070  0.74818  Biso   1.000  O
  O53      1.0000 0.64130  0.10810  0.79910  Biso   1.000  O
  C103     1.0000 0.32237  0.42450  0.83790  Biso   1.000  C
  H43      1.0000 0.33930  0.46420  0.85830  Biso   1.000  H
  C104     1.0000 0.60210  0.38420  0.07620  Biso   1.000  C
  C105     1.0000 0.51219  0.18610  0.63010  Biso   1.000  C
  H44      1.0000 0.49980  0.22170  0.59980  Biso   1.000  H
  C106     1.0000 0.55657  0.18160  0.66400  Biso   1.000  C
  H45      1.0000 0.57280  0.21370  0.65480  Biso   1.000  H
  C107     1.0000 0.50680  0.09160  0.68460  Biso   1.000  C
  H46      1.0000 0.49010  0.06000  0.69330  Biso   1.000  H
  C108     1.0000 0.27785  0.43060  0.80730  Biso   1.000  C
  C109     1.0000 0.25350  0.37060  0.77840  Biso   1.000  C
  H47      1.0000 0.22390  0.37420  0.75810  Biso   1.000  H
  C110     1.0000 0.38751  0.35550  0.87110  Biso   1.000  C
  C111     1.0000 0.42477  0.35890  0.90240  Biso   1.000  C
  C112     1.0000 0.46985  0.36390  0.94450  Biso   1.000  C
  C113     1.0000 0.48980  0.31270  0.98900  Biso   1.000  C
  H48      1.0000 0.47460  0.27340  0.99160  Biso   1.000  H
  C114     1.0000 0.49290  0.41610  0.94230  Biso   1.000  C
  H49      1.0000 0.48010  0.45090  0.91140  Biso   1.000  H
  C115     1.0000 0.28094  0.27710  0.40820  Biso   1.000  C
  C116     1.0000 0.25793  0.50080  0.80830  Biso   1.000  C
  C117     1.0000 0.25766  0.09760  0.54250  Biso   1.000  C
  C118     1.0000 0.28772  0.13530  0.52480  Biso   1.000  C
  C119     1.0000 0.27114  0.18260  0.47430  Biso   1.000  C
  H50      1.0000 0.24180  0.18880  0.45080  Biso   1.000  H
  C120     1.0000 0.29815  0.22070  0.45880  Biso   1.000  C
  C121     1.0000 0.34227  0.21030  0.49380  Biso   1.000  C
  H51      1.0000 0.36060  0.23640  0.48420  Biso   1.000  H
  C122     1.0000 0.33133  0.12450  0.55890  Biso   1.000  C
  H52      1.0000 0.34230  0.09290  0.59260  Biso   1.000  H
  C123     1.0000 0.35869  0.16100  0.54280  Biso   1.000  C
  C124     1.0000 0.40430  0.15170  0.57800  Biso   1.000  C
  C125     1.0000 0.44167  0.14710  0.60540  Biso   1.000  C
  C126     1.0000 0.48765  0.14200  0.63970  Biso   1.000  C
  C127     1.0000 0.55140  0.08590  0.71860  Biso   1.000  C
  H53      1.0000 0.56380  0.04930  0.74800  Biso   1.000  H
  C128     1.0000 0.53670  0.42280  0.98430  Biso   1.000  C
  H54      1.0000 0.55200  0.46070  0.97970  Biso   1.000  H
  C129     1.0000 0.57642  0.13280  0.70900  Biso   1.000  C
  C130     1.0000 0.62395  0.12830  0.74590  Biso   1.000  C
  C131     1.0000 0.55593  0.37690  0.02940  Biso   1.000  C
  C132     1.0000 0.53310  0.31920  0.03070  Biso   1.000  C
  H55      1.0000 0.54670  0.28300  0.06010  Biso   1.000  H
  C133     1.0000 0.24464  0.24030  0.74920  Biso   1.000  C
  C134     1.0000 0.27250  0.30460  0.77920  Biso   1.000  C
  C135     1.0000 0.31646  0.29850  0.80890  Biso   1.000  C
  H56      1.0000 0.32920  0.25450  0.80960  Biso   1.000  H
  C136     1.0000 0.34120  0.35860  0.83770  Biso   1.000  C
  O54      1.0000 0.64610  0.17560  0.74610  Biso   1.000  O
  O55      1.0000 0.63940  0.06950  0.78080  Biso   1.000  O
  O56      1.0000 0.64590  0.15180  0.71760  Biso   1.000  O
  Cd13     1.0000 0.79021  0.37771  0.18997  Biso   1.000  Cd
  Cd14     1.0000 0.68439  0.35879  0.18053  Biso   1.000  Cd
  Cd15     1.0000 0.67759  0.43141  0.04473  Biso   1.000  Cd
  O57      1.0000 0.12377  0.06890  0.57050  Biso   1.000  O
  O58      1.0000 0.71847  0.39930  0.00346  Biso   1.000  O
  O59      1.0000 0.77228  0.43310  0.09413  Biso   1.000  O
  O60      1.0000 0.78199  0.94927  0.34394  Biso   1.000  O
  O61      1.0000 0.71927  0.99090  0.27558  Biso   1.000  O
  O62      1.0000 0.74198  0.21940  0.87422  Biso   1.000  O
  O63      1.0000 0.80825  0.18120  0.90561  Biso   1.000  O
  O64      1.0000 0.11587  0.16020  0.62240  Biso   1.000  O
  O65      1.0000 0.70501  0.25040  0.22450  Biso   1.000  O
  O66      1.0000 0.76064  0.31930  0.24818  Biso   1.000  O
  O67      1.0000 0.14130  0.39190  0.29910  Biso   1.000  O
  C137     1.0000 0.82237  0.07550  0.33790  Biso   1.000  C
  H57      1.0000 0.83930  0.03580  0.35830  Biso   1.000  H
  C138     1.0000 0.10210  0.11580  0.57620  Biso   1.000  C
  C139     1.0000 0.01219  0.31390  0.13010  Biso   1.000  C
  H58      1.0000 0.99980  0.27830  0.09980  Biso   1.000  H
  C140     1.0000 0.05657  0.31840  0.16400  Biso   1.000  C
  H59      1.0000 0.07280  0.28630  0.15480  Biso   1.000  H
  C141     1.0000 0.00680  0.40840  0.18460  Biso   1.000  C
  H60      1.0000 0.99010  0.44000  0.19330  Biso   1.000  H
  C142     1.0000 0.77785  0.06940  0.30730  Biso   1.000  C
  C143     1.0000 0.75350  0.12940  0.27840  Biso   1.000  C
  H61      1.0000 0.72390  0.12580  0.25810  Biso   1.000  H
  C144     1.0000 0.88751  0.14450  0.37110  Biso   1.000  C
  C145     1.0000 0.92477  0.14110  0.40240  Biso   1.000  C
  C146     1.0000 0.96985  0.13610  0.44450  Biso   1.000  C
  C147     1.0000 0.98980  0.18730  0.48900  Biso   1.000  C
  H62      1.0000 0.97460  0.22660  0.49160  Biso   1.000  H
  C148     1.0000 0.99290  0.08390  0.44230  Biso   1.000  C
  H63      1.0000 0.98010  0.04910  0.41140  Biso   1.000  H
  C149     1.0000 0.78094  0.22290  0.90820  Biso   1.000  C
  C150     1.0000 0.75793  0.99920  0.30830  Biso   1.000  C
  C151     1.0000 0.75766  0.40240  0.04250  Biso   1.000  C
  C152     1.0000 0.78772  0.36470  0.02480  Biso   1.000  C
  C153     1.0000 0.77114  0.31740  0.97430  Biso   1.000  C
  H64      1.0000 0.74180  0.31120  0.95080  Biso   1.000  H
  C154     1.0000 0.79815  0.27930  0.95880  Biso   1.000  C
  C155     1.0000 0.84227  0.28970  0.99380  Biso   1.000  C
  H65      1.0000 0.86060  0.26360  0.98420  Biso   1.000  H
  C156     1.0000 0.83133  0.37550  0.05890  Biso   1.000  C
  H66      1.0000 0.84230  0.40710  0.09260  Biso   1.000  H
  C157     1.0000 0.85869  0.33900  0.04280  Biso   1.000  C
  C158     1.0000 0.90430  0.34830  0.07800  Biso   1.000  C
  C159     1.0000 0.94167  0.35290  0.10540  Biso   1.000  C
  C160     1.0000 0.98765  0.35800  0.13970  Biso   1.000  C
  C161     1.0000 0.05140  0.41410  0.21860  Biso   1.000  C
  H67      1.0000 0.06380  0.45070  0.24800  Biso   1.000  H
  C162     1.0000 0.03670  0.07720  0.48430  Biso   1.000  C
  H68      1.0000 0.05200  0.03930  0.47970  Biso   1.000  H
  C163     1.0000 0.07642  0.36720  0.20900  Biso   1.000  C
  C164     1.0000 0.12395  0.37170  0.24590  Biso   1.000  C
  C165     1.0000 0.05593  0.12310  0.52940  Biso   1.000  C
  C166     1.0000 0.03310  0.18080  0.53070  Biso   1.000  C
  H69      1.0000 0.04670  0.21700  0.56010  Biso   1.000  H
  C167     1.0000 0.74464  0.25970  0.24920  Biso   1.000  C
  C168     1.0000 0.77250  0.19540  0.27920  Biso   1.000  C
  C169     1.0000 0.81646  0.20150  0.30890  Biso   1.000  C
  H70      1.0000 0.82920  0.24550  0.30960  Biso   1.000  H
  C170     1.0000 0.84120  0.14140  0.33770  Biso   1.000  C
  O68      1.0000 0.14610  0.32440  0.24610  Biso   1.000  O
  O69      1.0000 0.13940  0.43050  0.28080  Biso   1.000  O
  O70      1.0000 0.14590  0.34820  0.21760  Biso   1.000  O
  Cd16     1.0000 0.29021  0.87771  0.18997  Biso   1.000  Cd
  Cd17     1.0000 0.18439  0.85879  0.18053  Biso   1.000  Cd
  Cd18     1.0000 0.17759  0.93141  0.04473  Biso   1.000  Cd
  O71      1.0000 0.62377  0.56890  0.57050  Biso   1.000  O
  O72      1.0000 0.21847  0.89930  0.00346  Biso   1.000  O
  O73      1.0000 0.27228  0.93310  0.09413  Biso   1.000  O
  O74      1.0000 0.28199  0.44927  0.34394  Biso   1.000  O
  O75      1.0000 0.21927  0.49090  0.27558  Biso   1.000  O
  O76      1.0000 0.24198  0.71940  0.87422  Biso   1.000  O
  O77      1.0000 0.30825  0.68120  0.90561  Biso   1.000  O
  O78      1.0000 0.61587  0.66020  0.62240  Biso   1.000  O
  O79      1.0000 0.20501  0.75040  0.22450  Biso   1.000  O
  O80      1.0000 0.26064  0.81930  0.24818  Biso   1.000  O
  O81      1.0000 0.64130  0.89190  0.29910  Biso   1.000  O
  C171     1.0000 0.32237  0.57550  0.33790  Biso   1.000  C
  H71      1.0000 0.33930  0.53580  0.35830  Biso   1.000  H
  C172     1.0000 0.60210  0.61580  0.57620  Biso   1.000  C
  C173     1.0000 0.51219  0.81390  0.13010  Biso   1.000  C
  H72      1.0000 0.49980  0.77830  0.09980  Biso   1.000  H
  C174     1.0000 0.55657  0.81840  0.16400  Biso   1.000  C
  H73      1.0000 0.57280  0.78630  0.15480  Biso   1.000  H
  C175     1.0000 0.50680  0.90840  0.18460  Biso   1.000  C
  H74      1.0000 0.49010  0.94000  0.19330  Biso   1.000  H
  C176     1.0000 0.27785  0.56940  0.30730  Biso   1.000  C
  C177     1.0000 0.25350  0.62940  0.27840  Biso   1.000  C
  H75      1.0000 0.22390  0.62580  0.25810  Biso   1.000  H
  C178     1.0000 0.38751  0.64450  0.37110  Biso   1.000  C
  C179     1.0000 0.42477  0.64110  0.40240  Biso   1.000  C
  C180     1.0000 0.46985  0.63610  0.44450  Biso   1.000  C
  C181     1.0000 0.48980  0.68730  0.48900  Biso   1.000  C
  H76      1.0000 0.47460  0.72660  0.49160  Biso   1.000  H
  C182     1.0000 0.49290  0.58390  0.44230  Biso   1.000  C
  H77      1.0000 0.48010  0.54910  0.41140  Biso   1.000  H
  C183     1.0000 0.28094  0.72290  0.90820  Biso   1.000  C
  C184     1.0000 0.25793  0.49920  0.30830  Biso   1.000  C
  C185     1.0000 0.25766  0.90240  0.04250  Biso   1.000  C
  C186     1.0000 0.28772  0.86470  0.02480  Biso   1.000  C
  C187     1.0000 0.27114  0.81740  0.97430  Biso   1.000  C
  H78      1.0000 0.24180  0.81120  0.95080  Biso   1.000  H
  C188     1.0000 0.29815  0.77930  0.95880  Biso   1.000  C
  C189     1.0000 0.34227  0.78970  0.99380  Biso   1.000  C
  H79      1.0000 0.36060  0.76360  0.98420  Biso   1.000  H
  C190     1.0000 0.33133  0.87550  0.05890  Biso   1.000  C
  H80      1.0000 0.34230  0.90710  0.09260  Biso   1.000  H
  C191     1.0000 0.35869  0.83900  0.04280  Biso   1.000  C
  C192     1.0000 0.40430  0.84830  0.07800  Biso   1.000  C
  C193     1.0000 0.44167  0.85290  0.10540  Biso   1.000  C
  C194     1.0000 0.48765  0.85800  0.13970  Biso   1.000  C
  C195     1.0000 0.55140  0.91410  0.21860  Biso   1.000  C
  H81      1.0000 0.56380  0.95070  0.24800  Biso   1.000  H
  C196     1.0000 0.53670  0.57720  0.48430  Biso   1.000  C
  H82      1.0000 0.55200  0.53930  0.47970  Biso   1.000  H
  C197     1.0000 0.57642  0.86720  0.20900  Biso   1.000  C
  C198     1.0000 0.62395  0.87170  0.24590  Biso   1.000  C
  C199     1.0000 0.55593  0.62310  0.52940  Biso   1.000  C
  C200     1.0000 0.53310  0.68080  0.53070  Biso   1.000  C
  H83      1.0000 0.54670  0.71700  0.56010  Biso   1.000  H
  C201     1.0000 0.24464  0.75970  0.24920  Biso   1.000  C
  C202     1.0000 0.27250  0.69540  0.27920  Biso   1.000  C
  C203     1.0000 0.31646  0.70150  0.30890  Biso   1.000  C
  H84      1.0000 0.32920  0.74550  0.30960  Biso   1.000  H
  C204     1.0000 0.34120  0.64140  0.33770  Biso   1.000  C
  O82      1.0000 0.64610  0.82440  0.24610  Biso   1.000  O
  O83      1.0000 0.63940  0.93050  0.28080  Biso   1.000  O
  O84      1.0000 0.64590  0.84820  0.21760  Biso   1.000  O
  Cd19     1.0000 0.20979  0.37771  0.31003  Biso   1.000  Cd
  Cd20     1.0000 0.31561  0.35879  0.31947  Biso   1.000  Cd
  Cd21     1.0000 0.32241  0.43141  0.45527  Biso   1.000  Cd
  O85      1.0000 0.87623  0.06890  0.92950  Biso   1.000  O
  O86      1.0000 0.28153  0.39930  0.49654  Biso   1.000  O
  O87      1.0000 0.22772  0.43310  0.40587  Biso   1.000  O
  O88      1.0000 0.21801  0.94927  0.15606  Biso   1.000  O
  O89      1.0000 0.28073  0.99090  0.22442  Biso   1.000  O
  O90      1.0000 0.25802  0.21940  0.62578  Biso   1.000  O
  O91      1.0000 0.19175  0.18120  0.59439  Biso   1.000  O
  O92      1.0000 0.88413  0.16020  0.87760  Biso   1.000  O
  O93      1.0000 0.29499  0.25040  0.27550  Biso   1.000  O
  O94      1.0000 0.23936  0.31930  0.25182  Biso   1.000  O
  O95      1.0000 0.85870  0.39190  0.20090  Biso   1.000  O
  C205     1.0000 0.17763  0.07550  0.16210  Biso   1.000  C
  H85      1.0000 0.16070  0.03580  0.14170  Biso   1.000  H
  C206     1.0000 0.89790  0.11580  0.92380  Biso   1.000  C
  C207     1.0000 0.98781  0.31390  0.36990  Biso   1.000  C
  H86      1.0000 0.00020  0.27830  0.40020  Biso   1.000  H
  C208     1.0000 0.94343  0.31840  0.33600  Biso   1.000  C
  H87      1.0000 0.92720  0.28630  0.34520  Biso   1.000  H
  C209     1.0000 0.99320  0.40840  0.31540  Biso   1.000  C
  H88      1.0000 0.00990  0.44000  0.30670  Biso   1.000  H
  C210     1.0000 0.22215  0.06940  0.19270  Biso   1.000  C
  C211     1.0000 0.24650  0.12940  0.22160  Biso   1.000  C
  H89      1.0000 0.27610  0.12580  0.24190  Biso   1.000  H
  C212     1.0000 0.11249  0.14450  0.12890  Biso   1.000  C
  C213     1.0000 0.07523  0.14110  0.09760  Biso   1.000  C
  C214     1.0000 0.03015  0.13610  0.05550  Biso   1.000  C
  C215     1.0000 0.01020  0.18730  0.01100  Biso   1.000  C
  H90      1.0000 0.02540  0.22660  0.00840  Biso   1.000  H
  C216     1.0000 0.00710  0.08390  0.05770  Biso   1.000  C
  H91      1.0000 0.01990  0.04910  0.08860  Biso   1.000  H
  C217     1.0000 0.21906  0.22290  0.59180  Biso   1.000  C
  C218     1.0000 0.24207  0.99920  0.19170  Biso   1.000  C
  C219     1.0000 0.24234  0.40240  0.45750  Biso   1.000  C
  C220     1.0000 0.21228  0.36470  0.47520  Biso   1.000  C
  C221     1.0000 0.22886  0.31740  0.52570  Biso   1.000  C
  H92      1.0000 0.25820  0.31120  0.54920  Biso   1.000  H
  C222     1.0000 0.20185  0.27930  0.54120  Biso   1.000  C
  C223     1.0000 0.15773  0.28970  0.50620  Biso   1.000  C
  H93      1.0000 0.13940  0.26360  0.51580  Biso   1.000  H
  C224     1.0000 0.16867  0.37550  0.44110  Biso   1.000  C
  H94      1.0000 0.15770  0.40710  0.40740  Biso   1.000  H
  C225     1.0000 0.14131  0.33900  0.45720  Biso   1.000  C
  C226     1.0000 0.09570  0.34830  0.42200  Biso   1.000  C
  C227     1.0000 0.05833  0.35290  0.39460  Biso   1.000  C
  C228     1.0000 0.01235  0.35800  0.36030  Biso   1.000  C
  C229     1.0000 0.94860  0.41410  0.28140  Biso   1.000  C
  H95      1.0000 0.93620  0.45070  0.25200  Biso   1.000  H
  C230     1.0000 0.96330  0.07720  0.01570  Biso   1.000  C
  H96      1.0000 0.94800  0.03930  0.02030  Biso   1.000  H
  C231     1.0000 0.92358  0.36720  0.29100  Biso   1.000  C
  C232     1.0000 0.87605  0.37170  0.25410  Biso   1.000  C
  C233     1.0000 0.94407  0.12310  0.97060  Biso   1.000  C
  C234     1.0000 0.96690  0.18080  0.96930  Biso   1.000  C
  H97      1.0000 0.95330  0.21700  0.93990  Biso   1.000  H
  C235     1.0000 0.25536  0.25970  0.25080  Biso   1.000  C
  C236     1.0000 0.22750  0.19540  0.22080  Biso   1.000  C
  C237     1.0000 0.18354  0.20150  0.19110  Biso   1.000  C
  H98      1.0000 0.17080  0.24550  0.19040  Biso   1.000  H
  C238     1.0000 0.15880  0.14140  0.16230  Biso   1.000  C
  O96      1.0000 0.85390  0.32440  0.25390  Biso   1.000  O
  O97      1.0000 0.86060  0.43050  0.21920  Biso   1.000  O
  O98      1.0000 0.85410  0.34820  0.28240  Biso   1.000  O
  Cd22     1.0000 0.70979  0.87771  0.31003  Biso   1.000  Cd
  Cd23     1.0000 0.81561  0.85879  0.31947  Biso   1.000  Cd
  Cd24     1.0000 0.82241  0.93141  0.45527  Biso   1.000  Cd
  O99      1.0000 0.37623  0.56890  0.92950  Biso   1.000  O
  O100     1.0000 0.78153  0.89930  0.49654  Biso   1.000  O
  O101     1.0000 0.72772  0.93310  0.40587  Biso   1.000  O
  O102     1.0000 0.71801  0.44927  0.15606  Biso   1.000  O
  O103     1.0000 0.78073  0.49090  0.22442  Biso   1.000  O
  O104     1.0000 0.75802  0.71940  0.62578  Biso   1.000  O
  O105     1.0000 0.69175  0.68120  0.59439  Biso   1.000  O
  O106     1.0000 0.38413  0.66020  0.87760  Biso   1.000  O
  O107     1.0000 0.79499  0.75040  0.27550  Biso   1.000  O
  O108     1.0000 0.73936  0.81930  0.25182  Biso   1.000  O
  O109     1.0000 0.35870  0.89190  0.20090  Biso   1.000  O
  C239     1.0000 0.67763  0.57550  0.16210  Biso   1.000  C
  H99      1.0000 0.66070  0.53580  0.14170  Biso   1.000  H
  C240     1.0000 0.39790  0.61580  0.92380  Biso   1.000  C
  C241     1.0000 0.48781  0.81390  0.36990  Biso   1.000  C
  H100     1.0000 0.50020  0.77830  0.40020  Biso   1.000  H
  C242     1.0000 0.44343  0.81840  0.33600  Biso   1.000  C
  H101     1.0000 0.42720  0.78630  0.34520  Biso   1.000  H
  C243     1.0000 0.49320  0.90840  0.31540  Biso   1.000  C
  H102     1.0000 0.50990  0.94000  0.30670  Biso   1.000  H
  C244     1.0000 0.72215  0.56940  0.19270  Biso   1.000  C
  C245     1.0000 0.74650  0.62940  0.22160  Biso   1.000  C
  H103     1.0000 0.77610  0.62580  0.24190  Biso   1.000  H
  C246     1.0000 0.61249  0.64450  0.12890  Biso   1.000  C
  C247     1.0000 0.57523  0.64110  0.09760  Biso   1.000  C
  C248     1.0000 0.53015  0.63610  0.05550  Biso   1.000  C
  C249     1.0000 0.51020  0.68730  0.01100  Biso   1.000  C
  H104     1.0000 0.52540  0.72660  0.00840  Biso   1.000  H
  C250     1.0000 0.50710  0.58390  0.05770  Biso   1.000  C
  H105     1.0000 0.51990  0.54910  0.08860  Biso   1.000  H
  C251     1.0000 0.71906  0.72290  0.59180  Biso   1.000  C
  C252     1.0000 0.74207  0.49920  0.19170  Biso   1.000  C
  C253     1.0000 0.74234  0.90240  0.45750  Biso   1.000  C
  C254     1.0000 0.71228  0.86470  0.47520  Biso   1.000  C
  C255     1.0000 0.72886  0.81740  0.52570  Biso   1.000  C
  H106     1.0000 0.75820  0.81120  0.54920  Biso   1.000  H
  C256     1.0000 0.70185  0.77930  0.54120  Biso   1.000  C
  C257     1.0000 0.65773  0.78970  0.50620  Biso   1.000  C
  H107     1.0000 0.63940  0.76360  0.51580  Biso   1.000  H
  C258     1.0000 0.66867  0.87550  0.44110  Biso   1.000  C
  H108     1.0000 0.65770  0.90710  0.40740  Biso   1.000  H
  C259     1.0000 0.64131  0.83900  0.45720  Biso   1.000  C
  C260     1.0000 0.59570  0.84830  0.42200  Biso   1.000  C
  C261     1.0000 0.55833  0.85290  0.39460  Biso   1.000  C
  C262     1.0000 0.51235  0.85800  0.36030  Biso   1.000  C
  C263     1.0000 0.44860  0.91410  0.28140  Biso   1.000  C
  H109     1.0000 0.43620  0.95070  0.25200  Biso   1.000  H
  C264     1.0000 0.46330  0.57720  0.01570  Biso   1.000  C
  H110     1.0000 0.44800  0.53930  0.02030  Biso   1.000  H
  C265     1.0000 0.42358  0.86720  0.29100  Biso   1.000  C
  C266     1.0000 0.37605  0.87170  0.25410  Biso   1.000  C
  C267     1.0000 0.44407  0.62310  0.97060  Biso   1.000  C
  C268     1.0000 0.46690  0.68080  0.96930  Biso   1.000  C
  H111     1.0000 0.45330  0.71700  0.93990  Biso   1.000  H
  C269     1.0000 0.75536  0.75970  0.25080  Biso   1.000  C
  C270     1.0000 0.72750  0.69540  0.22080  Biso   1.000  C
  C271     1.0000 0.68354  0.70150  0.19110  Biso   1.000  C
  H112     1.0000 0.67080  0.74550  0.19040  Biso   1.000  H
  C272     1.0000 0.65880  0.64140  0.16230  Biso   1.000  C
  O110     1.0000 0.35390  0.82440  0.25390  Biso   1.000  O
  O111     1.0000 0.36060  0.93050  0.21920  Biso   1.000  O
  O112     1.0000 0.35410  0.84820  0.28240  Biso   1.000  O
