data_image0
_cell_length_a       10.393
_cell_length_b       23.046
_cell_length_c       28.526
_cell_angle_alpha    90
_cell_angle_beta     95.381
_cell_angle_gamma    90

_symmetry_space_group_name_H-M    "P 1"
_symmetry_int_tables_number       1

loop_
  _symmetry_equiv_pos_as_xyz
  'x, y, z'

loop_
  _atom_site_label
  _atom_site_occupancy
  _atom_site_fract_x
  _atom_site_fract_y
  _atom_site_fract_z
  _atom_site_thermal_displace_type
  _atom_site_B_iso_or_equiv
  _atom_site_type_symbol
  Cd1      1.0000 0.52161  0.20250  0.02223  Biso   1.000  Cd
  C1       1.0000 0.70860  0.21620  0.09380  Biso   1.000  C
  C2       1.0000 0.81740  0.23050  0.13110  Biso   1.000  C
  C3       1.0000 0.80460  0.22010  0.17740  Biso   1.000  C
  H1       1.0000 0.73580  0.19750  0.18530  Biso   1.000  H
  C4       1.0000 0.93020  0.25530  0.11990  Biso   1.000  C
  C5       1.0000 0.95620  0.27200  0.06860  Biso   1.000  C
  C6       1.0000 0.44670  0.06790  0.04800  Biso   1.000  C
  C7       1.0000 0.54860  0.05610  0.08390  Biso   1.000  C
  H2       1.0000 0.60680  0.08520  0.09380  Biso   1.000  H
  C8       1.0000 0.56020  0.00540  0.10280  Biso   1.000  C
  H3       1.0000 0.62370  0.99930  0.12750  Biso   1.000  H
  C9       1.0000 0.48010  0.95920  0.08720  Biso   1.000  C
  H4       1.0000 0.49270  0.92260  0.10040  Biso   1.000  H
  C10      1.0000 0.37560  0.96920  0.04970  Biso   1.000  C
  H5       1.0000 0.31930  0.93990  0.03850  Biso   1.000  H
  C11      1.0000 0.36690  0.02480  0.03220  Biso   1.000  C
  C12      1.0000 0.30860  0.10100  0.99260  Biso   1.000  C
  C13      1.0000 0.23750  0.14320  0.95960  Biso   1.000  C
  C14      1.0000 0.23040  0.13240  0.91160  Biso   1.000  C
  H6       1.0000 0.26570  0.09900  0.89980  Biso   1.000  H
  C15      1.0000 0.16840  0.17340  0.88190  Biso   1.000  C
  H7       1.0000 0.16490  0.16880  0.84940  Biso   1.000  H
  C16      1.0000 0.11210  0.22080  0.90080  Biso   1.000  C
  H8       1.0000 0.07010  0.24790  0.88070  Biso   1.000  H
  C17      1.0000 0.17710  0.19020  0.97650  Biso   1.000  C
  H9       1.0000 0.17860  0.19510  0.00890  Biso   1.000  H
  C18      1.0000 0.16600  0.01130  0.97630  Biso   1.000  C
  H10      1.0000 0.19180  0.97130  0.97260  Biso   1.000  H
  H11      1.0000 0.13490  0.02650  0.94560  Biso   1.000  H
  C19      1.0000 0.05850  0.01520  0.01050  Biso   1.000  C
  H12      1.0000 0.08820  0.99760  0.04040  Biso   1.000  H
  H13      1.0000 0.03820  0.05560  0.01610  Biso   1.000  H
  N1       1.0000 0.41170  0.11690  0.02340  Biso   1.000  N
  N2       1.0000 0.27960  0.04690  0.99750  Biso   1.000  N
  N3       1.0000 0.11600  0.22930  0.94820  Biso   1.000  N
  C20      1.0000 0.13010  0.24460  0.23540  Biso   1.000  C
  O1       1.0000 0.24650  0.23760  0.22510  Biso   1.000  O
  O2       1.0000 0.70560  0.23750  0.05560  Biso   1.000  O
  O3       1.0000 0.61760  0.18890  0.10360  Biso   1.000  O
  C21      1.0000 0.89150  0.24220  0.21350  Biso   1.000  C
  C22      1.0000 0.01200  0.25890  0.20110  Biso   1.000  C
  C23      1.0000 0.01720  0.27330  0.15460  Biso   1.000  C
  H14      1.0000 0.08480  0.29680  0.14680  Biso   1.000  H
  O4       1.0000 0.90400  0.31550  0.05270  Biso   1.000  O
  O5       1.0000 0.04620  0.24970  0.05060  Biso   1.000  O
  O6       1.0000 0.74200  0.18350  0.05670  Biso   1.000  O
  O7       1.0000 0.62100  0.22760  0.10140  Biso   1.000  O
  C24      1.0000 0.91700  0.19560  0.20860  Biso   1.000  C
  C25      1.0000 0.02200  0.22200  0.20120  Biso   1.000  C
  C26      1.0000 0.05400  0.25340  0.15460  Biso   1.000  C
  H15      1.0000 0.13460  0.26810  0.14880  Biso   1.000  H
  O8       1.0000 0.00100  0.32000  0.06190  Biso   1.000  O
  O9       1.0000 0.97670  0.23630  0.04530  Biso   1.000  O
  Cd2      1.0000 0.02161  0.70250  0.02223  Biso   1.000  Cd
  C27      1.0000 0.20860  0.71620  0.09380  Biso   1.000  C
  C28      1.0000 0.31740  0.73050  0.13110  Biso   1.000  C
  C29      1.0000 0.30460  0.72010  0.17740  Biso   1.000  C
  H16      1.0000 0.23580  0.69750  0.18530  Biso   1.000  H
  C30      1.0000 0.43020  0.75530  0.11990  Biso   1.000  C
  C31      1.0000 0.45620  0.77200  0.06860  Biso   1.000  C
  C32      1.0000 0.94670  0.56790  0.04800  Biso   1.000  C
  C33      1.0000 0.04860  0.55610  0.08390  Biso   1.000  C
  H17      1.0000 0.10680  0.58520  0.09380  Biso   1.000  H
  C34      1.0000 0.06020  0.50540  0.10280  Biso   1.000  C
  H18      1.0000 0.12370  0.49930  0.12750  Biso   1.000  H
  C35      1.0000 0.98010  0.45920  0.08720  Biso   1.000  C
  H19      1.0000 0.99270  0.42260  0.10040  Biso   1.000  H
  C36      1.0000 0.87560  0.46920  0.04970  Biso   1.000  C
  H20      1.0000 0.81930  0.43990  0.03850  Biso   1.000  H
  C37      1.0000 0.86690  0.52480  0.03220  Biso   1.000  C
  C38      1.0000 0.80860  0.60100  0.99260  Biso   1.000  C
  C39      1.0000 0.73750  0.64320  0.95960  Biso   1.000  C
  C40      1.0000 0.73040  0.63240  0.91160  Biso   1.000  C
  H21      1.0000 0.76570  0.59900  0.89980  Biso   1.000  H
  C41      1.0000 0.66840  0.67340  0.88190  Biso   1.000  C
  H22      1.0000 0.66490  0.66880  0.84940  Biso   1.000  H
  C42      1.0000 0.61210  0.72080  0.90080  Biso   1.000  C
  H23      1.0000 0.57010  0.74790  0.88070  Biso   1.000  H
  C43      1.0000 0.67710  0.69020  0.97650  Biso   1.000  C
  H24      1.0000 0.67860  0.69510  0.00890  Biso   1.000  H
  C44      1.0000 0.66600  0.51130  0.97630  Biso   1.000  C
  H25      1.0000 0.69180  0.47130  0.97260  Biso   1.000  H
  H26      1.0000 0.63490  0.52650  0.94560  Biso   1.000  H
  C45      1.0000 0.55850  0.51520  0.01050  Biso   1.000  C
  H27      1.0000 0.58820  0.49760  0.04040  Biso   1.000  H
  H28      1.0000 0.53820  0.55560  0.01610  Biso   1.000  H
  N4       1.0000 0.91170  0.61690  0.02340  Biso   1.000  N
  N5       1.0000 0.77960  0.54690  0.99750  Biso   1.000  N
  N6       1.0000 0.61600  0.72930  0.94820  Biso   1.000  N
  C46      1.0000 0.63010  0.74460  0.23540  Biso   1.000  C
  O10      1.0000 0.74650  0.73760  0.22510  Biso   1.000  O
  O11      1.0000 0.20560  0.73750  0.05560  Biso   1.000  O
  O12      1.0000 0.11760  0.68890  0.10360  Biso   1.000  O
  C47      1.0000 0.39150  0.74220  0.21350  Biso   1.000  C
  C48      1.0000 0.51200  0.75890  0.20110  Biso   1.000  C
  C49      1.0000 0.51720  0.77330  0.15460  Biso   1.000  C
  H29      1.0000 0.58480  0.79680  0.14680  Biso   1.000  H
  O13      1.0000 0.40400  0.81550  0.05270  Biso   1.000  O
  O14      1.0000 0.54620  0.74970  0.05060  Biso   1.000  O
  O15      1.0000 0.24200  0.68350  0.05670  Biso   1.000  O
  O16      1.0000 0.12100  0.72760  0.10140  Biso   1.000  O
  C50      1.0000 0.41700  0.69560  0.20860  Biso   1.000  C
  C51      1.0000 0.52200  0.72200  0.20120  Biso   1.000  C
  C52      1.0000 0.55400  0.75340  0.15460  Biso   1.000  C
  H30      1.0000 0.63460  0.76810  0.14880  Biso   1.000  H
  O17      1.0000 0.50100  0.82000  0.06190  Biso   1.000  O
  O18      1.0000 0.47670  0.73630  0.04530  Biso   1.000  O
  Cd3      1.0000 0.47839  0.20250  0.47777  Biso   1.000  Cd
  C53      1.0000 0.29140  0.21620  0.40620  Biso   1.000  C
  C54      1.0000 0.18260  0.23050  0.36890  Biso   1.000  C
  C55      1.0000 0.19540  0.22010  0.32260  Biso   1.000  C
  H31      1.0000 0.26420  0.19750  0.31470  Biso   1.000  H
  C56      1.0000 0.06980  0.25530  0.38010  Biso   1.000  C
  C57      1.0000 0.04380  0.27200  0.43140  Biso   1.000  C
  C58      1.0000 0.55330  0.06790  0.45200  Biso   1.000  C
  C59      1.0000 0.45140  0.05610  0.41610  Biso   1.000  C
  H32      1.0000 0.39320  0.08520  0.40620  Biso   1.000  H
  C60      1.0000 0.43980  0.00540  0.39720  Biso   1.000  C
  H33      1.0000 0.37630  0.99930  0.37250  Biso   1.000  H
  C61      1.0000 0.51990  0.95920  0.41280  Biso   1.000  C
  H34      1.0000 0.50730  0.92260  0.39960  Biso   1.000  H
  C62      1.0000 0.62440  0.96920  0.45030  Biso   1.000  C
  H35      1.0000 0.68070  0.93990  0.46150  Biso   1.000  H
  C63      1.0000 0.63310  0.02480  0.46780  Biso   1.000  C
  C64      1.0000 0.69140  0.10100  0.50740  Biso   1.000  C
  C65      1.0000 0.76250  0.14320  0.54040  Biso   1.000  C
  C66      1.0000 0.76960  0.13240  0.58840  Biso   1.000  C
  H36      1.0000 0.73430  0.09900  0.60020  Biso   1.000  H
  C67      1.0000 0.83160  0.17340  0.61810  Biso   1.000  C
  H37      1.0000 0.83510  0.16880  0.65060  Biso   1.000  H
  C68      1.0000 0.88790  0.22080  0.59920  Biso   1.000  C
  H38      1.0000 0.92990  0.24790  0.61930  Biso   1.000  H
  C69      1.0000 0.82290  0.19020  0.52350  Biso   1.000  C
  H39      1.0000 0.82140  0.19510  0.49110  Biso   1.000  H
  C70      1.0000 0.83400  0.01130  0.52370  Biso   1.000  C
  H40      1.0000 0.80820  0.97130  0.52740  Biso   1.000  H
  H41      1.0000 0.86510  0.02650  0.55440  Biso   1.000  H
  C71      1.0000 0.94150  0.01520  0.48950  Biso   1.000  C
  H42      1.0000 0.91180  0.99760  0.45960  Biso   1.000  H
  H43      1.0000 0.96180  0.05560  0.48390  Biso   1.000  H
  N7       1.0000 0.58830  0.11690  0.47660  Biso   1.000  N
  N8       1.0000 0.72040  0.04690  0.50250  Biso   1.000  N
  N9       1.0000 0.88400  0.22930  0.55180  Biso   1.000  N
  C72      1.0000 0.86990  0.24460  0.26460  Biso   1.000  C
  O19      1.0000 0.75350  0.23760  0.27490  Biso   1.000  O
  O20      1.0000 0.29440  0.23750  0.44440  Biso   1.000  O
  O21      1.0000 0.38240  0.18890  0.39640  Biso   1.000  O
  C73      1.0000 0.10850  0.24220  0.28650  Biso   1.000  C
  C74      1.0000 0.98800  0.25890  0.29890  Biso   1.000  C
  C75      1.0000 0.98280  0.27330  0.34540  Biso   1.000  C
  H44      1.0000 0.91520  0.29680  0.35320  Biso   1.000  H
  O22      1.0000 0.09600  0.31550  0.44730  Biso   1.000  O
  O23      1.0000 0.95380  0.24970  0.44940  Biso   1.000  O
  O24      1.0000 0.25800  0.18350  0.44330  Biso   1.000  O
  O25      1.0000 0.37900  0.22760  0.39860  Biso   1.000  O
  C76      1.0000 0.08300  0.19560  0.29140  Biso   1.000  C
  C77      1.0000 0.97800  0.22200  0.29880  Biso   1.000  C
  C78      1.0000 0.94600  0.25340  0.34540  Biso   1.000  C
  H45      1.0000 0.86540  0.26810  0.35120  Biso   1.000  H
  O26      1.0000 0.99900  0.32000  0.43810  Biso   1.000  O
  O27      1.0000 0.02330  0.23630  0.45470  Biso   1.000  O
  Cd4      1.0000 0.97839  0.70250  0.47777  Biso   1.000  Cd
  C79      1.0000 0.79140  0.71620  0.40620  Biso   1.000  C
  C80      1.0000 0.68260  0.73050  0.36890  Biso   1.000  C
  C81      1.0000 0.69540  0.72010  0.32260  Biso   1.000  C
  H46      1.0000 0.76420  0.69750  0.31470  Biso   1.000  H
  C82      1.0000 0.56980  0.75530  0.38010  Biso   1.000  C
  C83      1.0000 0.54380  0.77200  0.43140  Biso   1.000  C
  C84      1.0000 0.05330  0.56790  0.45200  Biso   1.000  C
  C85      1.0000 0.95140  0.55610  0.41610  Biso   1.000  C
  H47      1.0000 0.89320  0.58520  0.40620  Biso   1.000  H
  C86      1.0000 0.93980  0.50540  0.39720  Biso   1.000  C
  H48      1.0000 0.87630  0.49930  0.37250  Biso   1.000  H
  C87      1.0000 0.01990  0.45920  0.41280  Biso   1.000  C
  H49      1.0000 0.00730  0.42260  0.39960  Biso   1.000  H
  C88      1.0000 0.12440  0.46920  0.45030  Biso   1.000  C
  H50      1.0000 0.18070  0.43990  0.46150  Biso   1.000  H
  C89      1.0000 0.13310  0.52480  0.46780  Biso   1.000  C
  C90      1.0000 0.19140  0.60100  0.50740  Biso   1.000  C
  C91      1.0000 0.26250  0.64320  0.54040  Biso   1.000  C
  C92      1.0000 0.26960  0.63240  0.58840  Biso   1.000  C
  H51      1.0000 0.23430  0.59900  0.60020  Biso   1.000  H
  C93      1.0000 0.33160  0.67340  0.61810  Biso   1.000  C
  H52      1.0000 0.33510  0.66880  0.65060  Biso   1.000  H
  C94      1.0000 0.38790  0.72080  0.59920  Biso   1.000  C
  H53      1.0000 0.42990  0.74790  0.61930  Biso   1.000  H
  C95      1.0000 0.32290  0.69020  0.52350  Biso   1.000  C
  H54      1.0000 0.32140  0.69510  0.49110  Biso   1.000  H
  C96      1.0000 0.33400  0.51130  0.52370  Biso   1.000  C
  H55      1.0000 0.30820  0.47130  0.52740  Biso   1.000  H
  H56      1.0000 0.36510  0.52650  0.55440  Biso   1.000  H
  C97      1.0000 0.44150  0.51520  0.48950  Biso   1.000  C
  H57      1.0000 0.41180  0.49760  0.45960  Biso   1.000  H
  H58      1.0000 0.46180  0.55560  0.48390  Biso   1.000  H
  N10      1.0000 0.08830  0.61690  0.47660  Biso   1.000  N
  N11      1.0000 0.22040  0.54690  0.50250  Biso   1.000  N
  N12      1.0000 0.38400  0.72930  0.55180  Biso   1.000  N
  C98      1.0000 0.36990  0.74460  0.26460  Biso   1.000  C
  O28      1.0000 0.25350  0.73760  0.27490  Biso   1.000  O
  O29      1.0000 0.79440  0.73750  0.44440  Biso   1.000  O
  O30      1.0000 0.88240  0.68890  0.39640  Biso   1.000  O
  C99      1.0000 0.60850  0.74220  0.28650  Biso   1.000  C
  C100     1.0000 0.48800  0.75890  0.29890  Biso   1.000  C
  C101     1.0000 0.48280  0.77330  0.34540  Biso   1.000  C
  H59      1.0000 0.41520  0.79680  0.35320  Biso   1.000  H
  O31      1.0000 0.59600  0.81550  0.44730  Biso   1.000  O
  O32      1.0000 0.45380  0.74970  0.44940  Biso   1.000  O
  O33      1.0000 0.75800  0.68350  0.44330  Biso   1.000  O
  O34      1.0000 0.87900  0.72760  0.39860  Biso   1.000  O
  C102     1.0000 0.58300  0.69560  0.29140  Biso   1.000  C
  C103     1.0000 0.47800  0.72200  0.29880  Biso   1.000  C
  C104     1.0000 0.44600  0.75340  0.34540  Biso   1.000  C
  H60      1.0000 0.36540  0.76810  0.35120  Biso   1.000  H
  O35      1.0000 0.49900  0.82000  0.43810  Biso   1.000  O
  O36      1.0000 0.52330  0.73630  0.45470  Biso   1.000  O
  Cd5      1.0000 0.47839  0.79750  0.97777  Biso   1.000  Cd
  C105     1.0000 0.29140  0.78380  0.90620  Biso   1.000  C
  C106     1.0000 0.18260  0.76950  0.86890  Biso   1.000  C
  C107     1.0000 0.19540  0.77990  0.82260  Biso   1.000  C
  H61      1.0000 0.26420  0.80250  0.81470  Biso   1.000  H
  C108     1.0000 0.06980  0.74470  0.88010  Biso   1.000  C
  C109     1.0000 0.04380  0.72800  0.93140  Biso   1.000  C
  C110     1.0000 0.55330  0.93210  0.95200  Biso   1.000  C
  C111     1.0000 0.45140  0.94390  0.91610  Biso   1.000  C
  H62      1.0000 0.39320  0.91480  0.90620  Biso   1.000  H
  C112     1.0000 0.43980  0.99460  0.89720  Biso   1.000  C
  H63      1.0000 0.37630  0.00070  0.87250  Biso   1.000  H
  C113     1.0000 0.51990  0.04080  0.91280  Biso   1.000  C
  H64      1.0000 0.50730  0.07740  0.89960  Biso   1.000  H
  C114     1.0000 0.62440  0.03080  0.95030  Biso   1.000  C
  H65      1.0000 0.68070  0.06010  0.96150  Biso   1.000  H
  C115     1.0000 0.63310  0.97520  0.96780  Biso   1.000  C
  C116     1.0000 0.69140  0.89900  0.00740  Biso   1.000  C
  C117     1.0000 0.76250  0.85680  0.04040  Biso   1.000  C
  C118     1.0000 0.76960  0.86760  0.08840  Biso   1.000  C
  H66      1.0000 0.73430  0.90100  0.10020  Biso   1.000  H
  C119     1.0000 0.83160  0.82660  0.11810  Biso   1.000  C
  H67      1.0000 0.83510  0.83120  0.15060  Biso   1.000  H
  C120     1.0000 0.88790  0.77920  0.09920  Biso   1.000  C
  H68      1.0000 0.92990  0.75210  0.11930  Biso   1.000  H
  C121     1.0000 0.82290  0.80980  0.02350  Biso   1.000  C
  H69      1.0000 0.82140  0.80490  0.99110  Biso   1.000  H
  C122     1.0000 0.83400  0.98870  0.02370  Biso   1.000  C
  H70      1.0000 0.80820  0.02870  0.02740  Biso   1.000  H
  H71      1.0000 0.86510  0.97350  0.05440  Biso   1.000  H
  C123     1.0000 0.94150  0.98480  0.98950  Biso   1.000  C
  H72      1.0000 0.91180  0.00240  0.95960  Biso   1.000  H
  H73      1.0000 0.96180  0.94440  0.98390  Biso   1.000  H
  N13      1.0000 0.58830  0.88310  0.97660  Biso   1.000  N
  N14      1.0000 0.72040  0.95310  0.00250  Biso   1.000  N
  N15      1.0000 0.88400  0.77070  0.05180  Biso   1.000  N
  C124     1.0000 0.86990  0.75540  0.76460  Biso   1.000  C
  O37      1.0000 0.75350  0.76240  0.77490  Biso   1.000  O
  O38      1.0000 0.29440  0.76250  0.94440  Biso   1.000  O
  O39      1.0000 0.38240  0.81110  0.89640  Biso   1.000  O
  C125     1.0000 0.10850  0.75780  0.78650  Biso   1.000  C
  C126     1.0000 0.98800  0.74110  0.79890  Biso   1.000  C
  C127     1.0000 0.98280  0.72670  0.84540  Biso   1.000  C
  H74      1.0000 0.91520  0.70320  0.85320  Biso   1.000  H
  O40      1.0000 0.09600  0.68450  0.94730  Biso   1.000  O
  O41      1.0000 0.95380  0.75030  0.94940  Biso   1.000  O
  O42      1.0000 0.25800  0.81650  0.94330  Biso   1.000  O
  O43      1.0000 0.37900  0.77240  0.89860  Biso   1.000  O
  C128     1.0000 0.08300  0.80440  0.79140  Biso   1.000  C
  C129     1.0000 0.97800  0.77800  0.79880  Biso   1.000  C
  C130     1.0000 0.94600  0.74660  0.84540  Biso   1.000  C
  H75      1.0000 0.86540  0.73190  0.85120  Biso   1.000  H
  O44      1.0000 0.99900  0.68000  0.93810  Biso   1.000  O
  O45      1.0000 0.02330  0.76370  0.95470  Biso   1.000  O
  Cd6      1.0000 0.97839  0.29750  0.97777  Biso   1.000  Cd
  C131     1.0000 0.79140  0.28380  0.90620  Biso   1.000  C
  C132     1.0000 0.68260  0.26950  0.86890  Biso   1.000  C
  C133     1.0000 0.69540  0.27990  0.82260  Biso   1.000  C
  H76      1.0000 0.76420  0.30250  0.81470  Biso   1.000  H
  C134     1.0000 0.56980  0.24470  0.88010  Biso   1.000  C
  C135     1.0000 0.54380  0.22800  0.93140  Biso   1.000  C
  C136     1.0000 0.05330  0.43210  0.95200  Biso   1.000  C
  C137     1.0000 0.95140  0.44390  0.91610  Biso   1.000  C
  H77      1.0000 0.89320  0.41480  0.90620  Biso   1.000  H
  C138     1.0000 0.93980  0.49460  0.89720  Biso   1.000  C
  H78      1.0000 0.87630  0.50070  0.87250  Biso   1.000  H
  C139     1.0000 0.01990  0.54080  0.91280  Biso   1.000  C
  H79      1.0000 0.00730  0.57740  0.89960  Biso   1.000  H
  C140     1.0000 0.12440  0.53080  0.95030  Biso   1.000  C
  H80      1.0000 0.18070  0.56010  0.96150  Biso   1.000  H
  C141     1.0000 0.13310  0.47520  0.96780  Biso   1.000  C
  C142     1.0000 0.19140  0.39900  0.00740  Biso   1.000  C
  C143     1.0000 0.26250  0.35680  0.04040  Biso   1.000  C
  C144     1.0000 0.26960  0.36760  0.08840  Biso   1.000  C
  H81      1.0000 0.23430  0.40100  0.10020  Biso   1.000  H
  C145     1.0000 0.33160  0.32660  0.11810  Biso   1.000  C
  H82      1.0000 0.33510  0.33120  0.15060  Biso   1.000  H
  C146     1.0000 0.38790  0.27920  0.09920  Biso   1.000  C
  H83      1.0000 0.42990  0.25210  0.11930  Biso   1.000  H
  C147     1.0000 0.32290  0.30980  0.02350  Biso   1.000  C
  H84      1.0000 0.32140  0.30490  0.99110  Biso   1.000  H
  C148     1.0000 0.33400  0.48870  0.02370  Biso   1.000  C
  H85      1.0000 0.30820  0.52870  0.02740  Biso   1.000  H
  H86      1.0000 0.36510  0.47350  0.05440  Biso   1.000  H
  C149     1.0000 0.44150  0.48480  0.98950  Biso   1.000  C
  H87      1.0000 0.41180  0.50240  0.95960  Biso   1.000  H
  H88      1.0000 0.46180  0.44440  0.98390  Biso   1.000  H
  N16      1.0000 0.08830  0.38310  0.97660  Biso   1.000  N
  N17      1.0000 0.22040  0.45310  0.00250  Biso   1.000  N
  N18      1.0000 0.38400  0.27070  0.05180  Biso   1.000  N
  C150     1.0000 0.36990  0.25540  0.76460  Biso   1.000  C
  O46      1.0000 0.25350  0.26240  0.77490  Biso   1.000  O
  O47      1.0000 0.79440  0.26250  0.94440  Biso   1.000  O
  O48      1.0000 0.88240  0.31110  0.89640  Biso   1.000  O
  C151     1.0000 0.60850  0.25780  0.78650  Biso   1.000  C
  C152     1.0000 0.48800  0.24110  0.79890  Biso   1.000  C
  C153     1.0000 0.48280  0.22670  0.84540  Biso   1.000  C
  H89      1.0000 0.41520  0.20320  0.85320  Biso   1.000  H
  O49      1.0000 0.59600  0.18450  0.94730  Biso   1.000  O
  O50      1.0000 0.45380  0.25030  0.94940  Biso   1.000  O
  O51      1.0000 0.75800  0.31650  0.94330  Biso   1.000  O
  O52      1.0000 0.87900  0.27240  0.89860  Biso   1.000  O
  C154     1.0000 0.58300  0.30440  0.79140  Biso   1.000  C
  C155     1.0000 0.47800  0.27800  0.79880  Biso   1.000  C
  C156     1.0000 0.44600  0.24660  0.84540  Biso   1.000  C
  H90      1.0000 0.36540  0.23190  0.85120  Biso   1.000  H
  O53      1.0000 0.49900  0.18000  0.93810  Biso   1.000  O
  O54      1.0000 0.52330  0.26370  0.95470  Biso   1.000  O
  Cd7      1.0000 0.52161  0.79750  0.52223  Biso   1.000  Cd
  C157     1.0000 0.70860  0.78380  0.59380  Biso   1.000  C
  C158     1.0000 0.81740  0.76950  0.63110  Biso   1.000  C
  C159     1.0000 0.80460  0.77990  0.67740  Biso   1.000  C
  H91      1.0000 0.73580  0.80250  0.68530  Biso   1.000  H
  C160     1.0000 0.93020  0.74470  0.61990  Biso   1.000  C
  C161     1.0000 0.95620  0.72800  0.56860  Biso   1.000  C
  C162     1.0000 0.44670  0.93210  0.54800  Biso   1.000  C
  C163     1.0000 0.54860  0.94390  0.58390  Biso   1.000  C
  H92      1.0000 0.60680  0.91480  0.59380  Biso   1.000  H
  C164     1.0000 0.56020  0.99460  0.60280  Biso   1.000  C
  H93      1.0000 0.62370  0.00070  0.62750  Biso   1.000  H
  C165     1.0000 0.48010  0.04080  0.58720  Biso   1.000  C
  H94      1.0000 0.49270  0.07740  0.60040  Biso   1.000  H
  C166     1.0000 0.37560  0.03080  0.54970  Biso   1.000  C
  H95      1.0000 0.31930  0.06010  0.53850  Biso   1.000  H
  C167     1.0000 0.36690  0.97520  0.53220  Biso   1.000  C
  C168     1.0000 0.30860  0.89900  0.49260  Biso   1.000  C
  C169     1.0000 0.23750  0.85680  0.45960  Biso   1.000  C
  C170     1.0000 0.23040  0.86760  0.41160  Biso   1.000  C
  H96      1.0000 0.26570  0.90100  0.39980  Biso   1.000  H
  C171     1.0000 0.16840  0.82660  0.38190  Biso   1.000  C
  H97      1.0000 0.16490  0.83120  0.34940  Biso   1.000  H
  C172     1.0000 0.11210  0.77920  0.40080  Biso   1.000  C
  H98      1.0000 0.07010  0.75210  0.38070  Biso   1.000  H
  C173     1.0000 0.17710  0.80980  0.47650  Biso   1.000  C
  H99      1.0000 0.17860  0.80490  0.50890  Biso   1.000  H
  C174     1.0000 0.16600  0.98870  0.47630  Biso   1.000  C
  H100     1.0000 0.19180  0.02870  0.47260  Biso   1.000  H
  H101     1.0000 0.13490  0.97350  0.44560  Biso   1.000  H
  C175     1.0000 0.05850  0.98480  0.51050  Biso   1.000  C
  H102     1.0000 0.08820  0.00240  0.54040  Biso   1.000  H
  H103     1.0000 0.03820  0.94440  0.51610  Biso   1.000  H
  N19      1.0000 0.41170  0.88310  0.52340  Biso   1.000  N
  N20      1.0000 0.27960  0.95310  0.49750  Biso   1.000  N
  N21      1.0000 0.11600  0.77070  0.44820  Biso   1.000  N
  C176     1.0000 0.13010  0.75540  0.73540  Biso   1.000  C
  O55      1.0000 0.24650  0.76240  0.72510  Biso   1.000  O
  O56      1.0000 0.70560  0.76250  0.55560  Biso   1.000  O
  O57      1.0000 0.61760  0.81110  0.60360  Biso   1.000  O
  C177     1.0000 0.89150  0.75780  0.71350  Biso   1.000  C
  C178     1.0000 0.01200  0.74110  0.70110  Biso   1.000  C
  C179     1.0000 0.01720  0.72670  0.65460  Biso   1.000  C
  H104     1.0000 0.08480  0.70320  0.64680  Biso   1.000  H
  O58      1.0000 0.90400  0.68450  0.55270  Biso   1.000  O
  O59      1.0000 0.04620  0.75030  0.55060  Biso   1.000  O
  O60      1.0000 0.74200  0.81650  0.55670  Biso   1.000  O
  O61      1.0000 0.62100  0.77240  0.60140  Biso   1.000  O
  C180     1.0000 0.91700  0.80440  0.70860  Biso   1.000  C
  C181     1.0000 0.02200  0.77800  0.70120  Biso   1.000  C
  C182     1.0000 0.05400  0.74660  0.65460  Biso   1.000  C
  H105     1.0000 0.13460  0.73190  0.64880  Biso   1.000  H
  O62      1.0000 0.00100  0.68000  0.56190  Biso   1.000  O
  O63      1.0000 0.97670  0.76370  0.54530  Biso   1.000  O
  Cd8      1.0000 0.02161  0.29750  0.52223  Biso   1.000  Cd
  C183     1.0000 0.20860  0.28380  0.59380  Biso   1.000  C
  C184     1.0000 0.31740  0.26950  0.63110  Biso   1.000  C
  C185     1.0000 0.30460  0.27990  0.67740  Biso   1.000  C
  H106     1.0000 0.23580  0.30250  0.68530  Biso   1.000  H
  C186     1.0000 0.43020  0.24470  0.61990  Biso   1.000  C
  C187     1.0000 0.45620  0.22800  0.56860  Biso   1.000  C
  C188     1.0000 0.94670  0.43210  0.54800  Biso   1.000  C
  C189     1.0000 0.04860  0.44390  0.58390  Biso   1.000  C
  H107     1.0000 0.10680  0.41480  0.59380  Biso   1.000  H
  C190     1.0000 0.06020  0.49460  0.60280  Biso   1.000  C
  H108     1.0000 0.12370  0.50070  0.62750  Biso   1.000  H
  C191     1.0000 0.98010  0.54080  0.58720  Biso   1.000  C
  H109     1.0000 0.99270  0.57740  0.60040  Biso   1.000  H
  C192     1.0000 0.87560  0.53080  0.54970  Biso   1.000  C
  H110     1.0000 0.81930  0.56010  0.53850  Biso   1.000  H
  C193     1.0000 0.86690  0.47520  0.53220  Biso   1.000  C
  C194     1.0000 0.80860  0.39900  0.49260  Biso   1.000  C
  C195     1.0000 0.73750  0.35680  0.45960  Biso   1.000  C
  C196     1.0000 0.73040  0.36760  0.41160  Biso   1.000  C
  H111     1.0000 0.76570  0.40100  0.39980  Biso   1.000  H
  C197     1.0000 0.66840  0.32660  0.38190  Biso   1.000  C
  H112     1.0000 0.66490  0.33120  0.34940  Biso   1.000  H
  C198     1.0000 0.61210  0.27920  0.40080  Biso   1.000  C
  H113     1.0000 0.57010  0.25210  0.38070  Biso   1.000  H
  C199     1.0000 0.67710  0.30980  0.47650  Biso   1.000  C
  H114     1.0000 0.67860  0.30490  0.50890  Biso   1.000  H
  C200     1.0000 0.66600  0.48870  0.47630  Biso   1.000  C
  H115     1.0000 0.69180  0.52870  0.47260  Biso   1.000  H
  H116     1.0000 0.63490  0.47350  0.44560  Biso   1.000  H
  C201     1.0000 0.55850  0.48480  0.51050  Biso   1.000  C
  H117     1.0000 0.58820  0.50240  0.54040  Biso   1.000  H
  H118     1.0000 0.53820  0.44440  0.51610  Biso   1.000  H
  N22      1.0000 0.91170  0.38310  0.52340  Biso   1.000  N
  N23      1.0000 0.77960  0.45310  0.49750  Biso   1.000  N
  N24      1.0000 0.61600  0.27070  0.44820  Biso   1.000  N
  C202     1.0000 0.63010  0.25540  0.73540  Biso   1.000  C
  O64      1.0000 0.74650  0.26240  0.72510  Biso   1.000  O
  O65      1.0000 0.20560  0.26250  0.55560  Biso   1.000  O
  O66      1.0000 0.11760  0.31110  0.60360  Biso   1.000  O
  C203     1.0000 0.39150  0.25780  0.71350  Biso   1.000  C
  C204     1.0000 0.51200  0.24110  0.70110  Biso   1.000  C
  C205     1.0000 0.51720  0.22670  0.65460  Biso   1.000  C
  H119     1.0000 0.58480  0.20320  0.64680  Biso   1.000  H
  O67      1.0000 0.40400  0.18450  0.55270  Biso   1.000  O
  O68      1.0000 0.54620  0.25030  0.55060  Biso   1.000  O
  O69      1.0000 0.24200  0.31650  0.55670  Biso   1.000  O
  O70      1.0000 0.12100  0.27240  0.60140  Biso   1.000  O
  C206     1.0000 0.41700  0.30440  0.70860  Biso   1.000  C
  C207     1.0000 0.52200  0.27800  0.70120  Biso   1.000  C
  C208     1.0000 0.55400  0.24660  0.65460  Biso   1.000  C
  H120     1.0000 0.63460  0.23190  0.64880  Biso   1.000  H
  O71      1.0000 0.50100  0.18000  0.56190  Biso   1.000  O
  O72      1.0000 0.47670  0.26370  0.54530  Biso   1.000  O
