data_image0
_cell_length_a       7.038
_cell_length_b       23.12
_cell_length_c       20.675
_cell_angle_alpha    90
_cell_angle_beta     90
_cell_angle_gamma    90

_symmetry_space_group_name_H-M    "P 1"
_symmetry_int_tables_number       1

loop_
  _symmetry_equiv_pos_as_xyz
  'x, y, z'

loop_
  _atom_site_label
  _atom_site_occupancy
  _atom_site_fract_x
  _atom_site_fract_y
  _atom_site_fract_z
  _atom_site_thermal_displace_type
  _atom_site_B_iso_or_equiv
  _atom_site_type_symbol
  O1       1.0000 0.33210  0.15030  0.95040  Biso   1.000  O
  O2       1.0000 0.36400  0.32490  0.93410  Biso   1.000  O
  O3       1.0000 0.41400  0.26510  0.96970  Biso   1.000  O
  C1       1.0000 0.58800  0.03950  0.46550  Biso   1.000  C
  C2       1.0000 0.40500  0.02020  0.54870  Biso   1.000  C
  O4       1.0000 0.13300  0.38170  0.88280  Biso   1.000  O
  O5       1.0000 0.83210  0.65030  0.95040  Biso   1.000  O
  O6       1.0000 0.86400  0.82490  0.93410  Biso   1.000  O
  O7       1.0000 0.91400  0.76510  0.96970  Biso   1.000  O
  C3       1.0000 0.08800  0.53950  0.46550  Biso   1.000  C
  C4       1.0000 0.90500  0.52020  0.54870  Biso   1.000  C
  O8       1.0000 0.63300  0.88170  0.88280  Biso   1.000  O
  O9       1.0000 0.66790  0.34970  0.45040  Biso   1.000  O
  O10      1.0000 0.63600  0.17510  0.43410  Biso   1.000  O
  O11      1.0000 0.58600  0.23490  0.46970  Biso   1.000  O
  C5       1.0000 0.41200  0.46050  0.96550  Biso   1.000  C
  C6       1.0000 0.59500  0.47980  0.04870  Biso   1.000  C
  O12      1.0000 0.86700  0.11830  0.38280  Biso   1.000  O
  O13      1.0000 0.16790  0.84970  0.45040  Biso   1.000  O
  O14      1.0000 0.13600  0.67510  0.43410  Biso   1.000  O
  O15      1.0000 0.08600  0.73490  0.46970  Biso   1.000  O
  C7       1.0000 0.91200  0.96050  0.96550  Biso   1.000  C
  C8       1.0000 0.09500  0.97980  0.04870  Biso   1.000  C
  O16      1.0000 0.36700  0.61830  0.38280  Biso   1.000  O
  O17      1.0000 0.66790  0.65030  0.54960  Biso   1.000  O
  O18      1.0000 0.63600  0.82490  0.56590  Biso   1.000  O
  O19      1.0000 0.58600  0.76510  0.53030  Biso   1.000  O
  C9       1.0000 0.41200  0.53950  0.03450  Biso   1.000  C
  C10      1.0000 0.59500  0.52020  0.95130  Biso   1.000  C
  O20      1.0000 0.86700  0.88170  0.61720  Biso   1.000  O
  O21      1.0000 0.16790  0.15030  0.54960  Biso   1.000  O
  O22      1.0000 0.13600  0.32490  0.56590  Biso   1.000  O
  O23      1.0000 0.08600  0.26510  0.53030  Biso   1.000  O
  C11      1.0000 0.91200  0.03950  0.03450  Biso   1.000  C
  C12      1.0000 0.09500  0.02020  0.95130  Biso   1.000  C
  O24      1.0000 0.36700  0.38170  0.61720  Biso   1.000  O
  O25      1.0000 0.33210  0.84970  0.04960  Biso   1.000  O
  O26      1.0000 0.36400  0.67510  0.06590  Biso   1.000  O
  O27      1.0000 0.41400  0.73490  0.03030  Biso   1.000  O
  C13      1.0000 0.58800  0.96050  0.53450  Biso   1.000  C
  C14      1.0000 0.40500  0.97980  0.45130  Biso   1.000  C
  O28      1.0000 0.13300  0.61830  0.11720  Biso   1.000  O
  O29      1.0000 0.83210  0.34970  0.04960  Biso   1.000  O
  O30      1.0000 0.86400  0.17510  0.06590  Biso   1.000  O
  O31      1.0000 0.91400  0.23490  0.03030  Biso   1.000  O
  C15      1.0000 0.08800  0.46050  0.53450  Biso   1.000  C
  C16      1.0000 0.90500  0.47980  0.45130  Biso   1.000  C
  O32      1.0000 0.63300  0.11830  0.11720  Biso   1.000  O
  O33      1.0000 0.66790  0.84970  0.04960  Biso   1.000  O
  O34      1.0000 0.63600  0.67510  0.06590  Biso   1.000  O
  O35      1.0000 0.58600  0.73490  0.03030  Biso   1.000  O
  C17      1.0000 0.41200  0.96050  0.53450  Biso   1.000  C
  C18      1.0000 0.59500  0.97980  0.45130  Biso   1.000  C
  O36      1.0000 0.86700  0.61830  0.11720  Biso   1.000  O
  O37      1.0000 0.16790  0.34970  0.04960  Biso   1.000  O
  O38      1.0000 0.13600  0.17510  0.06590  Biso   1.000  O
  O39      1.0000 0.08600  0.23490  0.03030  Biso   1.000  O
  C19      1.0000 0.91200  0.46050  0.53450  Biso   1.000  C
  C20      1.0000 0.09500  0.47980  0.45130  Biso   1.000  C
  O40      1.0000 0.36700  0.11830  0.11720  Biso   1.000  O
  O41      1.0000 0.33210  0.65030  0.54960  Biso   1.000  O
  O42      1.0000 0.36400  0.82490  0.56590  Biso   1.000  O
  O43      1.0000 0.41400  0.76510  0.53030  Biso   1.000  O
  C21      1.0000 0.58800  0.53950  0.03450  Biso   1.000  C
  C22      1.0000 0.40500  0.52020  0.95130  Biso   1.000  C
  O44      1.0000 0.13300  0.88170  0.61720  Biso   1.000  O
  O45      1.0000 0.83210  0.15030  0.54960  Biso   1.000  O
  O46      1.0000 0.86400  0.32490  0.56590  Biso   1.000  O
  O47      1.0000 0.91400  0.26510  0.53030  Biso   1.000  O
  C23      1.0000 0.08800  0.03950  0.03450  Biso   1.000  C
  C24      1.0000 0.90500  0.02020  0.95130  Biso   1.000  C
  O48      1.0000 0.63300  0.38170  0.61720  Biso   1.000  O
  O49      1.0000 0.33210  0.34970  0.45040  Biso   1.000  O
  O50      1.0000 0.36400  0.17510  0.43410  Biso   1.000  O
  O51      1.0000 0.41400  0.23490  0.46970  Biso   1.000  O
  C25      1.0000 0.58800  0.46050  0.96550  Biso   1.000  C
  C26      1.0000 0.40500  0.47980  0.04870  Biso   1.000  C
  O52      1.0000 0.13300  0.11830  0.38280  Biso   1.000  O
  O53      1.0000 0.83210  0.84970  0.45040  Biso   1.000  O
  O54      1.0000 0.86400  0.67510  0.43410  Biso   1.000  O
  O55      1.0000 0.91400  0.73490  0.46970  Biso   1.000  O
  C27      1.0000 0.08800  0.96050  0.96550  Biso   1.000  C
  C28      1.0000 0.90500  0.97980  0.04870  Biso   1.000  C
  O56      1.0000 0.63300  0.61830  0.38280  Biso   1.000  O
  O57      1.0000 0.66790  0.15030  0.95040  Biso   1.000  O
  O58      1.0000 0.63600  0.32490  0.93410  Biso   1.000  O
  O59      1.0000 0.58600  0.26510  0.96970  Biso   1.000  O
  C29      1.0000 0.41200  0.03950  0.46550  Biso   1.000  C
  C30      1.0000 0.59500  0.02020  0.54870  Biso   1.000  C
  O60      1.0000 0.86700  0.38170  0.88280  Biso   1.000  O
  O61      1.0000 0.16790  0.65030  0.95040  Biso   1.000  O
  O62      1.0000 0.13600  0.82490  0.93410  Biso   1.000  O
  O63      1.0000 0.08600  0.76510  0.96970  Biso   1.000  O
  C31      1.0000 0.91200  0.53950  0.46550  Biso   1.000  C
  C32      1.0000 0.09500  0.52020  0.54870  Biso   1.000  C
  O64      1.0000 0.36700  0.88170  0.88280  Biso   1.000  O
  Cd1      1.0000 0.50000  0.15649  0.54015  Biso   1.000  Cd
  S1       1.0000 0.50000  0.14191  0.90962  Biso   1.000  S
  C33      1.0000 0.50000  0.17660  0.78380  Biso   1.000  C
  H1       1.0000 0.50000  0.13660  0.77550  Biso   1.000  H
  C34      1.0000 0.50000  0.21480  0.73230  Biso   1.000  C
  O65      1.0000 0.50000  0.13970  0.65420  Biso   1.000  O
  O66      1.0000 0.50000  0.22870  0.61770  Biso   1.000  O
  C35      1.0000 0.50000  0.19270  0.66370  Biso   1.000  C
  N1       1.0000 0.50000  0.05840  0.51480  Biso   1.000  N
  C36      1.0000 0.50000  0.19560  0.84720  Biso   1.000  C
  C37      1.0000 0.50000  0.25490  0.85910  Biso   1.000  C
  C38      1.0000 0.50000  0.28440  0.92520  Biso   1.000  C
  C39      1.0000 0.50000  0.27320  0.74420  Biso   1.000  C
  H2       1.0000 0.50000  0.29940  0.70950  Biso   1.000  H
  C40      1.0000 0.50000  0.29310  0.80620  Biso   1.000  C
  H3       1.0000 0.50000  0.33320  0.81380  Biso   1.000  H
  O67      1.0000 0.50000  0.08870  0.87840  Biso   1.000  O
  Na1      1.0000 0.50000  0.30910  0.55040  Biso   1.000  Na
  O68      1.0000 0.50000  0.39260  0.61600  Biso   1.000  O
  Cd2      1.0000 0.00000  0.65649  0.54015  Biso   1.000  Cd
  S2       1.0000 0.00000  0.64191  0.90962  Biso   1.000  S
  C41      1.0000 0.00000  0.67660  0.78380  Biso   1.000  C
  H4       1.0000 0.00000  0.63660  0.77550  Biso   1.000  H
  C42      1.0000 0.00000  0.71480  0.73230  Biso   1.000  C
  O69      1.0000 0.00000  0.63970  0.65420  Biso   1.000  O
  O70      1.0000 0.00000  0.72870  0.61770  Biso   1.000  O
  C43      1.0000 0.00000  0.69270  0.66370  Biso   1.000  C
  N2       1.0000 0.00000  0.55840  0.51480  Biso   1.000  N
  C44      1.0000 0.00000  0.69560  0.84720  Biso   1.000  C
  C45      1.0000 0.00000  0.75490  0.85910  Biso   1.000  C
  C46      1.0000 0.00000  0.78440  0.92520  Biso   1.000  C
  C47      1.0000 0.00000  0.77320  0.74420  Biso   1.000  C
  H5       1.0000 0.00000  0.79940  0.70950  Biso   1.000  H
  C48      1.0000 0.00000  0.79310  0.80620  Biso   1.000  C
  H6       1.0000 0.00000  0.83320  0.81380  Biso   1.000  H
  O71      1.0000 0.00000  0.58870  0.87840  Biso   1.000  O
  Na2      1.0000 0.00000  0.80910  0.55040  Biso   1.000  Na
  O72      1.0000 0.00000  0.89260  0.61600  Biso   1.000  O
  Cd3      1.0000 0.50000  0.34351  0.04015  Biso   1.000  Cd
  S3       1.0000 0.50000  0.35809  0.40962  Biso   1.000  S
  C49      1.0000 0.50000  0.32340  0.28380  Biso   1.000  C
  H7       1.0000 0.50000  0.36340  0.27550  Biso   1.000  H
  C50      1.0000 0.50000  0.28520  0.23230  Biso   1.000  C
  O73      1.0000 0.50000  0.36030  0.15420  Biso   1.000  O
  O74      1.0000 0.50000  0.27130  0.11770  Biso   1.000  O
  C51      1.0000 0.50000  0.30730  0.16370  Biso   1.000  C
  N3       1.0000 0.50000  0.44160  0.01480  Biso   1.000  N
  C52      1.0000 0.50000  0.30440  0.34720  Biso   1.000  C
  C53      1.0000 0.50000  0.24510  0.35910  Biso   1.000  C
  C54      1.0000 0.50000  0.21560  0.42520  Biso   1.000  C
  C55      1.0000 0.50000  0.22680  0.24420  Biso   1.000  C
  H8       1.0000 0.50000  0.20060  0.20950  Biso   1.000  H
  C56      1.0000 0.50000  0.20690  0.30620  Biso   1.000  C
  H9       1.0000 0.50000  0.16680  0.31380  Biso   1.000  H
  O75      1.0000 0.50000  0.41130  0.37840  Biso   1.000  O
  Na3      1.0000 0.50000  0.19090  0.05040  Biso   1.000  Na
  O76      1.0000 0.50000  0.10740  0.11600  Biso   1.000  O
  Cd4      1.0000 0.00000  0.84351  0.04015  Biso   1.000  Cd
  S4       1.0000 0.00000  0.85809  0.40962  Biso   1.000  S
  C57      1.0000 0.00000  0.82340  0.28380  Biso   1.000  C
  H10      1.0000 0.00000  0.86340  0.27550  Biso   1.000  H
  C58      1.0000 0.00000  0.78520  0.23230  Biso   1.000  C
  O77      1.0000 0.00000  0.86030  0.15420  Biso   1.000  O
  O78      1.0000 0.00000  0.77130  0.11770  Biso   1.000  O
  C59      1.0000 0.00000  0.80730  0.16370  Biso   1.000  C
  N4       1.0000 0.00000  0.94160  0.01480  Biso   1.000  N
  C60      1.0000 0.00000  0.80440  0.34720  Biso   1.000  C
  C61      1.0000 0.00000  0.74510  0.35910  Biso   1.000  C
  C62      1.0000 0.00000  0.71560  0.42520  Biso   1.000  C
  C63      1.0000 0.00000  0.72680  0.24420  Biso   1.000  C
  H11      1.0000 0.00000  0.70060  0.20950  Biso   1.000  H
  C64      1.0000 0.00000  0.70690  0.30620  Biso   1.000  C
  H12      1.0000 0.00000  0.66680  0.31380  Biso   1.000  H
  O79      1.0000 0.00000  0.91130  0.37840  Biso   1.000  O
  Na4      1.0000 0.00000  0.69090  0.05040  Biso   1.000  Na
  O80      1.0000 0.00000  0.60740  0.11600  Biso   1.000  O
  Cd5      1.0000 0.50000  0.65649  0.95985  Biso   1.000  Cd
  S5       1.0000 0.50000  0.64191  0.59038  Biso   1.000  S
  C65      1.0000 0.50000  0.67660  0.71620  Biso   1.000  C
  H13      1.0000 0.50000  0.63660  0.72450  Biso   1.000  H
  C66      1.0000 0.50000  0.71480  0.76770  Biso   1.000  C
  O81      1.0000 0.50000  0.63970  0.84580  Biso   1.000  O
  O82      1.0000 0.50000  0.72870  0.88230  Biso   1.000  O
  C67      1.0000 0.50000  0.69270  0.83630  Biso   1.000  C
  N5       1.0000 0.50000  0.55840  0.98520  Biso   1.000  N
  C68      1.0000 0.50000  0.69560  0.65280  Biso   1.000  C
  C69      1.0000 0.50000  0.75490  0.64090  Biso   1.000  C
  C70      1.0000 0.50000  0.78440  0.57480  Biso   1.000  C
  C71      1.0000 0.50000  0.77320  0.75580  Biso   1.000  C
  H14      1.0000 0.50000  0.79940  0.79050  Biso   1.000  H
  C72      1.0000 0.50000  0.79310  0.69380  Biso   1.000  C
  H15      1.0000 0.50000  0.83320  0.68620  Biso   1.000  H
  O83      1.0000 0.50000  0.58870  0.62160  Biso   1.000  O
  Na5      1.0000 0.50000  0.80910  0.94960  Biso   1.000  Na
  O84      1.0000 0.50000  0.89260  0.88400  Biso   1.000  O
  Cd6      1.0000 0.00000  0.15649  0.95985  Biso   1.000  Cd
  S6       1.0000 0.00000  0.14191  0.59038  Biso   1.000  S
  C73      1.0000 0.00000  0.17660  0.71620  Biso   1.000  C
  H16      1.0000 0.00000  0.13660  0.72450  Biso   1.000  H
  C74      1.0000 0.00000  0.21480  0.76770  Biso   1.000  C
  O85      1.0000 0.00000  0.13970  0.84580  Biso   1.000  O
  O86      1.0000 0.00000  0.22870  0.88230  Biso   1.000  O
  C75      1.0000 0.00000  0.19270  0.83630  Biso   1.000  C
  N6       1.0000 0.00000  0.05840  0.98520  Biso   1.000  N
  C76      1.0000 0.00000  0.19560  0.65280  Biso   1.000  C
  C77      1.0000 0.00000  0.25490  0.64090  Biso   1.000  C
  C78      1.0000 0.00000  0.28440  0.57480  Biso   1.000  C
  C79      1.0000 0.00000  0.27320  0.75580  Biso   1.000  C
  H17      1.0000 0.00000  0.29940  0.79050  Biso   1.000  H
  C80      1.0000 0.00000  0.29310  0.69380  Biso   1.000  C
  H18      1.0000 0.00000  0.33320  0.68620  Biso   1.000  H
  O87      1.0000 0.00000  0.08870  0.62160  Biso   1.000  O
  Na6      1.0000 0.00000  0.30910  0.94960  Biso   1.000  Na
  O88      1.0000 0.00000  0.39260  0.88400  Biso   1.000  O
  Cd7      1.0000 0.50000  0.84351  0.45985  Biso   1.000  Cd
  S7       1.0000 0.50000  0.85809  0.09038  Biso   1.000  S
  C81      1.0000 0.50000  0.82340  0.21620  Biso   1.000  C
  H19      1.0000 0.50000  0.86340  0.22450  Biso   1.000  H
  C82      1.0000 0.50000  0.78520  0.26770  Biso   1.000  C
  O89      1.0000 0.50000  0.86030  0.34580  Biso   1.000  O
  O90      1.0000 0.50000  0.77130  0.38230  Biso   1.000  O
  C83      1.0000 0.50000  0.80730  0.33630  Biso   1.000  C
  N7       1.0000 0.50000  0.94160  0.48520  Biso   1.000  N
  C84      1.0000 0.50000  0.80440  0.15280  Biso   1.000  C
  C85      1.0000 0.50000  0.74510  0.14090  Biso   1.000  C
  C86      1.0000 0.50000  0.71560  0.07480  Biso   1.000  C
  C87      1.0000 0.50000  0.72680  0.25580  Biso   1.000  C
  H20      1.0000 0.50000  0.70060  0.29050  Biso   1.000  H
  C88      1.0000 0.50000  0.70690  0.19380  Biso   1.000  C
  H21      1.0000 0.50000  0.66680  0.18620  Biso   1.000  H
  O91      1.0000 0.50000  0.91130  0.12160  Biso   1.000  O
  Na7      1.0000 0.50000  0.69090  0.44960  Biso   1.000  Na
  O92      1.0000 0.50000  0.60740  0.38400  Biso   1.000  O
  Cd8      1.0000 0.00000  0.34351  0.45985  Biso   1.000  Cd
  S8       1.0000 0.00000  0.35809  0.09038  Biso   1.000  S
  C89      1.0000 0.00000  0.32340  0.21620  Biso   1.000  C
  H22      1.0000 0.00000  0.36340  0.22450  Biso   1.000  H
  C90      1.0000 0.00000  0.28520  0.26770  Biso   1.000  C
  O93      1.0000 0.00000  0.36030  0.34580  Biso   1.000  O
  O94      1.0000 0.00000  0.27130  0.38230  Biso   1.000  O
  C91      1.0000 0.00000  0.30730  0.33630  Biso   1.000  C
  N8       1.0000 0.00000  0.44160  0.48520  Biso   1.000  N
  C92      1.0000 0.00000  0.30440  0.15280  Biso   1.000  C
  C93      1.0000 0.00000  0.24510  0.14090  Biso   1.000  C
  C94      1.0000 0.00000  0.21560  0.07480  Biso   1.000  C
  C95      1.0000 0.00000  0.22680  0.25580  Biso   1.000  C
  H23      1.0000 0.00000  0.20060  0.29050  Biso   1.000  H
  C96      1.0000 0.00000  0.20690  0.19380  Biso   1.000  C
  H24      1.0000 0.00000  0.16680  0.18620  Biso   1.000  H
  O95      1.0000 0.00000  0.41130  0.12160  Biso   1.000  O
  Na8      1.0000 0.00000  0.19090  0.44960  Biso   1.000  Na
  O96      1.0000 0.00000  0.10740  0.38400  Biso   1.000  O
