data_image0
_cell_length_a       25.9949
_cell_length_b       25.9949
_cell_length_c       19.7757
_cell_angle_alpha    90
_cell_angle_beta     90
_cell_angle_gamma    120

_symmetry_space_group_name_H-M    "P 1"
_symmetry_int_tables_number       1

loop_
  _symmetry_equiv_pos_as_xyz
  'x, y, z'

loop_
  _atom_site_label
  _atom_site_occupancy
  _atom_site_fract_x
  _atom_site_fract_y
  _atom_site_fract_z
  _atom_site_thermal_displace_type
  _atom_site_B_iso_or_equiv
  _atom_site_type_symbol
  Co1      1.0000 0.43467  0.10167  0.59921  Biso   1.000  Co
  N1       1.0000 0.43230  0.17340  0.56600  Biso   1.000  N
  O1       1.0000 0.50560  0.17780  0.69430  Biso   1.000  O
  N2       1.0000 0.40170  0.07930  0.69210  Biso   1.000  N
  N3       1.0000 0.37640  0.03700  0.54050  Biso   1.000  N
  N4       1.0000 0.51700  0.11910  0.56480  Biso   1.000  N
  C1       1.0000 0.43040  0.18910  0.49680  Biso   1.000  C
  C2       1.0000 0.31800  0.02060  0.52800  Biso   1.000  C
  C3       1.0000 0.35030  0.03200  0.71360  Biso   1.000  C
  H1       1.0000 0.32010  0.00430  0.68610  Biso   1.000  H
  C4       1.0000 0.55390  0.16890  0.53280  Biso   1.000  C
  H2       1.0000 0.54600  0.19720  0.51460  Biso   1.000  H
  O2       1.0000 0.55250  0.02310  0.63950  Biso   1.000  O
  C5       1.0000 0.42950  0.16080  0.43090  Biso   1.000  C
  H3       1.0000 0.43600  0.12900  0.42490  Biso   1.000  H
  C6       1.0000 0.28210  0.04610  0.55020  Biso   1.000  C
  H4       1.0000 0.29700  0.07900  0.57850  Biso   1.000  H
  C7       1.0000 0.22330  0.01740  0.52600  Biso   1.000  C
  C8       1.0000 0.41820  0.18800  0.38330  Biso   1.000  C
  Br1      1.0000 0.16820  0.02950  0.56370  Biso   1.000  Br
  Br2      1.0000 0.41540  0.13555  0.30144  Biso   1.000  Br
  Co2      1.0000 0.89833  0.33300  0.59921  Biso   1.000  Co
  N5       1.0000 0.82660  0.25890  0.56600  Biso   1.000  N
  O3       1.0000 0.82220  0.32780  0.69430  Biso   1.000  O
  N6       1.0000 0.92070  0.32240  0.69210  Biso   1.000  N
  N7       1.0000 0.96300  0.33940  0.54050  Biso   1.000  N
  N8       1.0000 0.88090  0.39790  0.56480  Biso   1.000  N
  C9       1.0000 0.81090  0.24130  0.49680  Biso   1.000  C
  C10      1.0000 0.97940  0.29740  0.52800  Biso   1.000  C
  C11      1.0000 0.96800  0.31830  0.71360  Biso   1.000  C
  H5       1.0000 0.99570  0.31580  0.68610  Biso   1.000  H
  C12      1.0000 0.83110  0.38500  0.53280  Biso   1.000  C
  H6       1.0000 0.80280  0.34880  0.51460  Biso   1.000  H
  O4       1.0000 0.97690  0.52940  0.63950  Biso   1.000  O
  C13      1.0000 0.83920  0.26870  0.43090  Biso   1.000  C
  H7       1.0000 0.87100  0.30700  0.42490  Biso   1.000  H
  C14      1.0000 0.95390  0.23600  0.55020  Biso   1.000  C
  H8       1.0000 0.92100  0.21800  0.57850  Biso   1.000  H
  C15      1.0000 0.98260  0.20590  0.52600  Biso   1.000  C
  C16      1.0000 0.81200  0.23020  0.38330  Biso   1.000  C
  Br3      1.0000 0.97050  0.13870  0.56370  Biso   1.000  Br
  Br4      1.0000 0.86445  0.27985  0.30144  Biso   1.000  Br
  Co3      1.0000 0.66700  0.56533  0.59921  Biso   1.000  Co
  N9       1.0000 0.74110  0.56770  0.56600  Biso   1.000  N
  O5       1.0000 0.67220  0.49440  0.69430  Biso   1.000  O
  N10      1.0000 0.67760  0.59830  0.69210  Biso   1.000  N
  N11      1.0000 0.66060  0.62360  0.54050  Biso   1.000  N
  N12      1.0000 0.60210  0.48300  0.56480  Biso   1.000  N
  C17      1.0000 0.75870  0.56960  0.49680  Biso   1.000  C
  C18      1.0000 0.70260  0.68200  0.52800  Biso   1.000  C
  C19      1.0000 0.68170  0.64970  0.71360  Biso   1.000  C
  H9       1.0000 0.68420  0.67990  0.68610  Biso   1.000  H
  C20      1.0000 0.61500  0.44610  0.53280  Biso   1.000  C
  H10      1.0000 0.65120  0.45400  0.51460  Biso   1.000  H
  O6       1.0000 0.47060  0.44750  0.63950  Biso   1.000  O
  C21      1.0000 0.73130  0.57050  0.43090  Biso   1.000  C
  H11      1.0000 0.69300  0.56400  0.42490  Biso   1.000  H
  C22      1.0000 0.76400  0.71790  0.55020  Biso   1.000  C
  H12      1.0000 0.78200  0.70300  0.57850  Biso   1.000  H
  C23      1.0000 0.79410  0.77670  0.52600  Biso   1.000  C
  C24      1.0000 0.76980  0.58180  0.38330  Biso   1.000  C
  Br5      1.0000 0.86130  0.83180  0.56370  Biso   1.000  Br
  Br6      1.0000 0.72015  0.58460  0.30144  Biso   1.000  Br
  Co4      1.0000 0.56533  0.89833  0.09921  Biso   1.000  Co
  N13      1.0000 0.56770  0.82660  0.06600  Biso   1.000  N
  O7       1.0000 0.49440  0.82220  0.19430  Biso   1.000  O
  N14      1.0000 0.59830  0.92070  0.19210  Biso   1.000  N
  N15      1.0000 0.62360  0.96300  0.04050  Biso   1.000  N
  N16      1.0000 0.48300  0.88090  0.06480  Biso   1.000  N
  C25      1.0000 0.56960  0.81090  0.99680  Biso   1.000  C
  C26      1.0000 0.68200  0.97940  0.02800  Biso   1.000  C
  C27      1.0000 0.64970  0.96800  0.21360  Biso   1.000  C
  H13      1.0000 0.67990  0.99570  0.18610  Biso   1.000  H
  C28      1.0000 0.44610  0.83110  0.03280  Biso   1.000  C
  H14      1.0000 0.45400  0.80280  0.01460  Biso   1.000  H
  O8       1.0000 0.44750  0.97690  0.13950  Biso   1.000  O
  C29      1.0000 0.57050  0.83920  0.93090  Biso   1.000  C
  H15      1.0000 0.56400  0.87100  0.92490  Biso   1.000  H
  C30      1.0000 0.71790  0.95390  0.05020  Biso   1.000  C
  H16      1.0000 0.70300  0.92100  0.07850  Biso   1.000  H
  C31      1.0000 0.77670  0.98260  0.02600  Biso   1.000  C
  C32      1.0000 0.58180  0.81200  0.88330  Biso   1.000  C
  Br7      1.0000 0.83180  0.97050  0.06370  Biso   1.000  Br
  Br8      1.0000 0.58460  0.86445  0.80144  Biso   1.000  Br
  Co5      1.0000 0.10167  0.66700  0.09921  Biso   1.000  Co
  N17      1.0000 0.17340  0.74110  0.06600  Biso   1.000  N
  O9       1.0000 0.17780  0.67220  0.19430  Biso   1.000  O
  N18      1.0000 0.07930  0.67760  0.19210  Biso   1.000  N
  N19      1.0000 0.03700  0.66060  0.04050  Biso   1.000  N
  N20      1.0000 0.11910  0.60210  0.06480  Biso   1.000  N
  C33      1.0000 0.18910  0.75870  0.99680  Biso   1.000  C
  C34      1.0000 0.02060  0.70260  0.02800  Biso   1.000  C
  C35      1.0000 0.03200  0.68170  0.21360  Biso   1.000  C
  H17      1.0000 0.00430  0.68420  0.18610  Biso   1.000  H
  C36      1.0000 0.16890  0.61500  0.03280  Biso   1.000  C
  H18      1.0000 0.19720  0.65120  0.01460  Biso   1.000  H
  O10      1.0000 0.02310  0.47060  0.13950  Biso   1.000  O
  C37      1.0000 0.16080  0.73130  0.93090  Biso   1.000  C
  H19      1.0000 0.12900  0.69300  0.92490  Biso   1.000  H
  C38      1.0000 0.04610  0.76400  0.05020  Biso   1.000  C
  H20      1.0000 0.07900  0.78200  0.07850  Biso   1.000  H
  C39      1.0000 0.01740  0.79410  0.02600  Biso   1.000  C
  C40      1.0000 0.18800  0.76980  0.88330  Biso   1.000  C
  Br9      1.0000 0.02950  0.86130  0.06370  Biso   1.000  Br
  Br10     1.0000 0.13555  0.72015  0.80144  Biso   1.000  Br
  Co6      1.0000 0.33300  0.43467  0.09921  Biso   1.000  Co
  N21      1.0000 0.25890  0.43230  0.06600  Biso   1.000  N
  O11      1.0000 0.32780  0.50560  0.19430  Biso   1.000  O
  N22      1.0000 0.32240  0.40170  0.19210  Biso   1.000  N
  N23      1.0000 0.33940  0.37640  0.04050  Biso   1.000  N
  N24      1.0000 0.39790  0.51700  0.06480  Biso   1.000  N
  C41      1.0000 0.24130  0.43040  0.99680  Biso   1.000  C
  C42      1.0000 0.29740  0.31800  0.02800  Biso   1.000  C
  C43      1.0000 0.31830  0.35030  0.21360  Biso   1.000  C
  H21      1.0000 0.31580  0.32010  0.18610  Biso   1.000  H
  C44      1.0000 0.38500  0.55390  0.03280  Biso   1.000  C
  H22      1.0000 0.34880  0.54600  0.01460  Biso   1.000  H
  O12      1.0000 0.52940  0.55250  0.13950  Biso   1.000  O
  C45      1.0000 0.26870  0.42950  0.93090  Biso   1.000  C
  H23      1.0000 0.30700  0.43600  0.92490  Biso   1.000  H
  C46      1.0000 0.23600  0.28210  0.05020  Biso   1.000  C
  H24      1.0000 0.21800  0.29700  0.07850  Biso   1.000  H
  C47      1.0000 0.20590  0.22330  0.02600  Biso   1.000  C
  C48      1.0000 0.23020  0.41820  0.88330  Biso   1.000  C
  Br11     1.0000 0.13870  0.16820  0.06370  Biso   1.000  Br
  Br12     1.0000 0.27985  0.41540  0.80144  Biso   1.000  Br
  Co7      1.0000 0.10167  0.43467  0.40079  Biso   1.000  Co
  N25      1.0000 0.17340  0.43230  0.43400  Biso   1.000  N
  O13      1.0000 0.17780  0.50560  0.30570  Biso   1.000  O
  N26      1.0000 0.07930  0.40170  0.30790  Biso   1.000  N
  N27      1.0000 0.03700  0.37640  0.45950  Biso   1.000  N
  N28      1.0000 0.11910  0.51700  0.43520  Biso   1.000  N
  C49      1.0000 0.18910  0.43040  0.50320  Biso   1.000  C
  C50      1.0000 0.02060  0.31800  0.47200  Biso   1.000  C
  C51      1.0000 0.03200  0.35030  0.28640  Biso   1.000  C
  H25      1.0000 0.00430  0.32010  0.31390  Biso   1.000  H
  C52      1.0000 0.16890  0.55390  0.46720  Biso   1.000  C
  H26      1.0000 0.19720  0.54600  0.48540  Biso   1.000  H
  O14      1.0000 0.02310  0.55250  0.36050  Biso   1.000  O
  C53      1.0000 0.16080  0.42950  0.56910  Biso   1.000  C
  H27      1.0000 0.12900  0.43600  0.57510  Biso   1.000  H
  C54      1.0000 0.04610  0.28210  0.44980  Biso   1.000  C
  H28      1.0000 0.07900  0.29700  0.42150  Biso   1.000  H
  C55      1.0000 0.01740  0.22330  0.47400  Biso   1.000  C
  C56      1.0000 0.18800  0.41820  0.61670  Biso   1.000  C
  Br13     1.0000 0.02950  0.16820  0.43630  Biso   1.000  Br
  Br14     1.0000 0.13555  0.41540  0.69856  Biso   1.000  Br
  Co8      1.0000 0.33300  0.89833  0.40079  Biso   1.000  Co
  N29      1.0000 0.25890  0.82660  0.43400  Biso   1.000  N
  O15      1.0000 0.32780  0.82220  0.30570  Biso   1.000  O
  N30      1.0000 0.32240  0.92070  0.30790  Biso   1.000  N
  N31      1.0000 0.33940  0.96300  0.45950  Biso   1.000  N
  N32      1.0000 0.39790  0.88090  0.43520  Biso   1.000  N
  C57      1.0000 0.24130  0.81090  0.50320  Biso   1.000  C
  C58      1.0000 0.29740  0.97940  0.47200  Biso   1.000  C
  C59      1.0000 0.31830  0.96800  0.28640  Biso   1.000  C
  H29      1.0000 0.31580  0.99570  0.31390  Biso   1.000  H
  C60      1.0000 0.38500  0.83110  0.46720  Biso   1.000  C
  H30      1.0000 0.34880  0.80280  0.48540  Biso   1.000  H
  O16      1.0000 0.52940  0.97690  0.36050  Biso   1.000  O
  C61      1.0000 0.26870  0.83920  0.56910  Biso   1.000  C
  H31      1.0000 0.30700  0.87100  0.57510  Biso   1.000  H
  C62      1.0000 0.23600  0.95390  0.44980  Biso   1.000  C
  H32      1.0000 0.21800  0.92100  0.42150  Biso   1.000  H
  C63      1.0000 0.20590  0.98260  0.47400  Biso   1.000  C
  C64      1.0000 0.23020  0.81200  0.61670  Biso   1.000  C
  Br15     1.0000 0.13870  0.97050  0.43630  Biso   1.000  Br
  Br16     1.0000 0.27985  0.86445  0.69856  Biso   1.000  Br
  Co9      1.0000 0.56533  0.66700  0.40079  Biso   1.000  Co
  N33      1.0000 0.56770  0.74110  0.43400  Biso   1.000  N
  O17      1.0000 0.49440  0.67220  0.30570  Biso   1.000  O
  N34      1.0000 0.59830  0.67760  0.30790  Biso   1.000  N
  N35      1.0000 0.62360  0.66060  0.45950  Biso   1.000  N
  N36      1.0000 0.48300  0.60210  0.43520  Biso   1.000  N
  C65      1.0000 0.56960  0.75870  0.50320  Biso   1.000  C
  C66      1.0000 0.68200  0.70260  0.47200  Biso   1.000  C
  C67      1.0000 0.64970  0.68170  0.28640  Biso   1.000  C
  H33      1.0000 0.67990  0.68420  0.31390  Biso   1.000  H
  C68      1.0000 0.44610  0.61500  0.46720  Biso   1.000  C
  H34      1.0000 0.45400  0.65120  0.48540  Biso   1.000  H
  O18      1.0000 0.44750  0.47060  0.36050  Biso   1.000  O
  C69      1.0000 0.57050  0.73130  0.56910  Biso   1.000  C
  H35      1.0000 0.56400  0.69300  0.57510  Biso   1.000  H
  C70      1.0000 0.71790  0.76400  0.44980  Biso   1.000  C
  H36      1.0000 0.70300  0.78200  0.42150  Biso   1.000  H
  C71      1.0000 0.77670  0.79410  0.47400  Biso   1.000  C
  C72      1.0000 0.58180  0.76980  0.61670  Biso   1.000  C
  Br17     1.0000 0.83180  0.86130  0.43630  Biso   1.000  Br
  Br18     1.0000 0.58460  0.72015  0.69856  Biso   1.000  Br
  Co10     1.0000 0.89833  0.56533  0.90079  Biso   1.000  Co
  N37      1.0000 0.82660  0.56770  0.93400  Biso   1.000  N
  O19      1.0000 0.82220  0.49440  0.80570  Biso   1.000  O
  N38      1.0000 0.92070  0.59830  0.80790  Biso   1.000  N
  N39      1.0000 0.96300  0.62360  0.95950  Biso   1.000  N
  N40      1.0000 0.88090  0.48300  0.93520  Biso   1.000  N
  C73      1.0000 0.81090  0.56960  0.00320  Biso   1.000  C
  C74      1.0000 0.97940  0.68200  0.97200  Biso   1.000  C
  C75      1.0000 0.96800  0.64970  0.78640  Biso   1.000  C
  H37      1.0000 0.99570  0.67990  0.81390  Biso   1.000  H
  C76      1.0000 0.83110  0.44610  0.96720  Biso   1.000  C
  H38      1.0000 0.80280  0.45400  0.98540  Biso   1.000  H
  O20      1.0000 0.97690  0.44750  0.86050  Biso   1.000  O
  C77      1.0000 0.83920  0.57050  0.06910  Biso   1.000  C
  H39      1.0000 0.87100  0.56400  0.07510  Biso   1.000  H
  C78      1.0000 0.95390  0.71790  0.94980  Biso   1.000  C
  H40      1.0000 0.92100  0.70300  0.92150  Biso   1.000  H
  C79      1.0000 0.98260  0.77670  0.97400  Biso   1.000  C
  C80      1.0000 0.81200  0.58180  0.11670  Biso   1.000  C
  Br19     1.0000 0.97050  0.83180  0.93630  Biso   1.000  Br
  Br20     1.0000 0.86445  0.58460  0.19856  Biso   1.000  Br
  Co11     1.0000 0.66700  0.10167  0.90079  Biso   1.000  Co
  N41      1.0000 0.74110  0.17340  0.93400  Biso   1.000  N
  O21      1.0000 0.67220  0.17780  0.80570  Biso   1.000  O
  N42      1.0000 0.67760  0.07930  0.80790  Biso   1.000  N
  N43      1.0000 0.66060  0.03700  0.95950  Biso   1.000  N
  N44      1.0000 0.60210  0.11910  0.93520  Biso   1.000  N
  C81      1.0000 0.75870  0.18910  0.00320  Biso   1.000  C
  C82      1.0000 0.70260  0.02060  0.97200  Biso   1.000  C
  C83      1.0000 0.68170  0.03200  0.78640  Biso   1.000  C
  H41      1.0000 0.68420  0.00430  0.81390  Biso   1.000  H
  C84      1.0000 0.61500  0.16890  0.96720  Biso   1.000  C
  H42      1.0000 0.65120  0.19720  0.98540  Biso   1.000  H
  O22      1.0000 0.47060  0.02310  0.86050  Biso   1.000  O
  C85      1.0000 0.73130  0.16080  0.06910  Biso   1.000  C
  H43      1.0000 0.69300  0.12900  0.07510  Biso   1.000  H
  C86      1.0000 0.76400  0.04610  0.94980  Biso   1.000  C
  H44      1.0000 0.78200  0.07900  0.92150  Biso   1.000  H
  C87      1.0000 0.79410  0.01740  0.97400  Biso   1.000  C
  C88      1.0000 0.76980  0.18800  0.11670  Biso   1.000  C
  Br21     1.0000 0.86130  0.02950  0.93630  Biso   1.000  Br
  Br22     1.0000 0.72015  0.13555  0.19856  Biso   1.000  Br
  Co12     1.0000 0.43467  0.33300  0.90079  Biso   1.000  Co
  N45      1.0000 0.43230  0.25890  0.93400  Biso   1.000  N
  O23      1.0000 0.50560  0.32780  0.80570  Biso   1.000  O
  N46      1.0000 0.40170  0.32240  0.80790  Biso   1.000  N
  N47      1.0000 0.37640  0.33940  0.95950  Biso   1.000  N
  N48      1.0000 0.51700  0.39790  0.93520  Biso   1.000  N
  C89      1.0000 0.43040  0.24130  0.00320  Biso   1.000  C
  C90      1.0000 0.31800  0.29740  0.97200  Biso   1.000  C
  C91      1.0000 0.35030  0.31830  0.78640  Biso   1.000  C
  H45      1.0000 0.32010  0.31580  0.81390  Biso   1.000  H
  C92      1.0000 0.55390  0.38500  0.96720  Biso   1.000  C
  H46      1.0000 0.54600  0.34880  0.98540  Biso   1.000  H
  O24      1.0000 0.55250  0.52940  0.86050  Biso   1.000  O
  C93      1.0000 0.42950  0.26870  0.06910  Biso   1.000  C
  H47      1.0000 0.43600  0.30700  0.07510  Biso   1.000  H
  C94      1.0000 0.28210  0.23600  0.94980  Biso   1.000  C
  H48      1.0000 0.29700  0.21800  0.92150  Biso   1.000  H
  C95      1.0000 0.22330  0.20590  0.97400  Biso   1.000  C
  C96      1.0000 0.41820  0.23020  0.11670  Biso   1.000  C
  Br23     1.0000 0.16820  0.13870  0.93630  Biso   1.000  Br
  Br24     1.0000 0.41540  0.27985  0.19856  Biso   1.000  Br
  Co13     1.0000 0.56533  0.89833  0.40079  Biso   1.000  Co
  N49      1.0000 0.56770  0.82660  0.43400  Biso   1.000  N
  O25      1.0000 0.49440  0.82220  0.30570  Biso   1.000  O
  N50      1.0000 0.59830  0.92070  0.30790  Biso   1.000  N
  N51      1.0000 0.62360  0.96300  0.45950  Biso   1.000  N
  N52      1.0000 0.48300  0.88090  0.43520  Biso   1.000  N
  C97      1.0000 0.56960  0.81090  0.50320  Biso   1.000  C
  C98      1.0000 0.68200  0.97940  0.47200  Biso   1.000  C
  C99      1.0000 0.64970  0.96800  0.28640  Biso   1.000  C
  H49      1.0000 0.67990  0.99570  0.31390  Biso   1.000  H
  C100     1.0000 0.44610  0.83110  0.46720  Biso   1.000  C
  H50      1.0000 0.45400  0.80280  0.48540  Biso   1.000  H
  O26      1.0000 0.44750  0.97690  0.36050  Biso   1.000  O
  C101     1.0000 0.57050  0.83920  0.56910  Biso   1.000  C
  H51      1.0000 0.56400  0.87100  0.57510  Biso   1.000  H
  C102     1.0000 0.71790  0.95390  0.44980  Biso   1.000  C
  H52      1.0000 0.70300  0.92100  0.42150  Biso   1.000  H
  C103     1.0000 0.77670  0.98260  0.47400  Biso   1.000  C
  C104     1.0000 0.58180  0.81200  0.61670  Biso   1.000  C
  Br25     1.0000 0.83180  0.97050  0.43630  Biso   1.000  Br
  Br26     1.0000 0.58460  0.86445  0.69856  Biso   1.000  Br
  Co14     1.0000 0.10167  0.66700  0.40079  Biso   1.000  Co
  N53      1.0000 0.17340  0.74110  0.43400  Biso   1.000  N
  O27      1.0000 0.17780  0.67220  0.30570  Biso   1.000  O
  N54      1.0000 0.07930  0.67760  0.30790  Biso   1.000  N
  N55      1.0000 0.03700  0.66060  0.45950  Biso   1.000  N
  N56      1.0000 0.11910  0.60210  0.43520  Biso   1.000  N
  C105     1.0000 0.18910  0.75870  0.50320  Biso   1.000  C
  C106     1.0000 0.02060  0.70260  0.47200  Biso   1.000  C
  C107     1.0000 0.03200  0.68170  0.28640  Biso   1.000  C
  H53      1.0000 0.00430  0.68420  0.31390  Biso   1.000  H
  C108     1.0000 0.16890  0.61500  0.46720  Biso   1.000  C
  H54      1.0000 0.19720  0.65120  0.48540  Biso   1.000  H
  O28      1.0000 0.02310  0.47060  0.36050  Biso   1.000  O
  C109     1.0000 0.16080  0.73130  0.56910  Biso   1.000  C
  H55      1.0000 0.12900  0.69300  0.57510  Biso   1.000  H
  C110     1.0000 0.04610  0.76400  0.44980  Biso   1.000  C
  H56      1.0000 0.07900  0.78200  0.42150  Biso   1.000  H
  C111     1.0000 0.01740  0.79410  0.47400  Biso   1.000  C
  C112     1.0000 0.18800  0.76980  0.61670  Biso   1.000  C
  Br27     1.0000 0.02950  0.86130  0.43630  Biso   1.000  Br
  Br28     1.0000 0.13555  0.72015  0.69856  Biso   1.000  Br
  Co15     1.0000 0.33300  0.43467  0.40079  Biso   1.000  Co
  N57      1.0000 0.25890  0.43230  0.43400  Biso   1.000  N
  O29      1.0000 0.32780  0.50560  0.30570  Biso   1.000  O
  N58      1.0000 0.32240  0.40170  0.30790  Biso   1.000  N
  N59      1.0000 0.33940  0.37640  0.45950  Biso   1.000  N
  N60      1.0000 0.39790  0.51700  0.43520  Biso   1.000  N
  C113     1.0000 0.24130  0.43040  0.50320  Biso   1.000  C
  C114     1.0000 0.29740  0.31800  0.47200  Biso   1.000  C
  C115     1.0000 0.31830  0.35030  0.28640  Biso   1.000  C
  H57      1.0000 0.31580  0.32010  0.31390  Biso   1.000  H
  C116     1.0000 0.38500  0.55390  0.46720  Biso   1.000  C
  H58      1.0000 0.34880  0.54600  0.48540  Biso   1.000  H
  O30      1.0000 0.52940  0.55250  0.36050  Biso   1.000  O
  C117     1.0000 0.26870  0.42950  0.56910  Biso   1.000  C
  H59      1.0000 0.30700  0.43600  0.57510  Biso   1.000  H
  C118     1.0000 0.23600  0.28210  0.44980  Biso   1.000  C
  H60      1.0000 0.21800  0.29700  0.42150  Biso   1.000  H
  C119     1.0000 0.20590  0.22330  0.47400  Biso   1.000  C
  C120     1.0000 0.23020  0.41820  0.61670  Biso   1.000  C
  Br29     1.0000 0.13870  0.16820  0.43630  Biso   1.000  Br
  Br30     1.0000 0.27985  0.41540  0.69856  Biso   1.000  Br
  Co16     1.0000 0.43467  0.10167  0.90079  Biso   1.000  Co
  N61      1.0000 0.43230  0.17340  0.93400  Biso   1.000  N
  O31      1.0000 0.50560  0.17780  0.80570  Biso   1.000  O
  N62      1.0000 0.40170  0.07930  0.80790  Biso   1.000  N
  N63      1.0000 0.37640  0.03700  0.95950  Biso   1.000  N
  N64      1.0000 0.51700  0.11910  0.93520  Biso   1.000  N
  C121     1.0000 0.43040  0.18910  0.00320  Biso   1.000  C
  C122     1.0000 0.31800  0.02060  0.97200  Biso   1.000  C
  C123     1.0000 0.35030  0.03200  0.78640  Biso   1.000  C
  H61      1.0000 0.32010  0.00430  0.81390  Biso   1.000  H
  C124     1.0000 0.55390  0.16890  0.96720  Biso   1.000  C
  H62      1.0000 0.54600  0.19720  0.98540  Biso   1.000  H
  O32      1.0000 0.55250  0.02310  0.86050  Biso   1.000  O
  C125     1.0000 0.42950  0.16080  0.06910  Biso   1.000  C
  H63      1.0000 0.43600  0.12900  0.07510  Biso   1.000  H
  C126     1.0000 0.28210  0.04610  0.94980  Biso   1.000  C
  H64      1.0000 0.29700  0.07900  0.92150  Biso   1.000  H
  C127     1.0000 0.22330  0.01740  0.97400  Biso   1.000  C
  C128     1.0000 0.41820  0.18800  0.11670  Biso   1.000  C
  Br31     1.0000 0.16820  0.02950  0.93630  Biso   1.000  Br
  Br32     1.0000 0.41540  0.13555  0.19856  Biso   1.000  Br
  Co17     1.0000 0.89833  0.33300  0.90079  Biso   1.000  Co
  N65      1.0000 0.82660  0.25890  0.93400  Biso   1.000  N
  O33      1.0000 0.82220  0.32780  0.80570  Biso   1.000  O
  N66      1.0000 0.92070  0.32240  0.80790  Biso   1.000  N
  N67      1.0000 0.96300  0.33940  0.95950  Biso   1.000  N
  N68      1.0000 0.88090  0.39790  0.93520  Biso   1.000  N
  C129     1.0000 0.81090  0.24130  0.00320  Biso   1.000  C
  C130     1.0000 0.97940  0.29740  0.97200  Biso   1.000  C
  C131     1.0000 0.96800  0.31830  0.78640  Biso   1.000  C
  H65      1.0000 0.99570  0.31580  0.81390  Biso   1.000  H
  C132     1.0000 0.83110  0.38500  0.96720  Biso   1.000  C
  H66      1.0000 0.80280  0.34880  0.98540  Biso   1.000  H
  O34      1.0000 0.97690  0.52940  0.86050  Biso   1.000  O
  C133     1.0000 0.83920  0.26870  0.06910  Biso   1.000  C
  H67      1.0000 0.87100  0.30700  0.07510  Biso   1.000  H
  C134     1.0000 0.95390  0.23600  0.94980  Biso   1.000  C
  H68      1.0000 0.92100  0.21800  0.92150  Biso   1.000  H
  C135     1.0000 0.98260  0.20590  0.97400  Biso   1.000  C
  C136     1.0000 0.81200  0.23020  0.11670  Biso   1.000  C
  Br33     1.0000 0.97050  0.13870  0.93630  Biso   1.000  Br
  Br34     1.0000 0.86445  0.27985  0.19856  Biso   1.000  Br
  Co18     1.0000 0.66700  0.56533  0.90079  Biso   1.000  Co
  N69      1.0000 0.74110  0.56770  0.93400  Biso   1.000  N
  O35      1.0000 0.67220  0.49440  0.80570  Biso   1.000  O
  N70      1.0000 0.67760  0.59830  0.80790  Biso   1.000  N
  N71      1.0000 0.66060  0.62360  0.95950  Biso   1.000  N
  N72      1.0000 0.60210  0.48300  0.93520  Biso   1.000  N
  C137     1.0000 0.75870  0.56960  0.00320  Biso   1.000  C
  C138     1.0000 0.70260  0.68200  0.97200  Biso   1.000  C
  C139     1.0000 0.68170  0.64970  0.78640  Biso   1.000  C
  H69      1.0000 0.68420  0.67990  0.81390  Biso   1.000  H
  C140     1.0000 0.61500  0.44610  0.96720  Biso   1.000  C
  H70      1.0000 0.65120  0.45400  0.98540  Biso   1.000  H
  O36      1.0000 0.47060  0.44750  0.86050  Biso   1.000  O
  C141     1.0000 0.73130  0.57050  0.06910  Biso   1.000  C
  H71      1.0000 0.69300  0.56400  0.07510  Biso   1.000  H
  C142     1.0000 0.76400  0.71790  0.94980  Biso   1.000  C
  H72      1.0000 0.78200  0.70300  0.92150  Biso   1.000  H
  C143     1.0000 0.79410  0.77670  0.97400  Biso   1.000  C
  C144     1.0000 0.76980  0.58180  0.11670  Biso   1.000  C
  Br35     1.0000 0.86130  0.83180  0.93630  Biso   1.000  Br
  Br36     1.0000 0.72015  0.58460  0.19856  Biso   1.000  Br
  Co19     1.0000 0.89833  0.56533  0.59921  Biso   1.000  Co
  N73      1.0000 0.82660  0.56770  0.56600  Biso   1.000  N
  O37      1.0000 0.82220  0.49440  0.69430  Biso   1.000  O
  N74      1.0000 0.92070  0.59830  0.69210  Biso   1.000  N
  N75      1.0000 0.96300  0.62360  0.54050  Biso   1.000  N
  N76      1.0000 0.88090  0.48300  0.56480  Biso   1.000  N
  C145     1.0000 0.81090  0.56960  0.49680  Biso   1.000  C
  C146     1.0000 0.97940  0.68200  0.52800  Biso   1.000  C
  C147     1.0000 0.96800  0.64970  0.71360  Biso   1.000  C
  H73      1.0000 0.99570  0.67990  0.68610  Biso   1.000  H
  C148     1.0000 0.83110  0.44610  0.53280  Biso   1.000  C
  H74      1.0000 0.80280  0.45400  0.51460  Biso   1.000  H
  O38      1.0000 0.97690  0.44750  0.63950  Biso   1.000  O
  C149     1.0000 0.83920  0.57050  0.43090  Biso   1.000  C
  H75      1.0000 0.87100  0.56400  0.42490  Biso   1.000  H
  C150     1.0000 0.95390  0.71790  0.55020  Biso   1.000  C
  H76      1.0000 0.92100  0.70300  0.57850  Biso   1.000  H
  C151     1.0000 0.98260  0.77670  0.52600  Biso   1.000  C
  C152     1.0000 0.81200  0.58180  0.38330  Biso   1.000  C
  Br37     1.0000 0.97050  0.83180  0.56370  Biso   1.000  Br
  Br38     1.0000 0.86445  0.58460  0.30144  Biso   1.000  Br
  Co20     1.0000 0.66700  0.10167  0.59921  Biso   1.000  Co
  N77      1.0000 0.74110  0.17340  0.56600  Biso   1.000  N
  O39      1.0000 0.67220  0.17780  0.69430  Biso   1.000  O
  N78      1.0000 0.67760  0.07930  0.69210  Biso   1.000  N
  N79      1.0000 0.66060  0.03700  0.54050  Biso   1.000  N
  N80      1.0000 0.60210  0.11910  0.56480  Biso   1.000  N
  C153     1.0000 0.75870  0.18910  0.49680  Biso   1.000  C
  C154     1.0000 0.70260  0.02060  0.52800  Biso   1.000  C
  C155     1.0000 0.68170  0.03200  0.71360  Biso   1.000  C
  H77      1.0000 0.68420  0.00430  0.68610  Biso   1.000  H
  C156     1.0000 0.61500  0.16890  0.53280  Biso   1.000  C
  H78      1.0000 0.65120  0.19720  0.51460  Biso   1.000  H
  O40      1.0000 0.47060  0.02310  0.63950  Biso   1.000  O
  C157     1.0000 0.73130  0.16080  0.43090  Biso   1.000  C
  H79      1.0000 0.69300  0.12900  0.42490  Biso   1.000  H
  C158     1.0000 0.76400  0.04610  0.55020  Biso   1.000  C
  H80      1.0000 0.78200  0.07900  0.57850  Biso   1.000  H
  C159     1.0000 0.79410  0.01740  0.52600  Biso   1.000  C
  C160     1.0000 0.76980  0.18800  0.38330  Biso   1.000  C
  Br39     1.0000 0.86130  0.02950  0.56370  Biso   1.000  Br
  Br40     1.0000 0.72015  0.13555  0.30144  Biso   1.000  Br
  Co21     1.0000 0.43467  0.33300  0.59921  Biso   1.000  Co
  N81      1.0000 0.43230  0.25890  0.56600  Biso   1.000  N
  O41      1.0000 0.50560  0.32780  0.69430  Biso   1.000  O
  N82      1.0000 0.40170  0.32240  0.69210  Biso   1.000  N
  N83      1.0000 0.37640  0.33940  0.54050  Biso   1.000  N
  N84      1.0000 0.51700  0.39790  0.56480  Biso   1.000  N
  C161     1.0000 0.43040  0.24130  0.49680  Biso   1.000  C
  C162     1.0000 0.31800  0.29740  0.52800  Biso   1.000  C
  C163     1.0000 0.35030  0.31830  0.71360  Biso   1.000  C
  H81      1.0000 0.32010  0.31580  0.68610  Biso   1.000  H
  C164     1.0000 0.55390  0.38500  0.53280  Biso   1.000  C
  H82      1.0000 0.54600  0.34880  0.51460  Biso   1.000  H
  O42      1.0000 0.55250  0.52940  0.63950  Biso   1.000  O
  C165     1.0000 0.42950  0.26870  0.43090  Biso   1.000  C
  H83      1.0000 0.43600  0.30700  0.42490  Biso   1.000  H
  C166     1.0000 0.28210  0.23600  0.55020  Biso   1.000  C
  H84      1.0000 0.29700  0.21800  0.57850  Biso   1.000  H
  C167     1.0000 0.22330  0.20590  0.52600  Biso   1.000  C
  C168     1.0000 0.41820  0.23020  0.38330  Biso   1.000  C
  Br41     1.0000 0.16820  0.13870  0.56370  Biso   1.000  Br
  Br42     1.0000 0.41540  0.27985  0.30144  Biso   1.000  Br
  Co22     1.0000 0.10167  0.43467  0.09921  Biso   1.000  Co
  N85      1.0000 0.17340  0.43230  0.06600  Biso   1.000  N
  O43      1.0000 0.17780  0.50560  0.19430  Biso   1.000  O
  N86      1.0000 0.07930  0.40170  0.19210  Biso   1.000  N
  N87      1.0000 0.03700  0.37640  0.04050  Biso   1.000  N
  N88      1.0000 0.11910  0.51700  0.06480  Biso   1.000  N
  C169     1.0000 0.18910  0.43040  0.99680  Biso   1.000  C
  C170     1.0000 0.02060  0.31800  0.02800  Biso   1.000  C
  C171     1.0000 0.03200  0.35030  0.21360  Biso   1.000  C
  H85      1.0000 0.00430  0.32010  0.18610  Biso   1.000  H
  C172     1.0000 0.16890  0.55390  0.03280  Biso   1.000  C
  H86      1.0000 0.19720  0.54600  0.01460  Biso   1.000  H
  O44      1.0000 0.02310  0.55250  0.13950  Biso   1.000  O
  C173     1.0000 0.16080  0.42950  0.93090  Biso   1.000  C
  H87      1.0000 0.12900  0.43600  0.92490  Biso   1.000  H
  C174     1.0000 0.04610  0.28210  0.05020  Biso   1.000  C
  H88      1.0000 0.07900  0.29700  0.07850  Biso   1.000  H
  C175     1.0000 0.01740  0.22330  0.02600  Biso   1.000  C
  C176     1.0000 0.18800  0.41820  0.88330  Biso   1.000  C
  Br43     1.0000 0.02950  0.16820  0.06370  Biso   1.000  Br
  Br44     1.0000 0.13555  0.41540  0.80144  Biso   1.000  Br
  Co23     1.0000 0.33300  0.89833  0.09921  Biso   1.000  Co
  N89      1.0000 0.25890  0.82660  0.06600  Biso   1.000  N
  O45      1.0000 0.32780  0.82220  0.19430  Biso   1.000  O
  N90      1.0000 0.32240  0.92070  0.19210  Biso   1.000  N
  N91      1.0000 0.33940  0.96300  0.04050  Biso   1.000  N
  N92      1.0000 0.39790  0.88090  0.06480  Biso   1.000  N
  C177     1.0000 0.24130  0.81090  0.99680  Biso   1.000  C
  C178     1.0000 0.29740  0.97940  0.02800  Biso   1.000  C
  C179     1.0000 0.31830  0.96800  0.21360  Biso   1.000  C
  H89      1.0000 0.31580  0.99570  0.18610  Biso   1.000  H
  C180     1.0000 0.38500  0.83110  0.03280  Biso   1.000  C
  H90      1.0000 0.34880  0.80280  0.01460  Biso   1.000  H
  O46      1.0000 0.52940  0.97690  0.13950  Biso   1.000  O
  C181     1.0000 0.26870  0.83920  0.93090  Biso   1.000  C
  H91      1.0000 0.30700  0.87100  0.92490  Biso   1.000  H
  C182     1.0000 0.23600  0.95390  0.05020  Biso   1.000  C
  H92      1.0000 0.21800  0.92100  0.07850  Biso   1.000  H
  C183     1.0000 0.20590  0.98260  0.02600  Biso   1.000  C
  C184     1.0000 0.23020  0.81200  0.88330  Biso   1.000  C
  Br45     1.0000 0.13870  0.97050  0.06370  Biso   1.000  Br
  Br46     1.0000 0.27985  0.86445  0.80144  Biso   1.000  Br
  Co24     1.0000 0.56533  0.66700  0.09921  Biso   1.000  Co
  N93      1.0000 0.56770  0.74110  0.06600  Biso   1.000  N
  O47      1.0000 0.49440  0.67220  0.19430  Biso   1.000  O
  N94      1.0000 0.59830  0.67760  0.19210  Biso   1.000  N
  N95      1.0000 0.62360  0.66060  0.04050  Biso   1.000  N
  N96      1.0000 0.48300  0.60210  0.06480  Biso   1.000  N
  C185     1.0000 0.56960  0.75870  0.99680  Biso   1.000  C
  C186     1.0000 0.68200  0.70260  0.02800  Biso   1.000  C
  C187     1.0000 0.64970  0.68170  0.21360  Biso   1.000  C
  H93      1.0000 0.67990  0.68420  0.18610  Biso   1.000  H
  C188     1.0000 0.44610  0.61500  0.03280  Biso   1.000  C
  H94      1.0000 0.45400  0.65120  0.01460  Biso   1.000  H
  O48      1.0000 0.44750  0.47060  0.13950  Biso   1.000  O
  C189     1.0000 0.57050  0.73130  0.93090  Biso   1.000  C
  H95      1.0000 0.56400  0.69300  0.92490  Biso   1.000  H
  C190     1.0000 0.71790  0.76400  0.05020  Biso   1.000  C
  H96      1.0000 0.70300  0.78200  0.07850  Biso   1.000  H
  C191     1.0000 0.77670  0.79410  0.02600  Biso   1.000  C
  C192     1.0000 0.58180  0.76980  0.88330  Biso   1.000  C
  Br47     1.0000 0.83180  0.86130  0.06370  Biso   1.000  Br
  Br48     1.0000 0.58460  0.72015  0.80144  Biso   1.000  Br
  N97      1.0000 0.48260  0.15840  0.75000  Biso   1.000  N
  C193     1.0000 0.42680  0.10330  0.75000  Biso   1.000  C
  N98      1.0000 0.84160  0.32420  0.75000  Biso   1.000  N
  C194     1.0000 0.89670  0.32350  0.75000  Biso   1.000  C
  N99      1.0000 0.67580  0.51740  0.75000  Biso   1.000  N
  C195     1.0000 0.67650  0.57320  0.75000  Biso   1.000  C
  N100     1.0000 0.51740  0.84160  0.25000  Biso   1.000  N
  C196     1.0000 0.57320  0.89670  0.25000  Biso   1.000  C
  N101     1.0000 0.15840  0.67580  0.25000  Biso   1.000  N
  C197     1.0000 0.10330  0.67650  0.25000  Biso   1.000  C
  N102     1.0000 0.32420  0.48260  0.25000  Biso   1.000  N
  C198     1.0000 0.32350  0.42680  0.25000  Biso   1.000  C
  N103     1.0000 0.15840  0.48260  0.25000  Biso   1.000  N
  C199     1.0000 0.10330  0.42680  0.25000  Biso   1.000  C
  N104     1.0000 0.32420  0.84160  0.25000  Biso   1.000  N
  C200     1.0000 0.32350  0.89670  0.25000  Biso   1.000  C
  N105     1.0000 0.51740  0.67580  0.25000  Biso   1.000  N
  C201     1.0000 0.57320  0.67650  0.25000  Biso   1.000  C
  N106     1.0000 0.84160  0.51740  0.75000  Biso   1.000  N
  C202     1.0000 0.89670  0.57320  0.75000  Biso   1.000  C
  N107     1.0000 0.67580  0.15840  0.75000  Biso   1.000  N
  C203     1.0000 0.67650  0.10330  0.75000  Biso   1.000  C
  N108     1.0000 0.48260  0.32420  0.75000  Biso   1.000  N
  C204     1.0000 0.42680  0.32350  0.75000  Biso   1.000  C
  C205     1.0000 0.43450  0.21725  0.60430  Biso   1.000  C
  H97      1.0000 0.43720  0.21860  0.65130  Biso   1.000  H
  C206     1.0000 0.78275  0.21725  0.60430  Biso   1.000  C
  H98      1.0000 0.78140  0.21860  0.65130  Biso   1.000  H
  C207     1.0000 0.78275  0.56550  0.60430  Biso   1.000  C
  H99      1.0000 0.78140  0.56280  0.65130  Biso   1.000  H
  C208     1.0000 0.56550  0.78275  0.10430  Biso   1.000  C
  H100     1.0000 0.56280  0.78140  0.15130  Biso   1.000  H
  C209     1.0000 0.21725  0.78275  0.10430  Biso   1.000  C
  H101     1.0000 0.21860  0.78140  0.15130  Biso   1.000  H
  C210     1.0000 0.21725  0.43450  0.10430  Biso   1.000  C
  H102     1.0000 0.21860  0.43720  0.15130  Biso   1.000  H
  C211     1.0000 0.21725  0.43450  0.39570  Biso   1.000  C
  H103     1.0000 0.21860  0.43720  0.34870  Biso   1.000  H
  C212     1.0000 0.21725  0.78275  0.39570  Biso   1.000  C
  H104     1.0000 0.21860  0.78140  0.34870  Biso   1.000  H
  C213     1.0000 0.56550  0.78275  0.39570  Biso   1.000  C
  H105     1.0000 0.56280  0.78140  0.34870  Biso   1.000  H
  C214     1.0000 0.78275  0.56550  0.89570  Biso   1.000  C
  H106     1.0000 0.78140  0.56280  0.84870  Biso   1.000  H
  C215     1.0000 0.78275  0.21725  0.89570  Biso   1.000  C
  H107     1.0000 0.78140  0.21860  0.84870  Biso   1.000  H
  C216     1.0000 0.43450  0.21725  0.89570  Biso   1.000  C
  H108     1.0000 0.43720  0.21860  0.84870  Biso   1.000  H
  C217     1.0000 0.54685  0.09370  0.59050  Biso   1.000  C
  N109     1.0000 0.51840  0.03680  0.62470  Biso   1.000  N
  C218     1.0000 0.90630  0.45315  0.59050  Biso   1.000  C
  N110     1.0000 0.96320  0.48160  0.62470  Biso   1.000  N
  C219     1.0000 0.54685  0.45315  0.59050  Biso   1.000  C
  N111     1.0000 0.51840  0.48160  0.62470  Biso   1.000  N
  C220     1.0000 0.45315  0.90630  0.09050  Biso   1.000  C
  N112     1.0000 0.48160  0.96320  0.12470  Biso   1.000  N
  C221     1.0000 0.09370  0.54685  0.09050  Biso   1.000  C
  N113     1.0000 0.03680  0.51840  0.12470  Biso   1.000  N
  C222     1.0000 0.45315  0.54685  0.09050  Biso   1.000  C
  N114     1.0000 0.48160  0.51840  0.12470  Biso   1.000  N
  C223     1.0000 0.09370  0.54685  0.40950  Biso   1.000  C
  N115     1.0000 0.03680  0.51840  0.37530  Biso   1.000  N
  C224     1.0000 0.45315  0.90630  0.40950  Biso   1.000  C
  N116     1.0000 0.48160  0.96320  0.37530  Biso   1.000  N
  C225     1.0000 0.45315  0.54685  0.40950  Biso   1.000  C
  N117     1.0000 0.48160  0.51840  0.37530  Biso   1.000  N
  C226     1.0000 0.90630  0.45315  0.90950  Biso   1.000  C
  N118     1.0000 0.96320  0.48160  0.87530  Biso   1.000  N
  C227     1.0000 0.54685  0.09370  0.90950  Biso   1.000  C
  N119     1.0000 0.51840  0.03680  0.87530  Biso   1.000  N
  C228     1.0000 0.54685  0.45315  0.90950  Biso   1.000  C
  N120     1.0000 0.51840  0.48160  0.87530  Biso   1.000  N
  C229     1.0000 0.38640  0.00000  0.50000  Biso   1.000  C
  H109     1.0000 0.42220  0.00000  0.50000  Biso   1.000  H
  C230     1.0000 0.00000  0.38640  0.50000  Biso   1.000  C
  H110     1.0000 0.00000  0.42220  0.50000  Biso   1.000  H
  C231     1.0000 0.61360  0.61360  0.50000  Biso   1.000  C
  H111     1.0000 0.57780  0.57780  0.50000  Biso   1.000  H
  C232     1.0000 0.61360  0.00000  0.00000  Biso   1.000  C
  H112     1.0000 0.57780  0.00000  0.00000  Biso   1.000  H
  C233     1.0000 0.00000  0.61360  0.00000  Biso   1.000  C
  H113     1.0000 0.00000  0.57780  0.00000  Biso   1.000  H
  C234     1.0000 0.38640  0.38640  0.00000  Biso   1.000  C
  H114     1.0000 0.42220  0.42220  0.00000  Biso   1.000  H
  C235     1.0000 0.61360  0.00000  0.50000  Biso   1.000  C
  H115     1.0000 0.57780  0.00000  0.50000  Biso   1.000  H
  C236     1.0000 0.00000  0.61360  0.50000  Biso   1.000  C
  H116     1.0000 0.00000  0.57780  0.50000  Biso   1.000  H
  C237     1.0000 0.38640  0.38640  0.50000  Biso   1.000  C
  H117     1.0000 0.42220  0.42220  0.50000  Biso   1.000  H
  C238     1.0000 0.38640  0.00000  0.00000  Biso   1.000  C
  H118     1.0000 0.42220  0.00000  0.00000  Biso   1.000  H
  C239     1.0000 0.00000  0.38640  0.00000  Biso   1.000  C
  H119     1.0000 0.00000  0.42220  0.00000  Biso   1.000  H
  C240     1.0000 0.61360  0.61360  0.00000  Biso   1.000  C
  H120     1.0000 0.57780  0.57780  0.00000  Biso   1.000  H
