data_image0
_cell_length_a       8.2222
_cell_length_b       16.2247
_cell_length_c       16.4614
_cell_angle_alpha    93.275
_cell_angle_beta     95.797
_cell_angle_gamma    97.895

_symmetry_space_group_name_H-M    "P 1"
_symmetry_int_tables_number       1

loop_
  _symmetry_equiv_pos_as_xyz
  'x, y, z'

loop_
  _atom_site_label
  _atom_site_occupancy
  _atom_site_fract_x
  _atom_site_fract_y
  _atom_site_fract_z
  _atom_site_thermal_displace_type
  _atom_site_B_iso_or_equiv
  _atom_site_type_symbol
  Ag1      1.0000 0.54569  0.76279  0.68416  Biso   1.000  Ag
  Ag2      1.0000 0.47232  0.36038  0.72300  Biso   1.000  Ag
  C1       1.0000 0.54130  0.58100  0.74000  Biso   1.000  C
  C2       1.0000 0.55280  0.59900  0.82940  Biso   1.000  C
  C3       1.0000 0.42930  0.56150  0.87290  Biso   1.000  C
  H1       1.0000 0.34350  0.52340  0.84580  Biso   1.000  H
  C4       1.0000 0.43340  0.58060  0.95630  Biso   1.000  C
  H2       1.0000 0.34810  0.55810  0.98500  Biso   1.000  H
  C5       1.0000 0.56750  0.63390  0.99570  Biso   1.000  C
  C6       1.0000 0.69390  0.67160  0.95300  Biso   1.000  C
  H3       1.0000 0.78220  0.70760  0.98090  Biso   1.000  H
  C7       1.0000 0.68650  0.65510  0.86940  Biso   1.000  C
  H4       1.0000 0.76820  0.68050  0.84010  Biso   1.000  H
  C8       1.0000 0.56890  0.65020  0.08380  Biso   1.000  C
  C9       1.0000 0.50640  0.72130  0.45840  Biso   1.000  C
  C10      1.0000 0.50720  0.80480  0.42610  Biso   1.000  C
  C11      1.0000 0.40040  0.85670  0.45660  Biso   1.000  C
  H5       1.0000 0.33400  0.83910  0.49660  Biso   1.000  H
  C12      1.0000 0.39500  0.93450  0.42630  Biso   1.000  C
  H6       1.0000 0.32350  0.96870  0.44580  Biso   1.000  H
  C13      1.0000 0.49470  0.96170  0.36750  Biso   1.000  C
  C14      1.0000 0.60370  0.91000  0.33780  Biso   1.000  C
  H7       1.0000 0.67200  0.92790  0.29870  Biso   1.000  H
  C15      1.0000 0.60740  0.83200  0.36780  Biso   1.000  C
  H8       1.0000 0.67850  0.79750  0.34840  Biso   1.000  H
  C16      1.0000 0.48850  0.04360  0.34050  Biso   1.000  C
  N1       1.0000 0.56480  0.65950  0.15250  Biso   1.000  N
  N2       1.0000 0.48050  0.10950  0.32020  Biso   1.000  N
  O1       1.0000 0.46230  0.51200  0.70770  Biso   1.000  O
  O2       1.0000 0.61130  0.63490  0.69630  Biso   1.000  O
  O3       1.0000 0.47470  0.71020  0.52970  Biso   1.000  O
  O4       1.0000 0.54150  0.66160  0.41190  Biso   1.000  O
  Ag3      1.0000 0.45431  0.23721  0.31584  Biso   1.000  Ag
  Ag4      1.0000 0.52768  0.63962  0.27700  Biso   1.000  Ag
  C17      1.0000 0.45870  0.41900  0.26000  Biso   1.000  C
  C18      1.0000 0.44720  0.40100  0.17060  Biso   1.000  C
  C19      1.0000 0.57070  0.43850  0.12710  Biso   1.000  C
  H9       1.0000 0.65650  0.47660  0.15420  Biso   1.000  H
  C20      1.0000 0.56660  0.41940  0.04370  Biso   1.000  C
  H10      1.0000 0.65190  0.44190  0.01500  Biso   1.000  H
  C21      1.0000 0.43250  0.36610  0.00430  Biso   1.000  C
  C22      1.0000 0.30610  0.32840  0.04700  Biso   1.000  C
  H11      1.0000 0.21780  0.29240  0.01910  Biso   1.000  H
  C23      1.0000 0.31350  0.34490  0.13060  Biso   1.000  C
  H12      1.0000 0.23180  0.31950  0.15990  Biso   1.000  H
  C24      1.0000 0.43110  0.34980  0.91620  Biso   1.000  C
  C25      1.0000 0.49360  0.27870  0.54160  Biso   1.000  C
  C26      1.0000 0.49280  0.19520  0.57390  Biso   1.000  C
  C27      1.0000 0.59960  0.14330  0.54340  Biso   1.000  C
  H13      1.0000 0.66600  0.16090  0.50340  Biso   1.000  H
  C28      1.0000 0.60500  0.06550  0.57370  Biso   1.000  C
  H14      1.0000 0.67650  0.03130  0.55420  Biso   1.000  H
  C29      1.0000 0.50530  0.03830  0.63250  Biso   1.000  C
  C30      1.0000 0.39630  0.09000  0.66220  Biso   1.000  C
  H15      1.0000 0.32800  0.07210  0.70130  Biso   1.000  H
  C31      1.0000 0.39260  0.16800  0.63220  Biso   1.000  C
  H16      1.0000 0.32150  0.20250  0.65160  Biso   1.000  H
  C32      1.0000 0.51150  0.95640  0.65950  Biso   1.000  C
  N3       1.0000 0.43520  0.34050  0.84750  Biso   1.000  N
  N4       1.0000 0.51950  0.89050  0.67980  Biso   1.000  N
  O5       1.0000 0.53770  0.48800  0.29230  Biso   1.000  O
  O6       1.0000 0.38870  0.36510  0.30370  Biso   1.000  O
  O7       1.0000 0.52530  0.28980  0.47030  Biso   1.000  O
  O8       1.0000 0.45850  0.33840  0.58810  Biso   1.000  O
  Ag5      1.0000 0.52053  0.56661  0.55714  Biso   1.000  Ag
  Ag6      1.0000 0.86810  0.60514  0.63444  Biso   1.000  Ag
  Ag7      1.0000 0.81738  0.41957  0.60770  Biso   1.000  Ag
  Ag8      1.0000 0.81583  0.34626  0.44151  Biso   1.000  Ag
  Ag9      1.0000 0.83327  0.49037  0.34775  Biso   1.000  Ag
  Ag10     1.0000 0.84632  0.63660  0.45633  Biso   1.000  Ag
  C33      1.0000 0.76460  0.52530  0.52600  Biso   1.000  C
  C34      1.0000 0.77060  0.47290  0.47050  Biso   1.000  C
  C35      1.0000 0.03540  0.73200  0.32880  Biso   1.000  C
  C36      1.0000 0.03750  0.79970  0.26820  Biso   1.000  C
  C37      1.0000 0.05340  0.53840  0.21200  Biso   1.000  C
  C38      1.0000 0.05980  0.54930  0.12030  Biso   1.000  C
  F1       1.0000 0.01440  0.87360  0.30910  Biso   1.000  F
  F2       1.0000 0.91830  0.79530  0.21680  Biso   1.000  F
  F3       1.0000 0.18390  0.82450  0.24560  Biso   1.000  F
  F4       1.0000 0.95800  0.59400  0.09100  Biso   1.000  F
  F5       1.0000 0.19600  0.56190  0.09530  Biso   1.000  F
  F6       1.0000 0.99400  0.47090  0.08140  Biso   1.000  F
  O9       1.0000 0.89820  0.71370  0.35370  Biso   1.000  O
  O10      1.0000 0.16340  0.70260  0.34190  Biso   1.000  O
  O11      1.0000 0.91370  0.53120  0.23440  Biso   1.000  O
  O12      1.0000 0.19040  0.53600  0.25400  Biso   1.000  O
  F7       1.0000 0.15900  0.63090  0.11410  Biso   1.000  F
  F8       1.0000 0.16000  0.51190  0.08840  Biso   1.000  F
  F9       1.0000 0.92800  0.56000  0.08100  Biso   1.000  F
  F10      1.0000 0.98500  0.75000  0.19000  Biso   1.000  F
  Ag11     1.0000 0.47947  0.43339  0.44286  Biso   1.000  Ag
  Ag12     1.0000 0.13190  0.39486  0.36556  Biso   1.000  Ag
  Ag13     1.0000 0.18262  0.58043  0.39230  Biso   1.000  Ag
  Ag14     1.0000 0.18417  0.65374  0.55849  Biso   1.000  Ag
  Ag15     1.0000 0.16673  0.50963  0.65225  Biso   1.000  Ag
  Ag16     1.0000 0.15368  0.36340  0.54367  Biso   1.000  Ag
  C39      1.0000 0.23540  0.47470  0.47400  Biso   1.000  C
  C40      1.0000 0.22940  0.52710  0.52950  Biso   1.000  C
  C41      1.0000 0.96460  0.26800  0.67120  Biso   1.000  C
  C42      1.0000 0.96250  0.20030  0.73180  Biso   1.000  C
  C43      1.0000 0.94660  0.46160  0.78800  Biso   1.000  C
  C44      1.0000 0.94020  0.45070  0.87970  Biso   1.000  C
  F11      1.0000 0.98560  0.12640  0.69090  Biso   1.000  F
  F12      1.0000 0.08170  0.20470  0.78320  Biso   1.000  F
  F13      1.0000 0.81610  0.17550  0.75440  Biso   1.000  F
  F14      1.0000 0.04200  0.40600  0.90900  Biso   1.000  F
  F15      1.0000 0.80400  0.43810  0.90470  Biso   1.000  F
  F16      1.0000 0.00600  0.52910  0.91860  Biso   1.000  F
  O13      1.0000 0.10180  0.28630  0.64630  Biso   1.000  O
  O14      1.0000 0.83660  0.29740  0.65810  Biso   1.000  O
  O15      1.0000 0.08630  0.46880  0.76560  Biso   1.000  O
  O16      1.0000 0.80960  0.46400  0.74600  Biso   1.000  O
  F17      1.0000 0.84100  0.36910  0.88590  Biso   1.000  F
  F18      1.0000 0.84000  0.48810  0.91160  Biso   1.000  F
  F19      1.0000 0.07200  0.44000  0.91900  Biso   1.000  F
  F20      1.0000 0.01500  0.25000  0.81000  Biso   1.000  F
