data_image0
_cell_length_a       19.8943
_cell_length_b       26.2204
_cell_length_c       17.9454
_cell_angle_alpha    90
_cell_angle_beta     119.636
_cell_angle_gamma    90

_symmetry_space_group_name_H-M    "P 1"
_symmetry_int_tables_number       1

loop_
  _symmetry_equiv_pos_as_xyz
  'x, y, z'

loop_
  _atom_site_label
  _atom_site_occupancy
  _atom_site_fract_x
  _atom_site_fract_y
  _atom_site_fract_z
  _atom_site_thermal_displace_type
  _atom_site_B_iso_or_equiv
  _atom_site_type_symbol
  Ag1      1.0000 0.13908  0.05477  0.20142  Biso   1.000  Ag
  Ag2      1.0000 0.85293  0.06247  0.06745  Biso   1.000  Ag
  Ag3      1.0000 0.88510  0.96419  0.13011  Biso   1.000  Ag
  Ag4      1.0000 0.04091  0.93599  0.15269  Biso   1.000  Ag
  Ag5      1.0000 0.08234  0.00443  0.04173  Biso   1.000  Ag
  Ag6      1.0000 0.00439  0.10996  0.07575  Biso   1.000  Ag
  C1       1.0000 0.96140  0.01740  0.11810  Biso   1.000  C
  C2       1.0000 0.02240  0.02560  0.11700  Biso   1.000  C
  C3       1.0000 0.13470  0.15250  0.29830  Biso   1.000  C
  C4       1.0000 0.15960  0.20760  0.33230  Biso   1.000  C
  C5       1.0000 0.74270  0.97940  0.14340  Biso   1.000  C
  C6       1.0000 0.65610  0.97090  0.11740  Biso   1.000  C
  C7       1.0000 0.25030  0.03790  0.11990  Biso   1.000  C
  C8       1.0000 0.33200  0.03970  0.12840  Biso   1.000  C
  C9       1.0000 0.67940  0.11300  0.99020  Biso   1.000  C
  C10      1.0000 0.60450  0.13660  0.94460  Biso   1.000  C
  C11      1.0000 0.54170  0.10770  0.89090  Biso   1.000  C
  H1       1.0000 0.54710  0.07300  0.88440  Biso   1.000  H
  C12      1.0000 0.46990  0.13110  0.84610  Biso   1.000  C
  H2       1.0000 0.42690  0.11170  0.80970  Biso   1.000  H
  C13      1.0000 0.46130  0.18120  0.85460  Biso   1.000  C
  H3       1.0000 0.41270  0.19610  0.82430  Biso   1.000  H
  C14      1.0000 0.52590  0.21140  0.90930  Biso   1.000  C
  C15      1.0000 0.59810  0.18840  0.95450  Biso   1.000  C
  H4       1.0000 0.64150  0.20760  0.99070  Biso   1.000  H
  C16      1.0000 0.51750  0.26470  0.91520  Biso   1.000  C
  F1       1.0000 0.20780  0.22610  0.31370  Biso   1.000  F
  F2       1.0000 0.10010  0.23923  0.30140  Biso   1.000  F
  F3       1.0000 0.18690  0.20970  0.41580  Biso   1.000  F
  F4       1.0000 0.62670  0.92860  0.07770  Biso   1.000  F
  F5       1.0000 0.64580  0.97420  0.18280  Biso   1.000  F
  F6       1.0000 0.61130  0.00980  0.06270  Biso   1.000  F
  F7       1.0000 0.33860  0.01160  0.07180  Biso   1.000  F
  F8       1.0000 0.38450  0.02670  0.20280  Biso   1.000  F
  F9       1.0000 0.34670  0.08470  0.11240  Biso   1.000  F
  N1       1.0000 0.73880  0.09490  0.02460  Biso   1.000  N
  N2       1.0000 0.51000  0.30790  0.91740  Biso   1.000  N
  O1       1.0000 0.16440  0.13583  0.25800  Biso   1.000  O
  O2       1.0000 0.08800  0.13267  0.31700  Biso   1.000  O
  O3       1.0000 0.76500  0.02228  0.16870  Biso   1.000  O
  O4       1.0000 0.77570  0.94282  0.13080  Biso   1.000  O
  O5       1.0000 0.20410  0.00790  0.06370  Biso   1.000  O
  O6       1.0000 0.24080  0.06580  0.16850  Biso   1.000  O
  F10      1.0000 0.36890  0.99360  0.16180  Biso   1.000  F
  F11      1.0000 0.37740  0.07180  0.17830  Biso   1.000  F
  F12      1.0000 0.33050  0.04330  0.05710  Biso   1.000  F
  Ag7      1.0000 0.63908  0.55477  0.20142  Biso   1.000  Ag
  Ag8      1.0000 0.35293  0.56247  0.06745  Biso   1.000  Ag
  Ag9      1.0000 0.38510  0.46419  0.13011  Biso   1.000  Ag
  Ag10     1.0000 0.54091  0.43599  0.15269  Biso   1.000  Ag
  Ag11     1.0000 0.58234  0.50443  0.04173  Biso   1.000  Ag
  Ag12     1.0000 0.50439  0.60996  0.07575  Biso   1.000  Ag
  C17      1.0000 0.46140  0.51740  0.11810  Biso   1.000  C
  C18      1.0000 0.52240  0.52560  0.11700  Biso   1.000  C
  C19      1.0000 0.63470  0.65250  0.29830  Biso   1.000  C
  C20      1.0000 0.65960  0.70760  0.33230  Biso   1.000  C
  C21      1.0000 0.24270  0.47940  0.14340  Biso   1.000  C
  C22      1.0000 0.15610  0.47090  0.11740  Biso   1.000  C
  C23      1.0000 0.75030  0.53790  0.11990  Biso   1.000  C
  C24      1.0000 0.83200  0.53970  0.12840  Biso   1.000  C
  C25      1.0000 0.17940  0.61300  0.99020  Biso   1.000  C
  C26      1.0000 0.10450  0.63660  0.94460  Biso   1.000  C
  C27      1.0000 0.04170  0.60770  0.89090  Biso   1.000  C
  H5       1.0000 0.04710  0.57300  0.88440  Biso   1.000  H
  C28      1.0000 0.96990  0.63110  0.84610  Biso   1.000  C
  H6       1.0000 0.92690  0.61170  0.80970  Biso   1.000  H
  C29      1.0000 0.96130  0.68120  0.85460  Biso   1.000  C
  H7       1.0000 0.91270  0.69610  0.82430  Biso   1.000  H
  C30      1.0000 0.02590  0.71140  0.90930  Biso   1.000  C
  C31      1.0000 0.09810  0.68840  0.95450  Biso   1.000  C
  H8       1.0000 0.14150  0.70760  0.99070  Biso   1.000  H
  C32      1.0000 0.01750  0.76470  0.91520  Biso   1.000  C
  F13      1.0000 0.70780  0.72610  0.31370  Biso   1.000  F
  F14      1.0000 0.60010  0.73923  0.30140  Biso   1.000  F
  F15      1.0000 0.68690  0.70970  0.41580  Biso   1.000  F
  F16      1.0000 0.12670  0.42860  0.07770  Biso   1.000  F
  F17      1.0000 0.14580  0.47420  0.18280  Biso   1.000  F
  F18      1.0000 0.11130  0.50980  0.06270  Biso   1.000  F
  F19      1.0000 0.83860  0.51160  0.07180  Biso   1.000  F
  F20      1.0000 0.88450  0.52670  0.20280  Biso   1.000  F
  F21      1.0000 0.84670  0.58470  0.11240  Biso   1.000  F
  N3       1.0000 0.23880  0.59490  0.02460  Biso   1.000  N
  N4       1.0000 0.01000  0.80790  0.91740  Biso   1.000  N
  O7       1.0000 0.66440  0.63583  0.25800  Biso   1.000  O
  O8       1.0000 0.58800  0.63267  0.31700  Biso   1.000  O
  O9       1.0000 0.26500  0.52228  0.16870  Biso   1.000  O
  O10      1.0000 0.27570  0.44282  0.13080  Biso   1.000  O
  O11      1.0000 0.70410  0.50790  0.06370  Biso   1.000  O
  O12      1.0000 0.74080  0.56580  0.16850  Biso   1.000  O
  F22      1.0000 0.86890  0.49360  0.16180  Biso   1.000  F
  F23      1.0000 0.87740  0.57180  0.17830  Biso   1.000  F
  F24      1.0000 0.83050  0.54330  0.05710  Biso   1.000  F
  Ag13     1.0000 0.86092  0.05477  0.29858  Biso   1.000  Ag
  Ag14     1.0000 0.14707  0.06247  0.43255  Biso   1.000  Ag
  Ag15     1.0000 0.11490  0.96419  0.36989  Biso   1.000  Ag
  Ag16     1.0000 0.95909  0.93599  0.34731  Biso   1.000  Ag
  Ag17     1.0000 0.91766  0.00443  0.45827  Biso   1.000  Ag
  Ag18     1.0000 0.99561  0.10996  0.42425  Biso   1.000  Ag
  C33      1.0000 0.03860  0.01740  0.38190  Biso   1.000  C
  C34      1.0000 0.97760  0.02560  0.38300  Biso   1.000  C
  C35      1.0000 0.86530  0.15250  0.20170  Biso   1.000  C
  C36      1.0000 0.84040  0.20760  0.16770  Biso   1.000  C
  C37      1.0000 0.25730  0.97940  0.35660  Biso   1.000  C
  C38      1.0000 0.34390  0.97090  0.38260  Biso   1.000  C
  C39      1.0000 0.74970  0.03790  0.38010  Biso   1.000  C
  C40      1.0000 0.66800  0.03970  0.37160  Biso   1.000  C
  C41      1.0000 0.32060  0.11300  0.50980  Biso   1.000  C
  C42      1.0000 0.39550  0.13660  0.55540  Biso   1.000  C
  C43      1.0000 0.45830  0.10770  0.60910  Biso   1.000  C
  H9       1.0000 0.45290  0.07300  0.61560  Biso   1.000  H
  C44      1.0000 0.53010  0.13110  0.65390  Biso   1.000  C
  H10      1.0000 0.57310  0.11170  0.69030  Biso   1.000  H
  C45      1.0000 0.53870  0.18120  0.64540  Biso   1.000  C
  H11      1.0000 0.58730  0.19610  0.67570  Biso   1.000  H
  C46      1.0000 0.47410  0.21140  0.59070  Biso   1.000  C
  C47      1.0000 0.40190  0.18840  0.54550  Biso   1.000  C
  H12      1.0000 0.35850  0.20760  0.50930  Biso   1.000  H
  C48      1.0000 0.48250  0.26470  0.58480  Biso   1.000  C
  F25      1.0000 0.79220  0.22610  0.18630  Biso   1.000  F
  F26      1.0000 0.89990  0.23923  0.19860  Biso   1.000  F
  F27      1.0000 0.81310  0.20970  0.08420  Biso   1.000  F
  F28      1.0000 0.37330  0.92860  0.42230  Biso   1.000  F
  F29      1.0000 0.35420  0.97420  0.31720  Biso   1.000  F
  F30      1.0000 0.38870  0.00980  0.43730  Biso   1.000  F
  F31      1.0000 0.66140  0.01160  0.42820  Biso   1.000  F
  F32      1.0000 0.61550  0.02670  0.29720  Biso   1.000  F
  F33      1.0000 0.65330  0.08470  0.38760  Biso   1.000  F
  N5       1.0000 0.26120  0.09490  0.47540  Biso   1.000  N
  N6       1.0000 0.49000  0.30790  0.58260  Biso   1.000  N
  O13      1.0000 0.83560  0.13583  0.24200  Biso   1.000  O
  O14      1.0000 0.91200  0.13267  0.18300  Biso   1.000  O
  O15      1.0000 0.23500  0.02228  0.33130  Biso   1.000  O
  O16      1.0000 0.22430  0.94282  0.36920  Biso   1.000  O
  O17      1.0000 0.79590  0.00790  0.43630  Biso   1.000  O
  O18      1.0000 0.75920  0.06580  0.33150  Biso   1.000  O
  F34      1.0000 0.63110  0.99360  0.33820  Biso   1.000  F
  F35      1.0000 0.62260  0.07180  0.32170  Biso   1.000  F
  F36      1.0000 0.66950  0.04330  0.44290  Biso   1.000  F
  Ag19     1.0000 0.36092  0.55477  0.29858  Biso   1.000  Ag
  Ag20     1.0000 0.64707  0.56247  0.43255  Biso   1.000  Ag
  Ag21     1.0000 0.61490  0.46419  0.36989  Biso   1.000  Ag
  Ag22     1.0000 0.45909  0.43599  0.34731  Biso   1.000  Ag
  Ag23     1.0000 0.41766  0.50443  0.45827  Biso   1.000  Ag
  Ag24     1.0000 0.49561  0.60996  0.42425  Biso   1.000  Ag
  C49      1.0000 0.53860  0.51740  0.38190  Biso   1.000  C
  C50      1.0000 0.47760  0.52560  0.38300  Biso   1.000  C
  C51      1.0000 0.36530  0.65250  0.20170  Biso   1.000  C
  C52      1.0000 0.34040  0.70760  0.16770  Biso   1.000  C
  C53      1.0000 0.75730  0.47940  0.35660  Biso   1.000  C
  C54      1.0000 0.84390  0.47090  0.38260  Biso   1.000  C
  C55      1.0000 0.24970  0.53790  0.38010  Biso   1.000  C
  C56      1.0000 0.16800  0.53970  0.37160  Biso   1.000  C
  C57      1.0000 0.82060  0.61300  0.50980  Biso   1.000  C
  C58      1.0000 0.89550  0.63660  0.55540  Biso   1.000  C
  C59      1.0000 0.95830  0.60770  0.60910  Biso   1.000  C
  H13      1.0000 0.95290  0.57300  0.61560  Biso   1.000  H
  C60      1.0000 0.03010  0.63110  0.65390  Biso   1.000  C
  H14      1.0000 0.07310  0.61170  0.69030  Biso   1.000  H
  C61      1.0000 0.03870  0.68120  0.64540  Biso   1.000  C
  H15      1.0000 0.08730  0.69610  0.67570  Biso   1.000  H
  C62      1.0000 0.97410  0.71140  0.59070  Biso   1.000  C
  C63      1.0000 0.90190  0.68840  0.54550  Biso   1.000  C
  H16      1.0000 0.85850  0.70760  0.50930  Biso   1.000  H
  C64      1.0000 0.98250  0.76470  0.58480  Biso   1.000  C
  F37      1.0000 0.29220  0.72610  0.18630  Biso   1.000  F
  F38      1.0000 0.39990  0.73923  0.19860  Biso   1.000  F
  F39      1.0000 0.31310  0.70970  0.08420  Biso   1.000  F
  F40      1.0000 0.87330  0.42860  0.42230  Biso   1.000  F
  F41      1.0000 0.85420  0.47420  0.31720  Biso   1.000  F
  F42      1.0000 0.88870  0.50980  0.43730  Biso   1.000  F
  F43      1.0000 0.16140  0.51160  0.42820  Biso   1.000  F
  F44      1.0000 0.11550  0.52670  0.29720  Biso   1.000  F
  F45      1.0000 0.15330  0.58470  0.38760  Biso   1.000  F
  N7       1.0000 0.76120  0.59490  0.47540  Biso   1.000  N
  N8       1.0000 0.99000  0.80790  0.58260  Biso   1.000  N
  O19      1.0000 0.33560  0.63583  0.24200  Biso   1.000  O
  O20      1.0000 0.41200  0.63267  0.18300  Biso   1.000  O
  O21      1.0000 0.73500  0.52228  0.33130  Biso   1.000  O
  O22      1.0000 0.72430  0.44282  0.36920  Biso   1.000  O
  O23      1.0000 0.29590  0.50790  0.43630  Biso   1.000  O
  O24      1.0000 0.25920  0.56580  0.33150  Biso   1.000  O
  F46      1.0000 0.13110  0.49360  0.33820  Biso   1.000  F
  F47      1.0000 0.12260  0.57180  0.32170  Biso   1.000  F
  F48      1.0000 0.16950  0.54330  0.44290  Biso   1.000  F
  Ag25     1.0000 0.86092  0.94522  0.79858  Biso   1.000  Ag
  Ag26     1.0000 0.14707  0.93753  0.93255  Biso   1.000  Ag
  Ag27     1.0000 0.11490  0.03581  0.86989  Biso   1.000  Ag
  Ag28     1.0000 0.95909  0.06401  0.84731  Biso   1.000  Ag
  Ag29     1.0000 0.91766  0.99557  0.95827  Biso   1.000  Ag
  Ag30     1.0000 0.99561  0.89004  0.92425  Biso   1.000  Ag
  C65      1.0000 0.03860  0.98260  0.88190  Biso   1.000  C
  C66      1.0000 0.97760  0.97440  0.88300  Biso   1.000  C
  C67      1.0000 0.86530  0.84750  0.70170  Biso   1.000  C
  C68      1.0000 0.84040  0.79240  0.66770  Biso   1.000  C
  C69      1.0000 0.25730  0.02060  0.85660  Biso   1.000  C
  C70      1.0000 0.34390  0.02910  0.88260  Biso   1.000  C
  C71      1.0000 0.74970  0.96210  0.88010  Biso   1.000  C
  C72      1.0000 0.66800  0.96030  0.87160  Biso   1.000  C
  C73      1.0000 0.32060  0.88700  0.00980  Biso   1.000  C
  C74      1.0000 0.39550  0.86340  0.05540  Biso   1.000  C
  C75      1.0000 0.45830  0.89230  0.10910  Biso   1.000  C
  H17      1.0000 0.45290  0.92700  0.11560  Biso   1.000  H
  C76      1.0000 0.53010  0.86890  0.15390  Biso   1.000  C
  H18      1.0000 0.57310  0.88830  0.19030  Biso   1.000  H
  C77      1.0000 0.53870  0.81880  0.14540  Biso   1.000  C
  H19      1.0000 0.58730  0.80390  0.17570  Biso   1.000  H
  C78      1.0000 0.47410  0.78860  0.09070  Biso   1.000  C
  C79      1.0000 0.40190  0.81160  0.04550  Biso   1.000  C
  H20      1.0000 0.35850  0.79240  0.00930  Biso   1.000  H
  C80      1.0000 0.48250  0.73530  0.08480  Biso   1.000  C
  F49      1.0000 0.79220  0.77390  0.68630  Biso   1.000  F
  F50      1.0000 0.89990  0.76077  0.69860  Biso   1.000  F
  F51      1.0000 0.81310  0.79030  0.58420  Biso   1.000  F
  F52      1.0000 0.37330  0.07140  0.92230  Biso   1.000  F
  F53      1.0000 0.35420  0.02580  0.81720  Biso   1.000  F
  F54      1.0000 0.38870  0.99020  0.93730  Biso   1.000  F
  F55      1.0000 0.66140  0.98840  0.92820  Biso   1.000  F
  F56      1.0000 0.61550  0.97330  0.79720  Biso   1.000  F
  F57      1.0000 0.65330  0.91530  0.88760  Biso   1.000  F
  N9       1.0000 0.26120  0.90510  0.97540  Biso   1.000  N
  N10      1.0000 0.49000  0.69210  0.08260  Biso   1.000  N
  O25      1.0000 0.83560  0.86417  0.74200  Biso   1.000  O
  O26      1.0000 0.91200  0.86733  0.68300  Biso   1.000  O
  O27      1.0000 0.23500  0.97772  0.83130  Biso   1.000  O
  O28      1.0000 0.22430  0.05718  0.86920  Biso   1.000  O
  O29      1.0000 0.79590  0.99210  0.93630  Biso   1.000  O
  O30      1.0000 0.75920  0.93420  0.83150  Biso   1.000  O
  F58      1.0000 0.63110  0.00640  0.83820  Biso   1.000  F
  F59      1.0000 0.62260  0.92820  0.82170  Biso   1.000  F
  F60      1.0000 0.66950  0.95670  0.94290  Biso   1.000  F
  Ag31     1.0000 0.36092  0.44523  0.79858  Biso   1.000  Ag
  Ag32     1.0000 0.64707  0.43753  0.93255  Biso   1.000  Ag
  Ag33     1.0000 0.61490  0.53581  0.86989  Biso   1.000  Ag
  Ag34     1.0000 0.45909  0.56401  0.84731  Biso   1.000  Ag
  Ag35     1.0000 0.41766  0.49557  0.95827  Biso   1.000  Ag
  Ag36     1.0000 0.49561  0.39004  0.92425  Biso   1.000  Ag
  C81      1.0000 0.53860  0.48260  0.88190  Biso   1.000  C
  C82      1.0000 0.47760  0.47440  0.88300  Biso   1.000  C
  C83      1.0000 0.36530  0.34750  0.70170  Biso   1.000  C
  C84      1.0000 0.34040  0.29240  0.66770  Biso   1.000  C
  C85      1.0000 0.75730  0.52060  0.85660  Biso   1.000  C
  C86      1.0000 0.84390  0.52910  0.88260  Biso   1.000  C
  C87      1.0000 0.24970  0.46210  0.88010  Biso   1.000  C
  C88      1.0000 0.16800  0.46030  0.87160  Biso   1.000  C
  C89      1.0000 0.82060  0.38700  0.00980  Biso   1.000  C
  C90      1.0000 0.89550  0.36340  0.05540  Biso   1.000  C
  C91      1.0000 0.95830  0.39230  0.10910  Biso   1.000  C
  H21      1.0000 0.95290  0.42700  0.11560  Biso   1.000  H
  C92      1.0000 0.03010  0.36890  0.15390  Biso   1.000  C
  H22      1.0000 0.07310  0.38830  0.19030  Biso   1.000  H
  C93      1.0000 0.03870  0.31880  0.14540  Biso   1.000  C
  H23      1.0000 0.08730  0.30390  0.17570  Biso   1.000  H
  C94      1.0000 0.97410  0.28860  0.09070  Biso   1.000  C
  C95      1.0000 0.90190  0.31160  0.04550  Biso   1.000  C
  H24      1.0000 0.85850  0.29240  0.00930  Biso   1.000  H
  C96      1.0000 0.98250  0.23530  0.08480  Biso   1.000  C
  F61      1.0000 0.29220  0.27390  0.68630  Biso   1.000  F
  F62      1.0000 0.39990  0.26077  0.69860  Biso   1.000  F
  F63      1.0000 0.31310  0.29030  0.58420  Biso   1.000  F
  F64      1.0000 0.87330  0.57140  0.92230  Biso   1.000  F
  F65      1.0000 0.85420  0.52580  0.81720  Biso   1.000  F
  F66      1.0000 0.88870  0.49020  0.93730  Biso   1.000  F
  F67      1.0000 0.16140  0.48840  0.92820  Biso   1.000  F
  F68      1.0000 0.11550  0.47330  0.79720  Biso   1.000  F
  F69      1.0000 0.15330  0.41530  0.88760  Biso   1.000  F
  N11      1.0000 0.76120  0.40510  0.97540  Biso   1.000  N
  N12      1.0000 0.99000  0.19210  0.08260  Biso   1.000  N
  O31      1.0000 0.33560  0.36417  0.74200  Biso   1.000  O
  O32      1.0000 0.41200  0.36733  0.68300  Biso   1.000  O
  O33      1.0000 0.73500  0.47772  0.83130  Biso   1.000  O
  O34      1.0000 0.72430  0.55718  0.86920  Biso   1.000  O
  O35      1.0000 0.29590  0.49210  0.93630  Biso   1.000  O
  O36      1.0000 0.25920  0.43420  0.83150  Biso   1.000  O
  F70      1.0000 0.13110  0.50640  0.83820  Biso   1.000  F
  F71      1.0000 0.12260  0.42820  0.82170  Biso   1.000  F
  F72      1.0000 0.16950  0.45670  0.94290  Biso   1.000  F
  Ag37     1.0000 0.13908  0.94522  0.70142  Biso   1.000  Ag
  Ag38     1.0000 0.85293  0.93753  0.56745  Biso   1.000  Ag
  Ag39     1.0000 0.88510  0.03581  0.63011  Biso   1.000  Ag
  Ag40     1.0000 0.04091  0.06401  0.65269  Biso   1.000  Ag
  Ag41     1.0000 0.08234  0.99557  0.54173  Biso   1.000  Ag
  Ag42     1.0000 0.00439  0.89004  0.57575  Biso   1.000  Ag
  C97      1.0000 0.96140  0.98260  0.61810  Biso   1.000  C
  C98      1.0000 0.02240  0.97440  0.61700  Biso   1.000  C
  C99      1.0000 0.13470  0.84750  0.79830  Biso   1.000  C
  C100     1.0000 0.15960  0.79240  0.83230  Biso   1.000  C
  C101     1.0000 0.74270  0.02060  0.64340  Biso   1.000  C
  C102     1.0000 0.65610  0.02910  0.61740  Biso   1.000  C
  C103     1.0000 0.25030  0.96210  0.61990  Biso   1.000  C
  C104     1.0000 0.33200  0.96030  0.62840  Biso   1.000  C
  C105     1.0000 0.67940  0.88700  0.49020  Biso   1.000  C
  C106     1.0000 0.60450  0.86340  0.44460  Biso   1.000  C
  C107     1.0000 0.54170  0.89230  0.39090  Biso   1.000  C
  H25      1.0000 0.54710  0.92700  0.38440  Biso   1.000  H
  C108     1.0000 0.46990  0.86890  0.34610  Biso   1.000  C
  H26      1.0000 0.42690  0.88830  0.30970  Biso   1.000  H
  C109     1.0000 0.46130  0.81880  0.35460  Biso   1.000  C
  H27      1.0000 0.41270  0.80390  0.32430  Biso   1.000  H
  C110     1.0000 0.52590  0.78860  0.40930  Biso   1.000  C
  C111     1.0000 0.59810  0.81160  0.45450  Biso   1.000  C
  H28      1.0000 0.64150  0.79240  0.49070  Biso   1.000  H
  C112     1.0000 0.51750  0.73530  0.41520  Biso   1.000  C
  F73      1.0000 0.20780  0.77390  0.81370  Biso   1.000  F
  F74      1.0000 0.10010  0.76077  0.80140  Biso   1.000  F
  F75      1.0000 0.18690  0.79030  0.91580  Biso   1.000  F
  F76      1.0000 0.62670  0.07140  0.57770  Biso   1.000  F
  F77      1.0000 0.64580  0.02580  0.68280  Biso   1.000  F
  F78      1.0000 0.61130  0.99020  0.56270  Biso   1.000  F
  F79      1.0000 0.33860  0.98840  0.57180  Biso   1.000  F
  F80      1.0000 0.38450  0.97330  0.70280  Biso   1.000  F
  F81      1.0000 0.34670  0.91530  0.61240  Biso   1.000  F
  N13      1.0000 0.73880  0.90510  0.52460  Biso   1.000  N
  N14      1.0000 0.51000  0.69210  0.41740  Biso   1.000  N
  O37      1.0000 0.16440  0.86417  0.75800  Biso   1.000  O
  O38      1.0000 0.08800  0.86733  0.81700  Biso   1.000  O
  O39      1.0000 0.76500  0.97772  0.66870  Biso   1.000  O
  O40      1.0000 0.77570  0.05718  0.63080  Biso   1.000  O
  O41      1.0000 0.20410  0.99210  0.56370  Biso   1.000  O
  O42      1.0000 0.24080  0.93420  0.66850  Biso   1.000  O
  F82      1.0000 0.36890  0.00640  0.66180  Biso   1.000  F
  F83      1.0000 0.37740  0.92820  0.67830  Biso   1.000  F
  F84      1.0000 0.33050  0.95670  0.55710  Biso   1.000  F
  Ag43     1.0000 0.63908  0.44523  0.70142  Biso   1.000  Ag
  Ag44     1.0000 0.35293  0.43753  0.56745  Biso   1.000  Ag
  Ag45     1.0000 0.38510  0.53581  0.63011  Biso   1.000  Ag
  Ag46     1.0000 0.54091  0.56401  0.65269  Biso   1.000  Ag
  Ag47     1.0000 0.58234  0.49557  0.54173  Biso   1.000  Ag
  Ag48     1.0000 0.50439  0.39004  0.57575  Biso   1.000  Ag
  C113     1.0000 0.46140  0.48260  0.61810  Biso   1.000  C
  C114     1.0000 0.52240  0.47440  0.61700  Biso   1.000  C
  C115     1.0000 0.63470  0.34750  0.79830  Biso   1.000  C
  C116     1.0000 0.65960  0.29240  0.83230  Biso   1.000  C
  C117     1.0000 0.24270  0.52060  0.64340  Biso   1.000  C
  C118     1.0000 0.15610  0.52910  0.61740  Biso   1.000  C
  C119     1.0000 0.75030  0.46210  0.61990  Biso   1.000  C
  C120     1.0000 0.83200  0.46030  0.62840  Biso   1.000  C
  C121     1.0000 0.17940  0.38700  0.49020  Biso   1.000  C
  C122     1.0000 0.10450  0.36340  0.44460  Biso   1.000  C
  C123     1.0000 0.04170  0.39230  0.39090  Biso   1.000  C
  H29      1.0000 0.04710  0.42700  0.38440  Biso   1.000  H
  C124     1.0000 0.96990  0.36890  0.34610  Biso   1.000  C
  H30      1.0000 0.92690  0.38830  0.30970  Biso   1.000  H
  C125     1.0000 0.96130  0.31880  0.35460  Biso   1.000  C
  H31      1.0000 0.91270  0.30390  0.32430  Biso   1.000  H
  C126     1.0000 0.02590  0.28860  0.40930  Biso   1.000  C
  C127     1.0000 0.09810  0.31160  0.45450  Biso   1.000  C
  H32      1.0000 0.14150  0.29240  0.49070  Biso   1.000  H
  C128     1.0000 0.01750  0.23530  0.41520  Biso   1.000  C
  F85      1.0000 0.70780  0.27390  0.81370  Biso   1.000  F
  F86      1.0000 0.60010  0.26077  0.80140  Biso   1.000  F
  F87      1.0000 0.68690  0.29030  0.91580  Biso   1.000  F
  F88      1.0000 0.12670  0.57140  0.57770  Biso   1.000  F
  F89      1.0000 0.14580  0.52580  0.68280  Biso   1.000  F
  F90      1.0000 0.11130  0.49020  0.56270  Biso   1.000  F
  F91      1.0000 0.83860  0.48840  0.57180  Biso   1.000  F
  F92      1.0000 0.88450  0.47330  0.70280  Biso   1.000  F
  F93      1.0000 0.84670  0.41530  0.61240  Biso   1.000  F
  N15      1.0000 0.23880  0.40510  0.52460  Biso   1.000  N
  N16      1.0000 0.01000  0.19210  0.41740  Biso   1.000  N
  O43      1.0000 0.66440  0.36417  0.75800  Biso   1.000  O
  O44      1.0000 0.58800  0.36733  0.81700  Biso   1.000  O
  O45      1.0000 0.26500  0.47772  0.66870  Biso   1.000  O
  O46      1.0000 0.27570  0.55718  0.63080  Biso   1.000  O
  O47      1.0000 0.70410  0.49210  0.56370  Biso   1.000  O
  O48      1.0000 0.74080  0.43420  0.66850  Biso   1.000  O
  F94      1.0000 0.86890  0.50640  0.66180  Biso   1.000  F
  F95      1.0000 0.87740  0.42820  0.67830  Biso   1.000  F
  F96      1.0000 0.83050  0.45670  0.55710  Biso   1.000  F
  Ag49     1.0000 0.00000  0.06328  0.25000  Biso   1.000  Ag
  Ag50     1.0000 0.50000  0.56328  0.25000  Biso   1.000  Ag
  Ag51     1.0000 0.00000  0.93672  0.75000  Biso   1.000  Ag
  Ag52     1.0000 0.50000  0.43672  0.75000  Biso   1.000  Ag
