data_image0
_cell_length_a       14.728
_cell_length_b       14.728
_cell_length_c       14.728
_cell_angle_alpha    90
_cell_angle_beta     90
_cell_angle_gamma    90

_symmetry_space_group_name_H-M    "P 1"
_symmetry_int_tables_number       1

loop_
  _symmetry_equiv_pos_as_xyz
  'x, y, z'

loop_
  _atom_site_label
  _atom_site_occupancy
  _atom_site_fract_x
  _atom_site_fract_y
  _atom_site_fract_z
  _atom_site_thermal_displace_type
  _atom_site_B_iso_or_equiv
  _atom_site_type_symbol
  O1       1.0000 0.20650  0.18080  0.05050  Biso   1.000  O
  O2       1.0000 0.15870  0.05720  0.97520  Biso   1.000  O
  C1       1.0000 0.21100  0.12480  0.99160  Biso   1.000  C
  C2       1.0000 0.28980  0.13120  0.92190  Biso   1.000  C
  C3       1.0000 0.34860  0.20440  0.93490  Biso   1.000  C
  N1       1.0000 0.94390  0.93150  0.95860  Biso   1.000  N
  O3       1.0000 0.92670  0.97220  0.01160  Biso   1.000  O
  H1       1.0000 0.33840  0.24940  0.98090  Biso   1.000  H
  O4       1.0000 0.29350  0.81920  0.55050  Biso   1.000  O
  O5       1.0000 0.34130  0.94280  0.47520  Biso   1.000  O
  C4       1.0000 0.28900  0.87520  0.49160  Biso   1.000  C
  C5       1.0000 0.21020  0.86880  0.42190  Biso   1.000  C
  C6       1.0000 0.15140  0.79560  0.43490  Biso   1.000  C
  N2       1.0000 0.55610  0.06850  0.45860  Biso   1.000  N
  O6       1.0000 0.57330  0.02780  0.51160  Biso   1.000  O
  H2       1.0000 0.16160  0.75060  0.48090  Biso   1.000  H
  O7       1.0000 0.79350  0.68080  0.44950  Biso   1.000  O
  O8       1.0000 0.84130  0.55720  0.52480  Biso   1.000  O
  C7       1.0000 0.78900  0.62480  0.50840  Biso   1.000  C
  C8       1.0000 0.71020  0.63120  0.57810  Biso   1.000  C
  C9       1.0000 0.65140  0.70440  0.56510  Biso   1.000  C
  N3       1.0000 0.05610  0.43150  0.54140  Biso   1.000  N
  O9       1.0000 0.07330  0.47220  0.48840  Biso   1.000  O
  H3       1.0000 0.66160  0.74940  0.51910  Biso   1.000  H
  O10      1.0000 0.70650  0.31920  0.94950  Biso   1.000  O
  O11      1.0000 0.65870  0.44280  0.02480  Biso   1.000  O
  C10      1.0000 0.71100  0.37520  0.00840  Biso   1.000  C
  C11      1.0000 0.78980  0.36880  0.07810  Biso   1.000  C
  C12      1.0000 0.84860  0.29560  0.06510  Biso   1.000  C
  N4       1.0000 0.44390  0.56850  0.04140  Biso   1.000  N
  O12      1.0000 0.42670  0.52780  0.98840  Biso   1.000  O
  H4       1.0000 0.83840  0.25060  0.01910  Biso   1.000  H
  O13      1.0000 0.05050  0.20650  0.18080  Biso   1.000  O
  O14      1.0000 0.97520  0.15870  0.05720  Biso   1.000  O
  C13      1.0000 0.99160  0.21100  0.12480  Biso   1.000  C
  C14      1.0000 0.92190  0.28980  0.13120  Biso   1.000  C
  C15      1.0000 0.93490  0.34860  0.20440  Biso   1.000  C
  N5       1.0000 0.95860  0.94390  0.93150  Biso   1.000  N
  O15      1.0000 0.01160  0.92670  0.97220  Biso   1.000  O
  H5       1.0000 0.98090  0.33840  0.24940  Biso   1.000  H
  O16      1.0000 0.55050  0.29350  0.81920  Biso   1.000  O
  O17      1.0000 0.47520  0.34130  0.94280  Biso   1.000  O
  C16      1.0000 0.49160  0.28900  0.87520  Biso   1.000  C
  C17      1.0000 0.42190  0.21020  0.86880  Biso   1.000  C
  C18      1.0000 0.43490  0.15140  0.79560  Biso   1.000  C
  N6       1.0000 0.45860  0.55610  0.06850  Biso   1.000  N
  O18      1.0000 0.51160  0.57330  0.02780  Biso   1.000  O
  H6       1.0000 0.48090  0.16160  0.75060  Biso   1.000  H
  O19      1.0000 0.44950  0.79350  0.68080  Biso   1.000  O
  O20      1.0000 0.52480  0.84130  0.55720  Biso   1.000  O
  C19      1.0000 0.50840  0.78900  0.62480  Biso   1.000  C
  C20      1.0000 0.57810  0.71020  0.63120  Biso   1.000  C
  C21      1.0000 0.56510  0.65140  0.70440  Biso   1.000  C
  N7       1.0000 0.54140  0.05610  0.43150  Biso   1.000  N
  O21      1.0000 0.48840  0.07330  0.47220  Biso   1.000  O
  H7       1.0000 0.51910  0.66160  0.74940  Biso   1.000  H
  O22      1.0000 0.94950  0.70650  0.31920  Biso   1.000  O
  O23      1.0000 0.02480  0.65870  0.44280  Biso   1.000  O
  C22      1.0000 0.00840  0.71100  0.37520  Biso   1.000  C
  C23      1.0000 0.07810  0.78980  0.36880  Biso   1.000  C
  C24      1.0000 0.06510  0.84860  0.29560  Biso   1.000  C
  N8       1.0000 0.04140  0.44390  0.56850  Biso   1.000  N
  O24      1.0000 0.98840  0.42670  0.52780  Biso   1.000  O
  H8       1.0000 0.01910  0.83840  0.25060  Biso   1.000  H
  O25      1.0000 0.18080  0.05050  0.20650  Biso   1.000  O
  O26      1.0000 0.05720  0.97520  0.15870  Biso   1.000  O
  C25      1.0000 0.12480  0.99160  0.21100  Biso   1.000  C
  C26      1.0000 0.13120  0.92190  0.28980  Biso   1.000  C
  C27      1.0000 0.20440  0.93490  0.34860  Biso   1.000  C
  N9       1.0000 0.93150  0.95860  0.94390  Biso   1.000  N
  O27      1.0000 0.97220  0.01160  0.92670  Biso   1.000  O
  H9       1.0000 0.24940  0.98090  0.33840  Biso   1.000  H
  O28      1.0000 0.81920  0.55050  0.29350  Biso   1.000  O
  O29      1.0000 0.94280  0.47520  0.34130  Biso   1.000  O
  C28      1.0000 0.87520  0.49160  0.28900  Biso   1.000  C
  C29      1.0000 0.86880  0.42190  0.21020  Biso   1.000  C
  C30      1.0000 0.79560  0.43490  0.15140  Biso   1.000  C
  N10      1.0000 0.06850  0.45860  0.55610  Biso   1.000  N
  O30      1.0000 0.02780  0.51160  0.57330  Biso   1.000  O
  H10      1.0000 0.75060  0.48090  0.16160  Biso   1.000  H
  O31      1.0000 0.68080  0.44950  0.79350  Biso   1.000  O
  O32      1.0000 0.55720  0.52480  0.84130  Biso   1.000  O
  C31      1.0000 0.62480  0.50840  0.78900  Biso   1.000  C
  C32      1.0000 0.63120  0.57810  0.71020  Biso   1.000  C
  C33      1.0000 0.70440  0.56510  0.65140  Biso   1.000  C
  N11      1.0000 0.43150  0.54140  0.05610  Biso   1.000  N
  O33      1.0000 0.47220  0.48840  0.07330  Biso   1.000  O
  H11      1.0000 0.74940  0.51910  0.66160  Biso   1.000  H
  O34      1.0000 0.31920  0.94950  0.70650  Biso   1.000  O
  O35      1.0000 0.44280  0.02480  0.65870  Biso   1.000  O
  C34      1.0000 0.37520  0.00840  0.71100  Biso   1.000  C
  C35      1.0000 0.36880  0.07810  0.78980  Biso   1.000  C
  C36      1.0000 0.29560  0.06510  0.84860  Biso   1.000  C
  N12      1.0000 0.56850  0.04140  0.44390  Biso   1.000  N
  O36      1.0000 0.52780  0.98840  0.42670  Biso   1.000  O
  H12      1.0000 0.25060  0.01910  0.83840  Biso   1.000  H
  Zn1      1.0000 0.18670  0.18670  0.18670  Biso   1.000  Zn
  Zn2      1.0000 0.04680  0.04680  0.04680  Biso   1.000  Zn
  O37      1.0000 0.89530  0.89530  0.89530  Biso   1.000  O
  Zn3      1.0000 0.31330  0.81330  0.68670  Biso   1.000  Zn
  Zn4      1.0000 0.45320  0.95320  0.54680  Biso   1.000  Zn
  O38      1.0000 0.60470  0.10470  0.39530  Biso   1.000  O
  Zn5      1.0000 0.81330  0.68670  0.31330  Biso   1.000  Zn
  Zn6      1.0000 0.95320  0.54680  0.45320  Biso   1.000  Zn
  O39      1.0000 0.10470  0.39530  0.60470  Biso   1.000  O
  Zn7      1.0000 0.68670  0.31330  0.81330  Biso   1.000  Zn
  Zn8      1.0000 0.54680  0.45320  0.95320  Biso   1.000  Zn
  O40      1.0000 0.39530  0.60470  0.10470  Biso   1.000  O
