data_image0
_cell_length_a       13.0126
_cell_length_b       13.1146
_cell_length_c       13.9071
_cell_angle_alpha    84.956
_cell_angle_beta     69.273
_cell_angle_gamma    84.608

_symmetry_space_group_name_H-M    "P 1"
_symmetry_int_tables_number       1

loop_
  _symmetry_equiv_pos_as_xyz
  'x, y, z'

loop_
  _atom_site_label
  _atom_site_occupancy
  _atom_site_fract_x
  _atom_site_fract_y
  _atom_site_fract_z
  _atom_site_thermal_displace_type
  _atom_site_B_iso_or_equiv
  _atom_site_type_symbol
  Zn1      1.0000 0.20298  0.32206  0.16422  Biso   1.000  Zn
  Zn2      1.0000 0.13367  0.32743  0.39017  Biso   1.000  Zn
  O1       1.0000 0.13961  0.47954  0.34898  Biso   1.000  O
  O2       1.0000 0.13954  0.17424  0.37276  Biso   1.000  O
  O3       1.0000 0.97261  0.33681  0.40015  Biso   1.000  O
  O4       1.0000 0.20370  0.16945  0.20129  Biso   1.000  O
  O5       1.0000 0.36409  0.31510  0.15423  Biso   1.000  O
  O6       1.0000 0.19350  0.47562  0.17756  Biso   1.000  O
  N1       1.0000 0.19910  0.32217  0.01894  Biso   1.000  N
  N2       1.0000 0.13180  0.32447  0.53670  Biso   1.000  N
  O7       1.0000 0.30370  0.31724  0.32514  Biso   1.000  O
  O8       1.0000 0.03173  0.32620  0.22994  Biso   1.000  O
  C1       1.0000 0.16890  0.52110  0.25980  Biso   1.000  C
  C2       1.0000 0.15520  0.79910  0.32510  Biso   1.000  C
  C3       1.0000 0.17120  0.12740  0.29140  Biso   1.000  C
  C4       1.0000 0.14950  0.69150  0.33420  Biso   1.000  C
  H1       1.0000 0.12820  0.65700  0.40050  Biso   1.000  H
  C5       1.0000 0.37850  0.31440  0.23880  Biso   1.000  C
  C6       1.0000 0.13410  0.96260  0.40130  Biso   1.000  C
  H2       1.0000 0.11470  0.00110  0.46060  Biso   1.000  H
  C7       1.0000 0.12880  0.85810  0.41200  Biso   1.000  C
  H3       1.0000 0.10700  0.82490  0.47900  Biso   1.000  H
  C8       1.0000 0.82100  0.31080  0.23270  Biso   1.000  C
  H4       1.0000 0.88130  0.29980  0.17070  Biso   1.000  H
  C9       1.0000 0.71260  0.30920  0.23290  Biso   1.000  C
  C10      1.0000 0.49500  0.31120  0.23720  Biso   1.000  C
  C11      1.0000 0.16860  0.01330  0.30170  Biso   1.000  C
  C12      1.0000 0.17410  0.63620  0.24880  Biso   1.000  C
  C13      1.0000 0.16740  0.32150  0.83060  Biso   1.000  C
  C14      1.0000 0.58470  0.29300  0.14530  Biso   1.000  C
  H5       1.0000 0.57130  0.28120  0.08450  Biso   1.000  H
  C15      1.0000 0.69010  0.29210  0.14350  Biso   1.000  C
  H6       1.0000 0.74950  0.27970  0.08110  Biso   1.000  H
  C16      1.0000 0.84090  0.32770  0.31960  Biso   1.000  C
  C17      1.0000 0.19750  0.95710  0.21660  Biso   1.000  C
  H7       1.0000 0.22250  0.99110  0.15010  Biso   1.000  H
  C18      1.0000 0.15270  0.32170  0.72930  Biso   1.000  C
  C19      1.0000 0.51500  0.32710  0.32490  Biso   1.000  C
  H8       1.0000 0.45470  0.33860  0.38670  Biso   1.000  H
  C20      1.0000 0.62310  0.32660  0.32520  Biso   1.000  C
  C21      1.0000 0.10740  0.40460  0.69120  Biso   1.000  C
  H9       1.0000 0.08230  0.46390  0.72990  Biso   1.000  H
  C22      1.0000 0.64570  0.34450  0.41490  Biso   1.000  C
  H10      1.0000 0.58630  0.35660  0.47730  Biso   1.000  H
  C23      1.0000 0.75100  0.34440  0.41280  Biso   1.000  C
  H11      1.0000 0.76460  0.35550  0.47370  Biso   1.000  H
  C24      1.0000 0.09720  0.40360  0.59490  Biso   1.000  C
  H12      1.0000 0.06380  0.46260  0.57010  Biso   1.000  H
  C25      1.0000 0.19080  0.84960  0.22550  Biso   1.000  C
  C26      1.0000 0.22290  0.68640  0.14710  Biso   1.000  C
  H13      1.0000 0.24690  0.64720  0.08780  Biso   1.000  H
  C27      1.0000 0.23430  0.78930  0.13650  Biso   1.000  C
  H14      1.0000 0.27090  0.82110  0.07060  Biso   1.000  H
  C28      1.0000 0.95760  0.33030  0.31580  Biso   1.000  C
  C29      1.0000 0.12720  0.23670  0.59490  Biso   1.000  C
  H15      1.0000 0.11750  0.17510  0.56880  Biso   1.000  H
  C30      1.0000 0.13590  0.23230  0.69160  Biso   1.000  C
  H16      1.0000 0.13050  0.16920  0.73160  Biso   1.000  H
  C31      1.0000 0.12200  0.40450  0.89640  Biso   1.000  C
  H17      1.0000 0.07970  0.46030  0.87730  Biso   1.000  H
  C32      1.0000 0.14070  0.40170  0.98740  Biso   1.000  C
  H18      1.0000 0.11190  0.45760  0.03050  Biso   1.000  H
  C33      1.0000 0.23000  0.24040  0.96310  Biso   1.000  C
  H19      1.0000 0.26390  0.18190  0.98820  Biso   1.000  H
  C34      1.0000 0.21510  0.23670  0.86970  Biso   1.000  C
  H20      1.0000 0.23740  0.17620  0.83260  Biso   1.000  H
  C35      1.0000 0.20300  0.24040  0.66330  Biso   1.000  C
  H21      1.0000 0.24400  0.18470  0.68420  Biso   1.000  H
  C36      1.0000 0.19090  0.24440  0.56840  Biso   1.000  C
  H22      1.0000 0.22430  0.19060  0.52370  Biso   1.000  H
  C37      1.0000 0.13680  0.41120  0.57750  Biso   1.000  C
  H23      1.0000 0.13190  0.47440  0.53980  Biso   1.000  H
  C38      1.0000 0.14880  0.41380  0.67270  Biso   1.000  C
  H24      1.0000 0.15420  0.47700  0.69840  Biso   1.000  H
  C39      1.0000 0.18750  0.79270  0.14090  Biso   1.000  C
  H25      1.0000 0.19180  0.82780  0.07700  Biso   1.000  H
  C40      1.0000 0.17800  0.68810  0.15390  Biso   1.000  C
  H26      1.0000 0.17420  0.65120  0.09960  Biso   1.000  H
  C41      1.0000 0.19860  0.40870  0.96170  Biso   1.000  C
  H27      1.0000 0.20720  0.47120  0.98690  Biso   1.000  H
  C42      1.0000 0.18600  0.41110  0.86770  Biso   1.000  C
  H28      1.0000 0.18990  0.47410  0.82750  Biso   1.000  H
  C43      1.0000 0.18800  0.23590  0.98120  Biso   1.000  C
  H29      1.0000 0.19120  0.17310  0.02010  Biso   1.000  H
  C44      1.0000 0.17210  0.23220  0.88830  Biso   1.000  C
  H30      1.0000 0.16450  0.16840  0.86480  Biso   1.000  H
  Zn3      1.0000 0.79702  0.67794  0.83578  Biso   1.000  Zn
  Zn4      1.0000 0.86633  0.67257  0.60983  Biso   1.000  Zn
  O9       1.0000 0.86039  0.52046  0.65102  Biso   1.000  O
  O10      1.0000 0.86046  0.82576  0.62724  Biso   1.000  O
  O11      1.0000 0.02739  0.66319  0.59985  Biso   1.000  O
  O12      1.0000 0.79630  0.83055  0.79871  Biso   1.000  O
  O13      1.0000 0.63591  0.68490  0.84577  Biso   1.000  O
  O14      1.0000 0.80650  0.52438  0.82244  Biso   1.000  O
  N3       1.0000 0.80090  0.67783  0.98106  Biso   1.000  N
  N4       1.0000 0.86820  0.67553  0.46330  Biso   1.000  N
  O15      1.0000 0.69630  0.68276  0.67486  Biso   1.000  O
  O16      1.0000 0.96827  0.67380  0.77006  Biso   1.000  O
  C45      1.0000 0.83110  0.47890  0.74020  Biso   1.000  C
  C46      1.0000 0.84480  0.20090  0.67490  Biso   1.000  C
  C47      1.0000 0.82880  0.87260  0.70860  Biso   1.000  C
  C48      1.0000 0.85050  0.30850  0.66580  Biso   1.000  C
  H31      1.0000 0.87180  0.34300  0.59950  Biso   1.000  H
  C49      1.0000 0.62150  0.68560  0.76120  Biso   1.000  C
  C50      1.0000 0.86590  0.03740  0.59870  Biso   1.000  C
  H32      1.0000 0.88530  0.99890  0.53940  Biso   1.000  H
  C51      1.0000 0.87120  0.14190  0.58800  Biso   1.000  C
  H33      1.0000 0.89300  0.17510  0.52100  Biso   1.000  H
  C52      1.0000 0.17900  0.68920  0.76730  Biso   1.000  C
  H34      1.0000 0.11870  0.70020  0.82930  Biso   1.000  H
  C53      1.0000 0.28740  0.69080  0.76710  Biso   1.000  C
  C54      1.0000 0.50500  0.68880  0.76280  Biso   1.000  C
  C55      1.0000 0.83140  0.98670  0.69830  Biso   1.000  C
  C56      1.0000 0.82590  0.36380  0.75120  Biso   1.000  C
  C57      1.0000 0.83260  0.67850  0.16940  Biso   1.000  C
  C58      1.0000 0.41530  0.70700  0.85470  Biso   1.000  C
  H35      1.0000 0.42870  0.71880  0.91550  Biso   1.000  H
  C59      1.0000 0.30990  0.70790  0.85650  Biso   1.000  C
  H36      1.0000 0.25050  0.72030  0.91890  Biso   1.000  H
  C60      1.0000 0.15910  0.67230  0.68040  Biso   1.000  C
  C61      1.0000 0.80250  0.04290  0.78340  Biso   1.000  C
  H37      1.0000 0.77750  0.00890  0.84990  Biso   1.000  H
  C62      1.0000 0.84730  0.67830  0.27070  Biso   1.000  C
  C63      1.0000 0.48500  0.67290  0.67510  Biso   1.000  C
  H38      1.0000 0.54530  0.66140  0.61330  Biso   1.000  H
  C64      1.0000 0.37690  0.67340  0.67480  Biso   1.000  C
  C65      1.0000 0.89260  0.59540  0.30880  Biso   1.000  C
  H39      1.0000 0.91770  0.53610  0.27010  Biso   1.000  H
  C66      1.0000 0.35430  0.65550  0.58510  Biso   1.000  C
  H40      1.0000 0.41370  0.64340  0.52270  Biso   1.000  H
  C67      1.0000 0.24900  0.65560  0.58720  Biso   1.000  C
  H41      1.0000 0.23540  0.64450  0.52630  Biso   1.000  H
  C68      1.0000 0.90280  0.59640  0.40510  Biso   1.000  C
  H42      1.0000 0.93620  0.53740  0.42990  Biso   1.000  H
  C69      1.0000 0.80920  0.15040  0.77450  Biso   1.000  C
  C70      1.0000 0.77710  0.31360  0.85290  Biso   1.000  C
  H43      1.0000 0.75310  0.35280  0.91220  Biso   1.000  H
  C71      1.0000 0.76570  0.21070  0.86350  Biso   1.000  C
  H44      1.0000 0.72910  0.17890  0.92940  Biso   1.000  H
  C72      1.0000 0.04240  0.66970  0.68420  Biso   1.000  C
  C73      1.0000 0.87280  0.76330  0.40510  Biso   1.000  C
  H45      1.0000 0.88250  0.82490  0.43120  Biso   1.000  H
  C74      1.0000 0.86410  0.76770  0.30840  Biso   1.000  C
  H46      1.0000 0.86950  0.83080  0.26840  Biso   1.000  H
  C75      1.0000 0.87800  0.59550  0.10360  Biso   1.000  C
  H47      1.0000 0.92030  0.53970  0.12270  Biso   1.000  H
  C76      1.0000 0.85930  0.59830  0.01260  Biso   1.000  C
  H48      1.0000 0.88810  0.54240  0.96950  Biso   1.000  H
  C77      1.0000 0.77000  0.75960  0.03690  Biso   1.000  C
  H49      1.0000 0.73610  0.81810  0.01180  Biso   1.000  H
  C78      1.0000 0.78490  0.76330  0.13030  Biso   1.000  C
  H50      1.0000 0.76260  0.82380  0.16740  Biso   1.000  H
  C79      1.0000 0.79700  0.75960  0.33670  Biso   1.000  C
  H51      1.0000 0.75600  0.81530  0.31580  Biso   1.000  H
  C80      1.0000 0.80910  0.75560  0.43160  Biso   1.000  C
  H52      1.0000 0.77570  0.80940  0.47630  Biso   1.000  H
  C81      1.0000 0.86320  0.58880  0.42250  Biso   1.000  C
  H53      1.0000 0.86810  0.52560  0.46020  Biso   1.000  H
  C82      1.0000 0.85120  0.58620  0.32730  Biso   1.000  C
  H54      1.0000 0.84580  0.52300  0.30160  Biso   1.000  H
  C83      1.0000 0.81250  0.20730  0.85910  Biso   1.000  C
  H55      1.0000 0.80820  0.17220  0.92300  Biso   1.000  H
  C84      1.0000 0.82200  0.31190  0.84610  Biso   1.000  C
  H56      1.0000 0.82580  0.34880  0.90040  Biso   1.000  H
  C85      1.0000 0.80140  0.59130  0.03830  Biso   1.000  C
  H57      1.0000 0.79280  0.52880  0.01310  Biso   1.000  H
  C86      1.0000 0.81400  0.58890  0.13230  Biso   1.000  C
  H58      1.0000 0.81010  0.52590  0.17250  Biso   1.000  H
  C87      1.0000 0.81200  0.76410  0.01880  Biso   1.000  C
  H59      1.0000 0.80880  0.82690  0.97990  Biso   1.000  H
  C88      1.0000 0.82790  0.76780  0.11170  Biso   1.000  C
  H60      1.0000 0.83550  0.83160  0.13520  Biso   1.000  H
