data_image0
_cell_length_a       13.3088
_cell_length_b       13.3088
_cell_length_c       20.4387
_cell_angle_alpha    90
_cell_angle_beta     90
_cell_angle_gamma    90

_symmetry_space_group_name_H-M    "P 1"
_symmetry_int_tables_number       1

loop_
  _symmetry_equiv_pos_as_xyz
  'x, y, z'

loop_
  _atom_site_label
  _atom_site_occupancy
  _atom_site_fract_x
  _atom_site_fract_y
  _atom_site_fract_z
  _atom_site_thermal_displace_type
  _atom_site_B_iso_or_equiv
  _atom_site_type_symbol
  N1       1.0000 0.13040  0.17440  0.43510  Biso   1.000  N
  N2       1.0000 0.19290  0.09280  0.43360  Biso   1.000  N
  C1       1.0000 0.25100  0.21640  0.28100  Biso   1.000  C
  C2       1.0000 0.23340  0.31620  0.25950  Biso   1.000  C
  H1       1.0000 0.21980  0.38320  0.24600  Biso   1.000  H
  C3       1.0000 0.24650  0.10290  0.37870  Biso   1.000  C
  H2       1.0000 0.30000  0.05920  0.36680  Biso   1.000  H
  C4       1.0000 0.14300  0.22900  0.38010  Biso   1.000  C
  H3       1.0000 0.10790  0.28900  0.36970  Biso   1.000  H
  N3       1.0000 0.21600  0.18320  0.34110  Biso   1.000  N
  C5       1.0000 0.27270  0.12430  0.30000  Biso   1.000  C
  C6       1.0000 0.34820  0.19530  0.26190  Biso   1.000  C
  H4       1.0000 0.39370  0.16070  0.28970  Biso   1.000  H
  H5       1.0000 0.28710  0.05760  0.31360  Biso   1.000  H
  C7       1.0000 0.20420  0.28150  0.32020  Biso   1.000  C
  H6       1.0000 0.16930  0.32700  0.34790  Biso   1.000  H
  C8       1.0000 0.18450  0.14800  0.40550  Biso   1.000  C
  O1       1.0000 0.11290  0.19920  0.42740  Biso   1.000  O
  O2       1.0000 0.22110  0.07410  0.42680  Biso   1.000  O
  C9       1.0000 0.22160  0.18530  0.34430  Biso   1.000  C
  N4       1.0000 0.86960  0.82560  0.43510  Biso   1.000  N
  N5       1.0000 0.80710  0.90720  0.43360  Biso   1.000  N
  C10      1.0000 0.74900  0.78360  0.28100  Biso   1.000  C
  C11      1.0000 0.76660  0.68380  0.25950  Biso   1.000  C
  H7       1.0000 0.78020  0.61680  0.24600  Biso   1.000  H
  C12      1.0000 0.75350  0.89710  0.37870  Biso   1.000  C
  H8       1.0000 0.70000  0.94080  0.36680  Biso   1.000  H
  C13      1.0000 0.85700  0.77100  0.38010  Biso   1.000  C
  H9       1.0000 0.89210  0.71100  0.36970  Biso   1.000  H
  N6       1.0000 0.78400  0.81680  0.34110  Biso   1.000  N
  C14      1.0000 0.72730  0.87570  0.30000  Biso   1.000  C
  C15      1.0000 0.65180  0.80470  0.26190  Biso   1.000  C
  H10      1.0000 0.60630  0.83930  0.28970  Biso   1.000  H
  H11      1.0000 0.71290  0.94240  0.31360  Biso   1.000  H
  C16      1.0000 0.79580  0.71850  0.32020  Biso   1.000  C
  H12      1.0000 0.83070  0.67300  0.34790  Biso   1.000  H
  C17      1.0000 0.81550  0.85200  0.40550  Biso   1.000  C
  O3       1.0000 0.88710  0.80080  0.42740  Biso   1.000  O
  O4       1.0000 0.77890  0.92590  0.42680  Biso   1.000  O
  C18      1.0000 0.77840  0.81470  0.34430  Biso   1.000  C
  N7       1.0000 0.82560  0.13040  0.43510  Biso   1.000  N
  N8       1.0000 0.90720  0.19290  0.43360  Biso   1.000  N
  C19      1.0000 0.78360  0.25100  0.28100  Biso   1.000  C
  C20      1.0000 0.68380  0.23340  0.25950  Biso   1.000  C
  H13      1.0000 0.61680  0.21980  0.24600  Biso   1.000  H
  C21      1.0000 0.89710  0.24650  0.37870  Biso   1.000  C
  H14      1.0000 0.94080  0.30000  0.36680  Biso   1.000  H
  C22      1.0000 0.77100  0.14300  0.38010  Biso   1.000  C
  H15      1.0000 0.71100  0.10790  0.36970  Biso   1.000  H
  N9       1.0000 0.81680  0.21600  0.34110  Biso   1.000  N
  C23      1.0000 0.87570  0.27270  0.30000  Biso   1.000  C
  C24      1.0000 0.80470  0.34820  0.26190  Biso   1.000  C
  H16      1.0000 0.83930  0.39370  0.28970  Biso   1.000  H
  H17      1.0000 0.94240  0.28710  0.31360  Biso   1.000  H
  C25      1.0000 0.71850  0.20420  0.32020  Biso   1.000  C
  H18      1.0000 0.67300  0.16930  0.34790  Biso   1.000  H
  C26      1.0000 0.85200  0.18450  0.40550  Biso   1.000  C
  O5       1.0000 0.80080  0.11290  0.42740  Biso   1.000  O
  O6       1.0000 0.92590  0.22110  0.42680  Biso   1.000  O
  C27      1.0000 0.81470  0.22160  0.34430  Biso   1.000  C
  N10      1.0000 0.17440  0.86960  0.43510  Biso   1.000  N
  N11      1.0000 0.09280  0.80710  0.43360  Biso   1.000  N
  C28      1.0000 0.21640  0.74900  0.28100  Biso   1.000  C
  C29      1.0000 0.31620  0.76660  0.25950  Biso   1.000  C
  H19      1.0000 0.38320  0.78020  0.24600  Biso   1.000  H
  C30      1.0000 0.10290  0.75350  0.37870  Biso   1.000  C
  H20      1.0000 0.05920  0.70000  0.36680  Biso   1.000  H
  C31      1.0000 0.22900  0.85700  0.38010  Biso   1.000  C
  H21      1.0000 0.28900  0.89210  0.36970  Biso   1.000  H
  N12      1.0000 0.18320  0.78400  0.34110  Biso   1.000  N
  C32      1.0000 0.12430  0.72730  0.30000  Biso   1.000  C
  C33      1.0000 0.19530  0.65180  0.26190  Biso   1.000  C
  H22      1.0000 0.16070  0.60630  0.28970  Biso   1.000  H
  H23      1.0000 0.05760  0.71290  0.31360  Biso   1.000  H
  C34      1.0000 0.28150  0.79580  0.32020  Biso   1.000  C
  H24      1.0000 0.32700  0.83070  0.34790  Biso   1.000  H
  C35      1.0000 0.14800  0.81550  0.40550  Biso   1.000  C
  O7       1.0000 0.19920  0.88710  0.42740  Biso   1.000  O
  O8       1.0000 0.07410  0.77890  0.42680  Biso   1.000  O
  C36      1.0000 0.18530  0.77840  0.34430  Biso   1.000  C
  N13      1.0000 0.36960  0.67440  0.06490  Biso   1.000  N
  N14      1.0000 0.30710  0.59280  0.06640  Biso   1.000  N
  C37      1.0000 0.24900  0.71640  0.21900  Biso   1.000  C
  C38      1.0000 0.26660  0.81620  0.24050  Biso   1.000  C
  H25      1.0000 0.28020  0.88320  0.25400  Biso   1.000  H
  C39      1.0000 0.25350  0.60290  0.12130  Biso   1.000  C
  H26      1.0000 0.20000  0.55920  0.13320  Biso   1.000  H
  C40      1.0000 0.35700  0.72900  0.11990  Biso   1.000  C
  H27      1.0000 0.39210  0.78900  0.13030  Biso   1.000  H
  N15      1.0000 0.28400  0.68320  0.15890  Biso   1.000  N
  C41      1.0000 0.22730  0.62430  0.20000  Biso   1.000  C
  C42      1.0000 0.15180  0.69530  0.23810  Biso   1.000  C
  H28      1.0000 0.10630  0.66070  0.21030  Biso   1.000  H
  H29      1.0000 0.21290  0.55760  0.18640  Biso   1.000  H
  C43      1.0000 0.29580  0.78150  0.17980  Biso   1.000  C
  H30      1.0000 0.33070  0.82700  0.15210  Biso   1.000  H
  C44      1.0000 0.31550  0.64800  0.09450  Biso   1.000  C
  O9       1.0000 0.38710  0.69920  0.07260  Biso   1.000  O
  O10      1.0000 0.27890  0.57410  0.07320  Biso   1.000  O
  C45      1.0000 0.27840  0.68530  0.15570  Biso   1.000  C
  N16      1.0000 0.63040  0.32560  0.06490  Biso   1.000  N
  N17      1.0000 0.69290  0.40720  0.06640  Biso   1.000  N
  C46      1.0000 0.75100  0.28360  0.21900  Biso   1.000  C
  C47      1.0000 0.73340  0.18380  0.24050  Biso   1.000  C
  H31      1.0000 0.71980  0.11680  0.25400  Biso   1.000  H
  C48      1.0000 0.74650  0.39710  0.12130  Biso   1.000  C
  H32      1.0000 0.80000  0.44080  0.13320  Biso   1.000  H
  C49      1.0000 0.64300  0.27100  0.11990  Biso   1.000  C
  H33      1.0000 0.60790  0.21100  0.13030  Biso   1.000  H
  N18      1.0000 0.71600  0.31680  0.15890  Biso   1.000  N
  C50      1.0000 0.77270  0.37570  0.20000  Biso   1.000  C
  C51      1.0000 0.84820  0.30470  0.23810  Biso   1.000  C
  H34      1.0000 0.89370  0.33930  0.21030  Biso   1.000  H
  H35      1.0000 0.78710  0.44240  0.18640  Biso   1.000  H
  C52      1.0000 0.70420  0.21850  0.17980  Biso   1.000  C
  H36      1.0000 0.66930  0.17300  0.15210  Biso   1.000  H
  C53      1.0000 0.68450  0.35200  0.09450  Biso   1.000  C
  O11      1.0000 0.61290  0.30080  0.07260  Biso   1.000  O
  O12      1.0000 0.72110  0.42590  0.07320  Biso   1.000  O
  C54      1.0000 0.72160  0.31470  0.15570  Biso   1.000  C
  N19      1.0000 0.67440  0.63040  0.06490  Biso   1.000  N
  N20      1.0000 0.59280  0.69290  0.06640  Biso   1.000  N
  C55      1.0000 0.71640  0.75100  0.21900  Biso   1.000  C
  C56      1.0000 0.81620  0.73340  0.24050  Biso   1.000  C
  H37      1.0000 0.88320  0.71980  0.25400  Biso   1.000  H
  C57      1.0000 0.60290  0.74650  0.12130  Biso   1.000  C
  H38      1.0000 0.55920  0.80000  0.13320  Biso   1.000  H
  C58      1.0000 0.72900  0.64300  0.11990  Biso   1.000  C
  H39      1.0000 0.78900  0.60790  0.13030  Biso   1.000  H
  N21      1.0000 0.68320  0.71600  0.15890  Biso   1.000  N
  C59      1.0000 0.62430  0.77270  0.20000  Biso   1.000  C
  C60      1.0000 0.69530  0.84820  0.23810  Biso   1.000  C
  H40      1.0000 0.66070  0.89370  0.21030  Biso   1.000  H
  H41      1.0000 0.55760  0.78710  0.18640  Biso   1.000  H
  C61      1.0000 0.78150  0.70420  0.17980  Biso   1.000  C
  H42      1.0000 0.82700  0.66930  0.15210  Biso   1.000  H
  C62      1.0000 0.64800  0.68450  0.09450  Biso   1.000  C
  O13      1.0000 0.69920  0.61290  0.07260  Biso   1.000  O
  O14      1.0000 0.57410  0.72110  0.07320  Biso   1.000  O
  C63      1.0000 0.68530  0.72160  0.15570  Biso   1.000  C
  N22      1.0000 0.32560  0.36960  0.06490  Biso   1.000  N
  N23      1.0000 0.40720  0.30710  0.06640  Biso   1.000  N
  C64      1.0000 0.28360  0.24900  0.21900  Biso   1.000  C
  C65      1.0000 0.18380  0.26660  0.24050  Biso   1.000  C
  H43      1.0000 0.11680  0.28020  0.25400  Biso   1.000  H
  C66      1.0000 0.39710  0.25350  0.12130  Biso   1.000  C
  H44      1.0000 0.44080  0.20000  0.13320  Biso   1.000  H
  C67      1.0000 0.27100  0.35700  0.11990  Biso   1.000  C
  H45      1.0000 0.21100  0.39210  0.13030  Biso   1.000  H
  N24      1.0000 0.31680  0.28400  0.15890  Biso   1.000  N
  C68      1.0000 0.37570  0.22730  0.20000  Biso   1.000  C
  C69      1.0000 0.30470  0.15180  0.23810  Biso   1.000  C
  H46      1.0000 0.33930  0.10630  0.21030  Biso   1.000  H
  H47      1.0000 0.44240  0.21290  0.18640  Biso   1.000  H
  C70      1.0000 0.21850  0.29580  0.17980  Biso   1.000  C
  H48      1.0000 0.17300  0.33070  0.15210  Biso   1.000  H
  C71      1.0000 0.35200  0.31550  0.09450  Biso   1.000  C
  O15      1.0000 0.30080  0.38710  0.07260  Biso   1.000  O
  O16      1.0000 0.42590  0.27890  0.07320  Biso   1.000  O
  C72      1.0000 0.31470  0.27840  0.15570  Biso   1.000  C
  N25      1.0000 0.86960  0.82560  0.56490  Biso   1.000  N
  N26      1.0000 0.80710  0.90720  0.56640  Biso   1.000  N
  C73      1.0000 0.74900  0.78360  0.71900  Biso   1.000  C
  C74      1.0000 0.76660  0.68380  0.74050  Biso   1.000  C
  H49      1.0000 0.78020  0.61680  0.75400  Biso   1.000  H
  C75      1.0000 0.75350  0.89710  0.62130  Biso   1.000  C
  H50      1.0000 0.70000  0.94080  0.63320  Biso   1.000  H
  C76      1.0000 0.85700  0.77100  0.61990  Biso   1.000  C
  H51      1.0000 0.89210  0.71100  0.63030  Biso   1.000  H
  N27      1.0000 0.78400  0.81680  0.65890  Biso   1.000  N
  C77      1.0000 0.72730  0.87570  0.70000  Biso   1.000  C
  C78      1.0000 0.65180  0.80470  0.73810  Biso   1.000  C
  H52      1.0000 0.60630  0.83930  0.71030  Biso   1.000  H
  H53      1.0000 0.71290  0.94240  0.68640  Biso   1.000  H
  C79      1.0000 0.79580  0.71850  0.67980  Biso   1.000  C
  H54      1.0000 0.83070  0.67300  0.65210  Biso   1.000  H
  C80      1.0000 0.81550  0.85200  0.59450  Biso   1.000  C
  O17      1.0000 0.88710  0.80080  0.57260  Biso   1.000  O
  O18      1.0000 0.77890  0.92590  0.57320  Biso   1.000  O
  C81      1.0000 0.77840  0.81470  0.65570  Biso   1.000  C
  N28      1.0000 0.13040  0.17440  0.56490  Biso   1.000  N
  N29      1.0000 0.19290  0.09280  0.56640  Biso   1.000  N
  C82      1.0000 0.25100  0.21640  0.71900  Biso   1.000  C
  C83      1.0000 0.23340  0.31620  0.74050  Biso   1.000  C
  H55      1.0000 0.21980  0.38320  0.75400  Biso   1.000  H
  C84      1.0000 0.24650  0.10290  0.62130  Biso   1.000  C
  H56      1.0000 0.30000  0.05920  0.63320  Biso   1.000  H
  C85      1.0000 0.14300  0.22900  0.61990  Biso   1.000  C
  H57      1.0000 0.10790  0.28900  0.63030  Biso   1.000  H
  N30      1.0000 0.21600  0.18320  0.65890  Biso   1.000  N
  C86      1.0000 0.27270  0.12430  0.70000  Biso   1.000  C
  C87      1.0000 0.34820  0.19530  0.73810  Biso   1.000  C
  H58      1.0000 0.39370  0.16070  0.71030  Biso   1.000  H
  H59      1.0000 0.28710  0.05760  0.68640  Biso   1.000  H
  C88      1.0000 0.20420  0.28150  0.67980  Biso   1.000  C
  H60      1.0000 0.16930  0.32700  0.65210  Biso   1.000  H
  C89      1.0000 0.18450  0.14800  0.59450  Biso   1.000  C
  O19      1.0000 0.11290  0.19920  0.57260  Biso   1.000  O
  O20      1.0000 0.22110  0.07410  0.57320  Biso   1.000  O
  C90      1.0000 0.22160  0.18530  0.65570  Biso   1.000  C
  N31      1.0000 0.17440  0.86960  0.56490  Biso   1.000  N
  N32      1.0000 0.09280  0.80710  0.56640  Biso   1.000  N
  C91      1.0000 0.21640  0.74900  0.71900  Biso   1.000  C
  C92      1.0000 0.31620  0.76660  0.74050  Biso   1.000  C
  H61      1.0000 0.38320  0.78020  0.75400  Biso   1.000  H
  C93      1.0000 0.10290  0.75350  0.62130  Biso   1.000  C
  H62      1.0000 0.05920  0.70000  0.63320  Biso   1.000  H
  C94      1.0000 0.22900  0.85700  0.61990  Biso   1.000  C
  H63      1.0000 0.28900  0.89210  0.63030  Biso   1.000  H
  N33      1.0000 0.18320  0.78400  0.65890  Biso   1.000  N
  C95      1.0000 0.12430  0.72730  0.70000  Biso   1.000  C
  C96      1.0000 0.19530  0.65180  0.73810  Biso   1.000  C
  H64      1.0000 0.16070  0.60630  0.71030  Biso   1.000  H
  H65      1.0000 0.05760  0.71290  0.68640  Biso   1.000  H
  C97      1.0000 0.28150  0.79580  0.67980  Biso   1.000  C
  H66      1.0000 0.32700  0.83070  0.65210  Biso   1.000  H
  C98      1.0000 0.14800  0.81550  0.59450  Biso   1.000  C
  O21      1.0000 0.19920  0.88710  0.57260  Biso   1.000  O
  O22      1.0000 0.07410  0.77890  0.57320  Biso   1.000  O
  C99      1.0000 0.18530  0.77840  0.65570  Biso   1.000  C
  N34      1.0000 0.82560  0.13040  0.56490  Biso   1.000  N
  N35      1.0000 0.90720  0.19290  0.56640  Biso   1.000  N
  C100     1.0000 0.78360  0.25100  0.71900  Biso   1.000  C
  C101     1.0000 0.68380  0.23340  0.74050  Biso   1.000  C
  H67      1.0000 0.61680  0.21980  0.75400  Biso   1.000  H
  C102     1.0000 0.89710  0.24650  0.62130  Biso   1.000  C
  H68      1.0000 0.94080  0.30000  0.63320  Biso   1.000  H
  C103     1.0000 0.77100  0.14300  0.61990  Biso   1.000  C
  H69      1.0000 0.71100  0.10790  0.63030  Biso   1.000  H
  N36      1.0000 0.81680  0.21600  0.65890  Biso   1.000  N
  C104     1.0000 0.87570  0.27270  0.70000  Biso   1.000  C
  C105     1.0000 0.80470  0.34820  0.73810  Biso   1.000  C
  H70      1.0000 0.83930  0.39370  0.71030  Biso   1.000  H
  H71      1.0000 0.94240  0.28710  0.68640  Biso   1.000  H
  C106     1.0000 0.71850  0.20420  0.67980  Biso   1.000  C
  H72      1.0000 0.67300  0.16930  0.65210  Biso   1.000  H
  C107     1.0000 0.85200  0.18450  0.59450  Biso   1.000  C
  O23      1.0000 0.80080  0.11290  0.57260  Biso   1.000  O
  O24      1.0000 0.92590  0.22110  0.57320  Biso   1.000  O
  C108     1.0000 0.81470  0.22160  0.65570  Biso   1.000  C
  N37      1.0000 0.63040  0.32560  0.93510  Biso   1.000  N
  N38      1.0000 0.69290  0.40720  0.93360  Biso   1.000  N
  C109     1.0000 0.75100  0.28360  0.78100  Biso   1.000  C
  C110     1.0000 0.73340  0.18380  0.75950  Biso   1.000  C
  H73      1.0000 0.71980  0.11680  0.74600  Biso   1.000  H
  C111     1.0000 0.74650  0.39710  0.87870  Biso   1.000  C
  H74      1.0000 0.80000  0.44080  0.86680  Biso   1.000  H
  C112     1.0000 0.64300  0.27100  0.88010  Biso   1.000  C
  H75      1.0000 0.60790  0.21100  0.86970  Biso   1.000  H
  N39      1.0000 0.71600  0.31680  0.84110  Biso   1.000  N
  C113     1.0000 0.77270  0.37570  0.80000  Biso   1.000  C
  C114     1.0000 0.84820  0.30470  0.76190  Biso   1.000  C
  H76      1.0000 0.89370  0.33930  0.78970  Biso   1.000  H
  H77      1.0000 0.78710  0.44240  0.81360  Biso   1.000  H
  C115     1.0000 0.70420  0.21850  0.82020  Biso   1.000  C
  H78      1.0000 0.66930  0.17300  0.84790  Biso   1.000  H
  C116     1.0000 0.68450  0.35200  0.90550  Biso   1.000  C
  O25      1.0000 0.61290  0.30080  0.92740  Biso   1.000  O
  O26      1.0000 0.72110  0.42590  0.92680  Biso   1.000  O
  C117     1.0000 0.72160  0.31470  0.84430  Biso   1.000  C
  N40      1.0000 0.36960  0.67440  0.93510  Biso   1.000  N
  N41      1.0000 0.30710  0.59280  0.93360  Biso   1.000  N
  C118     1.0000 0.24900  0.71640  0.78100  Biso   1.000  C
  C119     1.0000 0.26660  0.81620  0.75950  Biso   1.000  C
  H79      1.0000 0.28020  0.88320  0.74600  Biso   1.000  H
  C120     1.0000 0.25350  0.60290  0.87870  Biso   1.000  C
  H80      1.0000 0.20000  0.55920  0.86680  Biso   1.000  H
  C121     1.0000 0.35700  0.72900  0.88010  Biso   1.000  C
  H81      1.0000 0.39210  0.78900  0.86970  Biso   1.000  H
  N42      1.0000 0.28400  0.68320  0.84110  Biso   1.000  N
  C122     1.0000 0.22730  0.62430  0.80000  Biso   1.000  C
  C123     1.0000 0.15180  0.69530  0.76190  Biso   1.000  C
  H82      1.0000 0.10630  0.66070  0.78970  Biso   1.000  H
  H83      1.0000 0.21290  0.55760  0.81360  Biso   1.000  H
  C124     1.0000 0.29580  0.78150  0.82020  Biso   1.000  C
  H84      1.0000 0.33070  0.82700  0.84790  Biso   1.000  H
  C125     1.0000 0.31550  0.64800  0.90550  Biso   1.000  C
  O27      1.0000 0.38710  0.69920  0.92740  Biso   1.000  O
  O28      1.0000 0.27890  0.57410  0.92680  Biso   1.000  O
  C126     1.0000 0.27840  0.68530  0.84430  Biso   1.000  C
  N43      1.0000 0.32560  0.36960  0.93510  Biso   1.000  N
  N44      1.0000 0.40720  0.30710  0.93360  Biso   1.000  N
  C127     1.0000 0.28360  0.24900  0.78100  Biso   1.000  C
  C128     1.0000 0.18380  0.26660  0.75950  Biso   1.000  C
  H85      1.0000 0.11680  0.28020  0.74600  Biso   1.000  H
  C129     1.0000 0.39710  0.25350  0.87870  Biso   1.000  C
  H86      1.0000 0.44080  0.20000  0.86680  Biso   1.000  H
  C130     1.0000 0.27100  0.35700  0.88010  Biso   1.000  C
  H87      1.0000 0.21100  0.39210  0.86970  Biso   1.000  H
  N45      1.0000 0.31680  0.28400  0.84110  Biso   1.000  N
  C131     1.0000 0.37570  0.22730  0.80000  Biso   1.000  C
  C132     1.0000 0.30470  0.15180  0.76190  Biso   1.000  C
  H88      1.0000 0.33930  0.10630  0.78970  Biso   1.000  H
  H89      1.0000 0.44240  0.21290  0.81360  Biso   1.000  H
  C133     1.0000 0.21850  0.29580  0.82020  Biso   1.000  C
  H90      1.0000 0.17300  0.33070  0.84790  Biso   1.000  H
  C134     1.0000 0.35200  0.31550  0.90550  Biso   1.000  C
  O29      1.0000 0.30080  0.38710  0.92740  Biso   1.000  O
  O30      1.0000 0.42590  0.27890  0.92680  Biso   1.000  O
  C135     1.0000 0.31470  0.27840  0.84430  Biso   1.000  C
  N46      1.0000 0.67440  0.63040  0.93510  Biso   1.000  N
  N47      1.0000 0.59280  0.69290  0.93360  Biso   1.000  N
  C136     1.0000 0.71640  0.75100  0.78100  Biso   1.000  C
  C137     1.0000 0.81620  0.73340  0.75950  Biso   1.000  C
  H91      1.0000 0.88320  0.71980  0.74600  Biso   1.000  H
  C138     1.0000 0.60290  0.74650  0.87870  Biso   1.000  C
  H92      1.0000 0.55920  0.80000  0.86680  Biso   1.000  H
  C139     1.0000 0.72900  0.64300  0.88010  Biso   1.000  C
  H93      1.0000 0.78900  0.60790  0.86970  Biso   1.000  H
  N48      1.0000 0.68320  0.71600  0.84110  Biso   1.000  N
  C140     1.0000 0.62430  0.77270  0.80000  Biso   1.000  C
  C141     1.0000 0.69530  0.84820  0.76190  Biso   1.000  C
  H94      1.0000 0.66070  0.89370  0.78970  Biso   1.000  H
  H95      1.0000 0.55760  0.78710  0.81360  Biso   1.000  H
  C142     1.0000 0.78150  0.70420  0.82020  Biso   1.000  C
  H96      1.0000 0.82700  0.66930  0.84790  Biso   1.000  H
  C143     1.0000 0.64800  0.68450  0.90550  Biso   1.000  C
  O31      1.0000 0.69920  0.61290  0.92740  Biso   1.000  O
  O32      1.0000 0.57410  0.72110  0.92680  Biso   1.000  O
  C144     1.0000 0.68530  0.72160  0.84430  Biso   1.000  C
  Cu1      1.0000 0.01707  0.19180  0.50000  Biso   1.000  Cu
  Cu2      1.0000 0.98293  0.80820  0.50000  Biso   1.000  Cu
  Cu3      1.0000 0.80820  0.01707  0.50000  Biso   1.000  Cu
  Cu4      1.0000 0.19180  0.98293  0.50000  Biso   1.000  Cu
  Cu5      1.0000 0.48293  0.69180  0.00000  Biso   1.000  Cu
  Cu6      1.0000 0.51707  0.30820  0.00000  Biso   1.000  Cu
  Cu7      1.0000 0.69180  0.51707  0.00000  Biso   1.000  Cu
  Cu8      1.0000 0.30820  0.48293  0.00000  Biso   1.000  Cu
  Cl1      1.0000 0.00000  0.00000  0.50000  Biso   1.000  Cl
  Cl2      1.0000 0.50000  0.50000  0.00000  Biso   1.000  Cl
