data_image0
_cell_length_a       18.6935
_cell_length_b       18.6935
_cell_length_c       38.3901
_cell_angle_alpha    90
_cell_angle_beta     90
_cell_angle_gamma    120

_symmetry_space_group_name_H-M    "P 1"
_symmetry_int_tables_number       1

loop_
  _symmetry_equiv_pos_as_xyz
  'x, y, z'

loop_
  _atom_site_label
  _atom_site_occupancy
  _atom_site_fract_x
  _atom_site_fract_y
  _atom_site_fract_z
  _atom_site_thermal_displace_type
  _atom_site_B_iso_or_equiv
  _atom_site_type_symbol
  O1       1.0000 0.77530  0.07698  0.21054  Biso   1.000  O
  O2       1.0000 0.81534  0.03842  0.16301  Biso   1.000  O
  O3       1.0000 0.53660  0.69560  0.26270  Biso   1.000  O
  O4       1.0000 0.55120  0.62790  0.29520  Biso   1.000  O
  C1       1.0000 0.78600  0.02710  0.19320  Biso   1.000  C
  C2       1.0000 0.76390  0.94650  0.21011  Biso   1.000  C
  C3       1.0000 0.73270  0.93110  0.24414  Biso   1.000  C
  H1       1.0000 0.72310  0.96950  0.25540  Biso   1.000  H
  C4       1.0000 0.62390  0.76820  0.30910  Biso   1.000  C
  C5       1.0000 0.72420  0.90830  0.32160  Biso   1.000  C
  H2       1.0000 0.76120  0.96070  0.31320  Biso   1.000  H
  C6       1.0000 0.57360  0.69190  0.28580  Biso   1.000  C
  O5       1.0000 0.44197  0.41031  0.54387  Biso   1.000  O
  O6       1.0000 0.48201  0.37175  0.49634  Biso   1.000  O
  O7       1.0000 0.20327  0.02893  0.59603  Biso   1.000  O
  O8       1.0000 0.21787  0.96123  0.62853  Biso   1.000  O
  C7       1.0000 0.45267  0.36043  0.52653  Biso   1.000  C
  C8       1.0000 0.43057  0.27983  0.54344  Biso   1.000  C
  C9       1.0000 0.39937  0.26443  0.57747  Biso   1.000  C
  H3       1.0000 0.38977  0.30283  0.58873  Biso   1.000  H
  C10      1.0000 0.29057  0.10153  0.64243  Biso   1.000  C
  C11      1.0000 0.39087  0.24163  0.65493  Biso   1.000  C
  H4       1.0000 0.42787  0.29403  0.64653  Biso   1.000  H
  C12      1.0000 0.24027  0.02523  0.61913  Biso   1.000  C
  O9       1.0000 0.10863  0.74365  0.87721  Biso   1.000  O
  O10      1.0000 0.14867  0.70509  0.82968  Biso   1.000  O
  O11      1.0000 0.86993  0.36227  0.92937  Biso   1.000  O
  O12      1.0000 0.88453  0.29457  0.96187  Biso   1.000  O
  C13      1.0000 0.11933  0.69377  0.85987  Biso   1.000  C
  C14      1.0000 0.09723  0.61317  0.87678  Biso   1.000  C
  C15      1.0000 0.06603  0.59777  0.91081  Biso   1.000  C
  H5       1.0000 0.05643  0.63617  0.92207  Biso   1.000  H
  C16      1.0000 0.95723  0.43487  0.97577  Biso   1.000  C
  C17      1.0000 0.05753  0.57497  0.98827  Biso   1.000  C
  H6       1.0000 0.09453  0.62737  0.97987  Biso   1.000  H
  C18      1.0000 0.90693  0.35857  0.95247  Biso   1.000  C
  O13      1.0000 0.92302  0.69832  0.21054  Biso   1.000  O
  O14      1.0000 0.96158  0.77692  0.16301  Biso   1.000  O
  O15      1.0000 0.30440  0.84100  0.26270  Biso   1.000  O
  O16      1.0000 0.37210  0.92330  0.29520  Biso   1.000  O
  C19      1.0000 0.97290  0.75890  0.19320  Biso   1.000  C
  C20      1.0000 0.05350  0.81740  0.21011  Biso   1.000  C
  C21      1.0000 0.06890  0.80160  0.24414  Biso   1.000  C
  H7       1.0000 0.03050  0.75360  0.25540  Biso   1.000  H
  C22      1.0000 0.23180  0.85570  0.30910  Biso   1.000  C
  C23      1.0000 0.09170  0.81590  0.32160  Biso   1.000  C
  H8       1.0000 0.03930  0.80050  0.31320  Biso   1.000  H
  C24      1.0000 0.30810  0.88170  0.28580  Biso   1.000  C
  O17      1.0000 0.58969  0.03165  0.54387  Biso   1.000  O
  O18      1.0000 0.62825  0.11025  0.49634  Biso   1.000  O
  O19      1.0000 0.97107  0.17433  0.59603  Biso   1.000  O
  O20      1.0000 0.03877  0.25663  0.62853  Biso   1.000  O
  C25      1.0000 0.63957  0.09223  0.52653  Biso   1.000  C
  C26      1.0000 0.72017  0.15073  0.54344  Biso   1.000  C
  C27      1.0000 0.73557  0.13493  0.57747  Biso   1.000  C
  H9       1.0000 0.69717  0.08693  0.58873  Biso   1.000  H
  C28      1.0000 0.89847  0.18903  0.64243  Biso   1.000  C
  C29      1.0000 0.75837  0.14923  0.65493  Biso   1.000  C
  H10      1.0000 0.70597  0.13383  0.64653  Biso   1.000  H
  C30      1.0000 0.97477  0.21503  0.61913  Biso   1.000  C
  O21      1.0000 0.25635  0.36499  0.87721  Biso   1.000  O
  O22      1.0000 0.29491  0.44359  0.82968  Biso   1.000  O
  O23      1.0000 0.63773  0.50767  0.92937  Biso   1.000  O
  O24      1.0000 0.70543  0.58997  0.96187  Biso   1.000  O
  C31      1.0000 0.30623  0.42557  0.85987  Biso   1.000  C
  C32      1.0000 0.38683  0.48407  0.87678  Biso   1.000  C
  C33      1.0000 0.40223  0.46827  0.91081  Biso   1.000  C
  H11      1.0000 0.36383  0.42027  0.92207  Biso   1.000  H
  C34      1.0000 0.56513  0.52237  0.97577  Biso   1.000  C
  C35      1.0000 0.42503  0.48257  0.98827  Biso   1.000  C
  H12      1.0000 0.37263  0.46717  0.97987  Biso   1.000  H
  C36      1.0000 0.64143  0.54837  0.95247  Biso   1.000  C
  O25      1.0000 0.30168  0.22470  0.21054  Biso   1.000  O
  O26      1.0000 0.22308  0.18466  0.16301  Biso   1.000  O
  O27      1.0000 0.15900  0.46340  0.26270  Biso   1.000  O
  O28      1.0000 0.07670  0.44880  0.29520  Biso   1.000  O
  C37      1.0000 0.24110  0.21400  0.19320  Biso   1.000  C
  C38      1.0000 0.18260  0.23610  0.21011  Biso   1.000  C
  C39      1.0000 0.19840  0.26730  0.24414  Biso   1.000  C
  H13      1.0000 0.24640  0.27690  0.25540  Biso   1.000  H
  C40      1.0000 0.14430  0.37610  0.30910  Biso   1.000  C
  C41      1.0000 0.18410  0.27580  0.32160  Biso   1.000  C
  H14      1.0000 0.19950  0.23880  0.31320  Biso   1.000  H
  C42      1.0000 0.11830  0.42640  0.28580  Biso   1.000  C
  O29      1.0000 0.96835  0.55803  0.54387  Biso   1.000  O
  O30      1.0000 0.88975  0.51799  0.49634  Biso   1.000  O
  O31      1.0000 0.82567  0.79673  0.59603  Biso   1.000  O
  O32      1.0000 0.74337  0.78213  0.62853  Biso   1.000  O
  C43      1.0000 0.90777  0.54733  0.52653  Biso   1.000  C
  C44      1.0000 0.84927  0.56943  0.54344  Biso   1.000  C
  C45      1.0000 0.86507  0.60063  0.57747  Biso   1.000  C
  H15      1.0000 0.91307  0.61023  0.58873  Biso   1.000  H
  C46      1.0000 0.81097  0.70943  0.64243  Biso   1.000  C
  C47      1.0000 0.85077  0.60913  0.65493  Biso   1.000  C
  H16      1.0000 0.86617  0.57213  0.64653  Biso   1.000  H
  C48      1.0000 0.78497  0.75973  0.61913  Biso   1.000  C
  O33      1.0000 0.63501  0.89137  0.87721  Biso   1.000  O
  O34      1.0000 0.55641  0.85133  0.82968  Biso   1.000  O
  O35      1.0000 0.49233  0.13007  0.92937  Biso   1.000  O
  O36      1.0000 0.41003  0.11547  0.96187  Biso   1.000  O
  C49      1.0000 0.57443  0.88067  0.85987  Biso   1.000  C
  C50      1.0000 0.51593  0.90277  0.87678  Biso   1.000  C
  C51      1.0000 0.53173  0.93397  0.91081  Biso   1.000  C
  H17      1.0000 0.57973  0.94357  0.92207  Biso   1.000  H
  C52      1.0000 0.47763  0.04277  0.97577  Biso   1.000  C
  C53      1.0000 0.51743  0.94247  0.98827  Biso   1.000  C
  H18      1.0000 0.53283  0.90547  0.97987  Biso   1.000  H
  C54      1.0000 0.45163  0.09307  0.95247  Biso   1.000  C
  O37      1.0000 0.07698  0.77530  0.78946  Biso   1.000  O
  O38      1.0000 0.03842  0.81534  0.83699  Biso   1.000  O
  O39      1.0000 0.69560  0.53660  0.73730  Biso   1.000  O
  O40      1.0000 0.62790  0.55120  0.70480  Biso   1.000  O
  C55      1.0000 0.02710  0.78600  0.80680  Biso   1.000  C
  C56      1.0000 0.94650  0.76390  0.78989  Biso   1.000  C
  C57      1.0000 0.93110  0.73270  0.75586  Biso   1.000  C
  H19      1.0000 0.96950  0.72310  0.74460  Biso   1.000  H
  C58      1.0000 0.76820  0.62390  0.69090  Biso   1.000  C
  C59      1.0000 0.90830  0.72420  0.67840  Biso   1.000  C
  H20      1.0000 0.96070  0.76120  0.68680  Biso   1.000  H
  C60      1.0000 0.69190  0.57360  0.71420  Biso   1.000  C
  O41      1.0000 0.74365  0.10863  0.12279  Biso   1.000  O
  O42      1.0000 0.70509  0.14867  0.17032  Biso   1.000  O
  O43      1.0000 0.36227  0.86993  0.07063  Biso   1.000  O
  O44      1.0000 0.29457  0.88453  0.03813  Biso   1.000  O
  C61      1.0000 0.69377  0.11933  0.14013  Biso   1.000  C
  C62      1.0000 0.61317  0.09723  0.12322  Biso   1.000  C
  C63      1.0000 0.59777  0.06603  0.08919  Biso   1.000  C
  H21      1.0000 0.63617  0.05643  0.07793  Biso   1.000  H
  C64      1.0000 0.43487  0.95723  0.02423  Biso   1.000  C
  C65      1.0000 0.57497  0.05753  0.01173  Biso   1.000  C
  H22      1.0000 0.62737  0.09453  0.02013  Biso   1.000  H
  C66      1.0000 0.35857  0.90693  0.04753  Biso   1.000  C
  O45      1.0000 0.41031  0.44197  0.45613  Biso   1.000  O
  O46      1.0000 0.37175  0.48201  0.50366  Biso   1.000  O
  O47      1.0000 0.02893  0.20327  0.40397  Biso   1.000  O
  O48      1.0000 0.96123  0.21787  0.37147  Biso   1.000  O
  C67      1.0000 0.36043  0.45267  0.47347  Biso   1.000  C
  C68      1.0000 0.27983  0.43057  0.45656  Biso   1.000  C
  C69      1.0000 0.26443  0.39937  0.42253  Biso   1.000  C
  H23      1.0000 0.30283  0.38977  0.41127  Biso   1.000  H
  C70      1.0000 0.10153  0.29057  0.35757  Biso   1.000  C
  C71      1.0000 0.24163  0.39087  0.34507  Biso   1.000  C
  H24      1.0000 0.29403  0.42787  0.35347  Biso   1.000  H
  C72      1.0000 0.02523  0.24027  0.38087  Biso   1.000  C
  O49      1.0000 0.69832  0.92302  0.78946  Biso   1.000  O
  O50      1.0000 0.77692  0.96158  0.83699  Biso   1.000  O
  O51      1.0000 0.84100  0.30440  0.73730  Biso   1.000  O
  O52      1.0000 0.92330  0.37210  0.70480  Biso   1.000  O
  C73      1.0000 0.75890  0.97290  0.80680  Biso   1.000  C
  C74      1.0000 0.81740  0.05350  0.78989  Biso   1.000  C
  C75      1.0000 0.80160  0.06890  0.75586  Biso   1.000  C
  H25      1.0000 0.75360  0.03050  0.74460  Biso   1.000  H
  C76      1.0000 0.85570  0.23180  0.69090  Biso   1.000  C
  C77      1.0000 0.81590  0.09170  0.67840  Biso   1.000  C
  H26      1.0000 0.80050  0.03930  0.68680  Biso   1.000  H
  C78      1.0000 0.88170  0.30810  0.71420  Biso   1.000  C
  O53      1.0000 0.36499  0.25635  0.12279  Biso   1.000  O
  O54      1.0000 0.44359  0.29491  0.17032  Biso   1.000  O
  O55      1.0000 0.50767  0.63773  0.07063  Biso   1.000  O
  O56      1.0000 0.58997  0.70543  0.03813  Biso   1.000  O
  C79      1.0000 0.42557  0.30623  0.14013  Biso   1.000  C
  C80      1.0000 0.48407  0.38683  0.12322  Biso   1.000  C
  C81      1.0000 0.46827  0.40223  0.08919  Biso   1.000  C
  H27      1.0000 0.42027  0.36383  0.07793  Biso   1.000  H
  C82      1.0000 0.52237  0.56513  0.02423  Biso   1.000  C
  C83      1.0000 0.48257  0.42503  0.01173  Biso   1.000  C
  H28      1.0000 0.46717  0.37263  0.02013  Biso   1.000  H
  C84      1.0000 0.54837  0.64143  0.04753  Biso   1.000  C
  O57      1.0000 0.03165  0.58969  0.45613  Biso   1.000  O
  O58      1.0000 0.11025  0.62825  0.50366  Biso   1.000  O
  O59      1.0000 0.17433  0.97107  0.40397  Biso   1.000  O
  O60      1.0000 0.25663  0.03877  0.37147  Biso   1.000  O
  C85      1.0000 0.09223  0.63957  0.47347  Biso   1.000  C
  C86      1.0000 0.15073  0.72017  0.45656  Biso   1.000  C
  C87      1.0000 0.13493  0.73557  0.42253  Biso   1.000  C
  H29      1.0000 0.08693  0.69717  0.41127  Biso   1.000  H
  C88      1.0000 0.18903  0.89847  0.35757  Biso   1.000  C
  C89      1.0000 0.14923  0.75837  0.34507  Biso   1.000  C
  H30      1.0000 0.13383  0.70597  0.35347  Biso   1.000  H
  C90      1.0000 0.21503  0.97477  0.38087  Biso   1.000  C
  O61      1.0000 0.22470  0.30168  0.78946  Biso   1.000  O
  O62      1.0000 0.18466  0.22308  0.83699  Biso   1.000  O
  O63      1.0000 0.46340  0.15900  0.73730  Biso   1.000  O
  O64      1.0000 0.44880  0.07670  0.70480  Biso   1.000  O
  C91      1.0000 0.21400  0.24110  0.80680  Biso   1.000  C
  C92      1.0000 0.23610  0.18260  0.78989  Biso   1.000  C
  C93      1.0000 0.26730  0.19840  0.75586  Biso   1.000  C
  H31      1.0000 0.27690  0.24640  0.74460  Biso   1.000  H
  C94      1.0000 0.37610  0.14430  0.69090  Biso   1.000  C
  C95      1.0000 0.27580  0.18410  0.67840  Biso   1.000  C
  H32      1.0000 0.23880  0.19950  0.68680  Biso   1.000  H
  C96      1.0000 0.42640  0.11830  0.71420  Biso   1.000  C
  O65      1.0000 0.89137  0.63501  0.12279  Biso   1.000  O
  O66      1.0000 0.85133  0.55641  0.17032  Biso   1.000  O
  O67      1.0000 0.13007  0.49233  0.07063  Biso   1.000  O
  O68      1.0000 0.11547  0.41003  0.03813  Biso   1.000  O
  C97      1.0000 0.88067  0.57443  0.14013  Biso   1.000  C
  C98      1.0000 0.90277  0.51593  0.12322  Biso   1.000  C
  C99      1.0000 0.93397  0.53173  0.08919  Biso   1.000  C
  H33      1.0000 0.94357  0.57973  0.07793  Biso   1.000  H
  C100     1.0000 0.04277  0.47763  0.02423  Biso   1.000  C
  C101     1.0000 0.94247  0.51743  0.01173  Biso   1.000  C
  H34      1.0000 0.90547  0.53283  0.02013  Biso   1.000  H
  C102     1.0000 0.09307  0.45163  0.04753  Biso   1.000  C
  O69      1.0000 0.55803  0.96835  0.45613  Biso   1.000  O
  O70      1.0000 0.51799  0.88975  0.50366  Biso   1.000  O
  O71      1.0000 0.79673  0.82567  0.40397  Biso   1.000  O
  O72      1.0000 0.78213  0.74337  0.37147  Biso   1.000  O
  C103     1.0000 0.54733  0.90777  0.47347  Biso   1.000  C
  C104     1.0000 0.56943  0.84927  0.45656  Biso   1.000  C
  C105     1.0000 0.60063  0.86507  0.42253  Biso   1.000  C
  H35      1.0000 0.61023  0.91307  0.41127  Biso   1.000  H
  C106     1.0000 0.70943  0.81097  0.35757  Biso   1.000  C
  C107     1.0000 0.60913  0.85077  0.34507  Biso   1.000  C
  H36      1.0000 0.57213  0.86617  0.35347  Biso   1.000  H
  C108     1.0000 0.75973  0.78497  0.38087  Biso   1.000  C
  O73      1.0000 0.22470  0.92302  0.78946  Biso   1.000  O
  O74      1.0000 0.18466  0.96158  0.83699  Biso   1.000  O
  O75      1.0000 0.46340  0.30440  0.73730  Biso   1.000  O
  O76      1.0000 0.44880  0.37210  0.70480  Biso   1.000  O
  C109     1.0000 0.21400  0.97290  0.80680  Biso   1.000  C
  C110     1.0000 0.23610  0.05350  0.78989  Biso   1.000  C
  C111     1.0000 0.26730  0.06890  0.75586  Biso   1.000  C
  H37      1.0000 0.27690  0.03050  0.74460  Biso   1.000  H
  C112     1.0000 0.37610  0.23180  0.69090  Biso   1.000  C
  C113     1.0000 0.27580  0.09170  0.67840  Biso   1.000  C
  H38      1.0000 0.23880  0.03930  0.68680  Biso   1.000  H
  C114     1.0000 0.42640  0.30810  0.71420  Biso   1.000  C
  O77      1.0000 0.89137  0.25635  0.12279  Biso   1.000  O
  O78      1.0000 0.85133  0.29491  0.17032  Biso   1.000  O
  O79      1.0000 0.13007  0.63773  0.07063  Biso   1.000  O
  O80      1.0000 0.11547  0.70543  0.03813  Biso   1.000  O
  C115     1.0000 0.88067  0.30623  0.14013  Biso   1.000  C
  C116     1.0000 0.90277  0.38683  0.12322  Biso   1.000  C
  C117     1.0000 0.93397  0.40223  0.08919  Biso   1.000  C
  H39      1.0000 0.94357  0.36383  0.07793  Biso   1.000  H
  C118     1.0000 0.04277  0.56513  0.02423  Biso   1.000  C
  C119     1.0000 0.94247  0.42503  0.01173  Biso   1.000  C
  H40      1.0000 0.90547  0.37263  0.02013  Biso   1.000  H
  C120     1.0000 0.09307  0.64143  0.04753  Biso   1.000  C
  O81      1.0000 0.55803  0.58969  0.45613  Biso   1.000  O
  O82      1.0000 0.51799  0.62825  0.50366  Biso   1.000  O
  O83      1.0000 0.79673  0.97107  0.40397  Biso   1.000  O
  O84      1.0000 0.78213  0.03877  0.37147  Biso   1.000  O
  C121     1.0000 0.54733  0.63957  0.47347  Biso   1.000  C
  C122     1.0000 0.56943  0.72017  0.45656  Biso   1.000  C
  C123     1.0000 0.60063  0.73557  0.42253  Biso   1.000  C
  H41      1.0000 0.61023  0.69717  0.41127  Biso   1.000  H
  C124     1.0000 0.70943  0.89847  0.35757  Biso   1.000  C
  C125     1.0000 0.60913  0.75837  0.34507  Biso   1.000  C
  H42      1.0000 0.57213  0.70597  0.35347  Biso   1.000  H
  C126     1.0000 0.75973  0.97477  0.38087  Biso   1.000  C
  O85      1.0000 0.07698  0.30168  0.78946  Biso   1.000  O
  O86      1.0000 0.03842  0.22308  0.83699  Biso   1.000  O
  O87      1.0000 0.69560  0.15900  0.73730  Biso   1.000  O
  O88      1.0000 0.62790  0.07670  0.70480  Biso   1.000  O
  C127     1.0000 0.02710  0.24110  0.80680  Biso   1.000  C
  C128     1.0000 0.94650  0.18260  0.78989  Biso   1.000  C
  C129     1.0000 0.93110  0.19840  0.75586  Biso   1.000  C
  H43      1.0000 0.96950  0.24640  0.74460  Biso   1.000  H
  C130     1.0000 0.76820  0.14430  0.69090  Biso   1.000  C
  C131     1.0000 0.90830  0.18410  0.67840  Biso   1.000  C
  H44      1.0000 0.96070  0.19950  0.68680  Biso   1.000  H
  C132     1.0000 0.69190  0.11830  0.71420  Biso   1.000  C
  O89      1.0000 0.74365  0.63501  0.12279  Biso   1.000  O
  O90      1.0000 0.70509  0.55641  0.17032  Biso   1.000  O
  O91      1.0000 0.36227  0.49233  0.07063  Biso   1.000  O
  O92      1.0000 0.29457  0.41003  0.03813  Biso   1.000  O
  C133     1.0000 0.69377  0.57443  0.14013  Biso   1.000  C
  C134     1.0000 0.61317  0.51593  0.12322  Biso   1.000  C
  C135     1.0000 0.59777  0.53173  0.08919  Biso   1.000  C
  H45      1.0000 0.63617  0.57973  0.07793  Biso   1.000  H
  C136     1.0000 0.43487  0.47763  0.02423  Biso   1.000  C
  C137     1.0000 0.57497  0.51743  0.01173  Biso   1.000  C
  H46      1.0000 0.62737  0.53283  0.02013  Biso   1.000  H
  C138     1.0000 0.35857  0.45163  0.04753  Biso   1.000  C
  O93      1.0000 0.41031  0.96835  0.45613  Biso   1.000  O
  O94      1.0000 0.37175  0.88975  0.50366  Biso   1.000  O
  O95      1.0000 0.02893  0.82567  0.40397  Biso   1.000  O
  O96      1.0000 0.96123  0.74337  0.37147  Biso   1.000  O
  C139     1.0000 0.36043  0.90777  0.47347  Biso   1.000  C
  C140     1.0000 0.27983  0.84927  0.45656  Biso   1.000  C
  C141     1.0000 0.26443  0.86507  0.42253  Biso   1.000  C
  H47      1.0000 0.30283  0.91307  0.41127  Biso   1.000  H
  C142     1.0000 0.10153  0.81097  0.35757  Biso   1.000  C
  C143     1.0000 0.24163  0.85077  0.34507  Biso   1.000  C
  H48      1.0000 0.29403  0.86617  0.35347  Biso   1.000  H
  C144     1.0000 0.02523  0.78497  0.38087  Biso   1.000  C
  O97      1.0000 0.69832  0.77530  0.78946  Biso   1.000  O
  O98      1.0000 0.77692  0.81534  0.83699  Biso   1.000  O
  O99      1.0000 0.84100  0.53660  0.73730  Biso   1.000  O
  O100     1.0000 0.92330  0.55120  0.70480  Biso   1.000  O
  C145     1.0000 0.75890  0.78600  0.80680  Biso   1.000  C
  C146     1.0000 0.81740  0.76390  0.78989  Biso   1.000  C
  C147     1.0000 0.80160  0.73270  0.75586  Biso   1.000  C
  H49      1.0000 0.75360  0.72310  0.74460  Biso   1.000  H
  C148     1.0000 0.85570  0.62390  0.69090  Biso   1.000  C
  C149     1.0000 0.81590  0.72420  0.67840  Biso   1.000  C
  H50      1.0000 0.80050  0.76120  0.68680  Biso   1.000  H
  C150     1.0000 0.88170  0.57360  0.71420  Biso   1.000  C
  O101     1.0000 0.36499  0.10863  0.12279  Biso   1.000  O
  O102     1.0000 0.44359  0.14867  0.17032  Biso   1.000  O
  O103     1.0000 0.50767  0.86993  0.07063  Biso   1.000  O
  O104     1.0000 0.58997  0.88453  0.03813  Biso   1.000  O
  C151     1.0000 0.42557  0.11933  0.14013  Biso   1.000  C
  C152     1.0000 0.48407  0.09723  0.12322  Biso   1.000  C
  C153     1.0000 0.46827  0.06603  0.08919  Biso   1.000  C
  H51      1.0000 0.42027  0.05643  0.07793  Biso   1.000  H
  C154     1.0000 0.52237  0.95723  0.02423  Biso   1.000  C
  C155     1.0000 0.48257  0.05753  0.01173  Biso   1.000  C
  H52      1.0000 0.46717  0.09453  0.02013  Biso   1.000  H
  C156     1.0000 0.54837  0.90693  0.04753  Biso   1.000  C
  O105     1.0000 0.03165  0.44197  0.45613  Biso   1.000  O
  O106     1.0000 0.11025  0.48201  0.50366  Biso   1.000  O
  O107     1.0000 0.17433  0.20327  0.40397  Biso   1.000  O
  O108     1.0000 0.25663  0.21787  0.37147  Biso   1.000  O
  C157     1.0000 0.09223  0.45267  0.47347  Biso   1.000  C
  C158     1.0000 0.15073  0.43057  0.45656  Biso   1.000  C
  C159     1.0000 0.13493  0.39937  0.42253  Biso   1.000  C
  H53      1.0000 0.08693  0.38977  0.41127  Biso   1.000  H
  C160     1.0000 0.18903  0.29057  0.35757  Biso   1.000  C
  C161     1.0000 0.14923  0.39087  0.34507  Biso   1.000  C
  H54      1.0000 0.13383  0.42787  0.35347  Biso   1.000  H
  C162     1.0000 0.21503  0.24027  0.38087  Biso   1.000  C
  O109     1.0000 0.92302  0.22470  0.21054  Biso   1.000  O
  O110     1.0000 0.96158  0.18466  0.16301  Biso   1.000  O
  O111     1.0000 0.30440  0.46340  0.26270  Biso   1.000  O
  O112     1.0000 0.37210  0.44880  0.29520  Biso   1.000  O
  C163     1.0000 0.97290  0.21400  0.19320  Biso   1.000  C
  C164     1.0000 0.05350  0.23610  0.21011  Biso   1.000  C
  C165     1.0000 0.06890  0.26730  0.24414  Biso   1.000  C
  H55      1.0000 0.03050  0.27690  0.25540  Biso   1.000  H
  C166     1.0000 0.23180  0.37610  0.30910  Biso   1.000  C
  C167     1.0000 0.09170  0.27580  0.32160  Biso   1.000  C
  H56      1.0000 0.03930  0.23880  0.31320  Biso   1.000  H
  C168     1.0000 0.30810  0.42640  0.28580  Biso   1.000  C
  O113     1.0000 0.58969  0.55803  0.54387  Biso   1.000  O
  O114     1.0000 0.62825  0.51799  0.49634  Biso   1.000  O
  O115     1.0000 0.97107  0.79673  0.59603  Biso   1.000  O
  O116     1.0000 0.03877  0.78213  0.62853  Biso   1.000  O
  C169     1.0000 0.63957  0.54733  0.52653  Biso   1.000  C
  C170     1.0000 0.72017  0.56943  0.54344  Biso   1.000  C
  C171     1.0000 0.73557  0.60063  0.57747  Biso   1.000  C
  H57      1.0000 0.69717  0.61023  0.58873  Biso   1.000  H
  C172     1.0000 0.89847  0.70943  0.64243  Biso   1.000  C
  C173     1.0000 0.75837  0.60913  0.65493  Biso   1.000  C
  H58      1.0000 0.70597  0.57213  0.64653  Biso   1.000  H
  C174     1.0000 0.97477  0.75973  0.61913  Biso   1.000  C
  O117     1.0000 0.25635  0.89137  0.87721  Biso   1.000  O
  O118     1.0000 0.29491  0.85133  0.82968  Biso   1.000  O
  O119     1.0000 0.63773  0.13007  0.92937  Biso   1.000  O
  O120     1.0000 0.70543  0.11547  0.96187  Biso   1.000  O
  C175     1.0000 0.30623  0.88067  0.85987  Biso   1.000  C
  C176     1.0000 0.38683  0.90277  0.87678  Biso   1.000  C
  C177     1.0000 0.40223  0.93397  0.91081  Biso   1.000  C
  H59      1.0000 0.36383  0.94357  0.92207  Biso   1.000  H
  C178     1.0000 0.56513  0.04277  0.97577  Biso   1.000  C
  C179     1.0000 0.42503  0.94247  0.98827  Biso   1.000  C
  H60      1.0000 0.37263  0.90547  0.97987  Biso   1.000  H
  C180     1.0000 0.64143  0.09307  0.95247  Biso   1.000  C
  O121     1.0000 0.30168  0.07698  0.21054  Biso   1.000  O
  O122     1.0000 0.22308  0.03842  0.16301  Biso   1.000  O
  O123     1.0000 0.15900  0.69560  0.26270  Biso   1.000  O
  O124     1.0000 0.07670  0.62790  0.29520  Biso   1.000  O
  C181     1.0000 0.24110  0.02710  0.19320  Biso   1.000  C
  C182     1.0000 0.18260  0.94650  0.21011  Biso   1.000  C
  C183     1.0000 0.19840  0.93110  0.24414  Biso   1.000  C
  H61      1.0000 0.24640  0.96950  0.25540  Biso   1.000  H
  C184     1.0000 0.14430  0.76820  0.30910  Biso   1.000  C
  C185     1.0000 0.18410  0.90830  0.32160  Biso   1.000  C
  H62      1.0000 0.19950  0.96070  0.31320  Biso   1.000  H
  C186     1.0000 0.11830  0.69190  0.28580  Biso   1.000  C
  O125     1.0000 0.96835  0.41031  0.54387  Biso   1.000  O
  O126     1.0000 0.88975  0.37175  0.49634  Biso   1.000  O
  O127     1.0000 0.82567  0.02893  0.59603  Biso   1.000  O
  O128     1.0000 0.74337  0.96123  0.62853  Biso   1.000  O
  C187     1.0000 0.90777  0.36043  0.52653  Biso   1.000  C
  C188     1.0000 0.84927  0.27983  0.54344  Biso   1.000  C
  C189     1.0000 0.86507  0.26443  0.57747  Biso   1.000  C
  H63      1.0000 0.91307  0.30283  0.58873  Biso   1.000  H
  C190     1.0000 0.81097  0.10153  0.64243  Biso   1.000  C
  C191     1.0000 0.85077  0.24163  0.65493  Biso   1.000  C
  H64      1.0000 0.86617  0.29403  0.64653  Biso   1.000  H
  C192     1.0000 0.78497  0.02523  0.61913  Biso   1.000  C
  O129     1.0000 0.63501  0.74365  0.87721  Biso   1.000  O
  O130     1.0000 0.55641  0.70509  0.82968  Biso   1.000  O
  O131     1.0000 0.49233  0.36227  0.92937  Biso   1.000  O
  O132     1.0000 0.41003  0.29457  0.96187  Biso   1.000  O
  C193     1.0000 0.57443  0.69377  0.85987  Biso   1.000  C
  C194     1.0000 0.51593  0.61317  0.87678  Biso   1.000  C
  C195     1.0000 0.53173  0.59777  0.91081  Biso   1.000  C
  H65      1.0000 0.57973  0.63617  0.92207  Biso   1.000  H
  C196     1.0000 0.47763  0.43487  0.97577  Biso   1.000  C
  C197     1.0000 0.51743  0.57497  0.98827  Biso   1.000  C
  H66      1.0000 0.53283  0.62737  0.97987  Biso   1.000  H
  C198     1.0000 0.45163  0.35857  0.95247  Biso   1.000  C
  O133     1.0000 0.77530  0.69832  0.21054  Biso   1.000  O
  O134     1.0000 0.81534  0.77692  0.16301  Biso   1.000  O
  O135     1.0000 0.53660  0.84100  0.26270  Biso   1.000  O
  O136     1.0000 0.55120  0.92330  0.29520  Biso   1.000  O
  C199     1.0000 0.78600  0.75890  0.19320  Biso   1.000  C
  C200     1.0000 0.76390  0.81740  0.21011  Biso   1.000  C
  C201     1.0000 0.73270  0.80160  0.24414  Biso   1.000  C
  H67      1.0000 0.72310  0.75360  0.25540  Biso   1.000  H
  C202     1.0000 0.62390  0.85570  0.30910  Biso   1.000  C
  C203     1.0000 0.72420  0.81590  0.32160  Biso   1.000  C
  H68      1.0000 0.76120  0.80050  0.31320  Biso   1.000  H
  C204     1.0000 0.57360  0.88170  0.28580  Biso   1.000  C
  O137     1.0000 0.44197  0.03165  0.54387  Biso   1.000  O
  O138     1.0000 0.48201  0.11025  0.49634  Biso   1.000  O
  O139     1.0000 0.20327  0.17433  0.59603  Biso   1.000  O
  O140     1.0000 0.21787  0.25663  0.62853  Biso   1.000  O
  C205     1.0000 0.45267  0.09223  0.52653  Biso   1.000  C
  C206     1.0000 0.43057  0.15073  0.54344  Biso   1.000  C
  C207     1.0000 0.39937  0.13493  0.57747  Biso   1.000  C
  H69      1.0000 0.38977  0.08693  0.58873  Biso   1.000  H
  C208     1.0000 0.29057  0.18903  0.64243  Biso   1.000  C
  C209     1.0000 0.39087  0.14923  0.65493  Biso   1.000  C
  H70      1.0000 0.42787  0.13383  0.64653  Biso   1.000  H
  C210     1.0000 0.24027  0.21503  0.61913  Biso   1.000  C
  O141     1.0000 0.10863  0.36499  0.87721  Biso   1.000  O
  O142     1.0000 0.14867  0.44359  0.82968  Biso   1.000  O
  O143     1.0000 0.86993  0.50767  0.92937  Biso   1.000  O
  O144     1.0000 0.88453  0.58997  0.96187  Biso   1.000  O
  C211     1.0000 0.11933  0.42557  0.85987  Biso   1.000  C
  C212     1.0000 0.09723  0.48407  0.87678  Biso   1.000  C
  C213     1.0000 0.06603  0.46827  0.91081  Biso   1.000  C
  H71      1.0000 0.05643  0.42027  0.92207  Biso   1.000  H
  C214     1.0000 0.95723  0.52237  0.97577  Biso   1.000  C
  C215     1.0000 0.05753  0.48257  0.98827  Biso   1.000  C
  H72      1.0000 0.09453  0.46717  0.97987  Biso   1.000  H
  C216     1.0000 0.90693  0.54837  0.95247  Biso   1.000  C
  Cu1      1.0000 0.85664  0.14336  0.13827  Biso   1.000  Cu
  Cu2      1.0000 0.52331  0.47669  0.47160  Biso   1.000  Cu
  Cu3      1.0000 0.18997  0.81003  0.80494  Biso   1.000  Cu
  Cu4      1.0000 0.85664  0.71328  0.13827  Biso   1.000  Cu
  Cu5      1.0000 0.52331  0.04661  0.47160  Biso   1.000  Cu
  Cu6      1.0000 0.18997  0.37995  0.80494  Biso   1.000  Cu
  Cu7      1.0000 0.28672  0.14336  0.13827  Biso   1.000  Cu
  Cu8      1.0000 0.95339  0.47669  0.47160  Biso   1.000  Cu
  Cu9      1.0000 0.62005  0.81003  0.80494  Biso   1.000  Cu
  Cu10     1.0000 0.14336  0.85664  0.86173  Biso   1.000  Cu
  Cu11     1.0000 0.81003  0.18997  0.19506  Biso   1.000  Cu
  Cu12     1.0000 0.47669  0.52331  0.52840  Biso   1.000  Cu
  Cu13     1.0000 0.71328  0.85664  0.86173  Biso   1.000  Cu
  Cu14     1.0000 0.37995  0.18997  0.19506  Biso   1.000  Cu
  Cu15     1.0000 0.04661  0.52331  0.52840  Biso   1.000  Cu
  Cu16     1.0000 0.14336  0.28672  0.86173  Biso   1.000  Cu
  Cu17     1.0000 0.81003  0.62005  0.19506  Biso   1.000  Cu
  Cu18     1.0000 0.47669  0.95339  0.52840  Biso   1.000  Cu
  C217     1.0000 0.77980  0.88990  0.19354  Biso   1.000  C
  H73      1.0000 0.80140  0.90070  0.17110  Biso   1.000  H
  C218     1.0000 0.71560  0.85780  0.26148  Biso   1.000  C
  C219     1.0000 0.68620  0.84310  0.29758  Biso   1.000  C
  C220     1.0000 0.44647  0.22323  0.52687  Biso   1.000  C
  H74      1.0000 0.46807  0.23403  0.50443  Biso   1.000  H
  C221     1.0000 0.38227  0.19113  0.59481  Biso   1.000  C
  C222     1.0000 0.35287  0.17643  0.63091  Biso   1.000  C
  C223     1.0000 0.11313  0.55657  0.86021  Biso   1.000  C
  H75      1.0000 0.13473  0.56737  0.83777  Biso   1.000  H
  C224     1.0000 0.04893  0.52447  0.92815  Biso   1.000  C
  C225     1.0000 0.01953  0.50977  0.96425  Biso   1.000  C
  C226     1.0000 0.11010  0.88990  0.19354  Biso   1.000  C
  H76      1.0000 0.09930  0.90070  0.17110  Biso   1.000  H
  C227     1.0000 0.14220  0.85780  0.26148  Biso   1.000  C
  C228     1.0000 0.15690  0.84310  0.29758  Biso   1.000  C
  C229     1.0000 0.77677  0.22323  0.52687  Biso   1.000  C
  H77      1.0000 0.76597  0.23403  0.50443  Biso   1.000  H
  C230     1.0000 0.80887  0.19113  0.59481  Biso   1.000  C
  C231     1.0000 0.82357  0.17643  0.63091  Biso   1.000  C
  C232     1.0000 0.44343  0.55657  0.86021  Biso   1.000  C
  H78      1.0000 0.43263  0.56737  0.83777  Biso   1.000  H
  C233     1.0000 0.47553  0.52447  0.92815  Biso   1.000  C
  C234     1.0000 0.49023  0.50977  0.96425  Biso   1.000  C
  C235     1.0000 0.11010  0.22020  0.19354  Biso   1.000  C
  H79      1.0000 0.09930  0.19860  0.17110  Biso   1.000  H
  C236     1.0000 0.14220  0.28440  0.26148  Biso   1.000  C
  C237     1.0000 0.15690  0.31380  0.29758  Biso   1.000  C
  C238     1.0000 0.77677  0.55353  0.52687  Biso   1.000  C
  H80      1.0000 0.76597  0.53193  0.50443  Biso   1.000  H
  C239     1.0000 0.80887  0.61773  0.59481  Biso   1.000  C
  C240     1.0000 0.82357  0.64713  0.63091  Biso   1.000  C
  C241     1.0000 0.44343  0.88687  0.86021  Biso   1.000  C
  H81      1.0000 0.43263  0.86527  0.83777  Biso   1.000  H
  C242     1.0000 0.47553  0.95107  0.92815  Biso   1.000  C
  C243     1.0000 0.49023  0.98047  0.96425  Biso   1.000  C
  C244     1.0000 0.88990  0.77980  0.80646  Biso   1.000  C
  H82      1.0000 0.90070  0.80140  0.82890  Biso   1.000  H
  C245     1.0000 0.85780  0.71560  0.73852  Biso   1.000  C
  C246     1.0000 0.84310  0.68620  0.70242  Biso   1.000  C
  C247     1.0000 0.55657  0.11313  0.13979  Biso   1.000  C
  H83      1.0000 0.56737  0.13473  0.16223  Biso   1.000  H
  C248     1.0000 0.52447  0.04893  0.07185  Biso   1.000  C
  C249     1.0000 0.50977  0.01953  0.03575  Biso   1.000  C
  C250     1.0000 0.22323  0.44647  0.47313  Biso   1.000  C
  H84      1.0000 0.23403  0.46807  0.49557  Biso   1.000  H
  C251     1.0000 0.19113  0.38227  0.40519  Biso   1.000  C
  C252     1.0000 0.17643  0.35287  0.36909  Biso   1.000  C
  C253     1.0000 0.88990  0.11010  0.80646  Biso   1.000  C
  H85      1.0000 0.90070  0.09930  0.82890  Biso   1.000  H
  C254     1.0000 0.85780  0.14220  0.73852  Biso   1.000  C
  C255     1.0000 0.84310  0.15690  0.70242  Biso   1.000  C
  C256     1.0000 0.55657  0.44343  0.13979  Biso   1.000  C
  H86      1.0000 0.56737  0.43263  0.16223  Biso   1.000  H
  C257     1.0000 0.52447  0.47553  0.07185  Biso   1.000  C
  C258     1.0000 0.50977  0.49023  0.03575  Biso   1.000  C
  C259     1.0000 0.22323  0.77677  0.47313  Biso   1.000  C
  H87      1.0000 0.23403  0.76597  0.49557  Biso   1.000  H
  C260     1.0000 0.19113  0.80887  0.40519  Biso   1.000  C
  C261     1.0000 0.17643  0.82357  0.36909  Biso   1.000  C
  C262     1.0000 0.22020  0.11010  0.80646  Biso   1.000  C
  H88      1.0000 0.19860  0.09930  0.82890  Biso   1.000  H
  C263     1.0000 0.28440  0.14220  0.73852  Biso   1.000  C
  C264     1.0000 0.31380  0.15690  0.70242  Biso   1.000  C
  C265     1.0000 0.88687  0.44343  0.13979  Biso   1.000  C
  H89      1.0000 0.86527  0.43263  0.16223  Biso   1.000  H
  C266     1.0000 0.95107  0.47553  0.07185  Biso   1.000  C
  C267     1.0000 0.98047  0.49023  0.03575  Biso   1.000  C
  C268     1.0000 0.55353  0.77677  0.47313  Biso   1.000  C
  H90      1.0000 0.53193  0.76597  0.49557  Biso   1.000  H
  C269     1.0000 0.61773  0.80887  0.40519  Biso   1.000  C
  C270     1.0000 0.64713  0.82357  0.36909  Biso   1.000  C
