data_image0
_cell_length_a       13.7352
_cell_length_b       17.888
_cell_length_c       11.0251
_cell_angle_alpha    90
_cell_angle_beta     100.46
_cell_angle_gamma    90

_symmetry_space_group_name_H-M    "P 1"
_symmetry_int_tables_number       1

loop_
  _symmetry_equiv_pos_as_xyz
  'x, y, z'

loop_
  _atom_site_label
  _atom_site_occupancy
  _atom_site_fract_x
  _atom_site_fract_y
  _atom_site_fract_z
  _atom_site_thermal_displace_type
  _atom_site_B_iso_or_equiv
  _atom_site_type_symbol
  Cu1      1.0000 0.49891  0.49882  0.47005  Biso   1.000  Cu
  O1       1.0000 0.61200  0.43428  0.55080  Biso   1.000  O
  O2       1.0000 0.66810  0.42480  0.37270  Biso   1.000  O
  C1       1.0000 0.67350  0.41220  0.48420  Biso   1.000  C
  C2       1.0000 0.76075  0.36768  0.55420  Biso   1.000  C
  C3       1.0000 0.82260  0.32950  0.48877  Biso   1.000  C
  H1       1.0000 0.81230  0.33290  0.40320  Biso   1.000  H
  C4       1.0000 0.89980  0.28622  0.55120  Biso   1.000  C
  H2       1.0000 0.94120  0.26070  0.50740  Biso   1.000  H
  C5       1.0000 0.91517  0.28113  0.67900  Biso   1.000  C
  C6       1.0000 0.85330  0.31932  0.74450  Biso   1.000  C
  H3       1.0000 0.86360  0.31590  0.83000  Biso   1.000  H
  C7       1.0000 0.77611  0.36260  0.68210  Biso   1.000  C
  H4       1.0000 0.73470  0.38810  0.72590  Biso   1.000  H
  N1       1.0000 0.40780  0.40958  0.49810  Biso   1.000  N
  H5       1.0000 0.02590  0.20000  0.69210  Biso   1.000  H
  C8       1.0000 0.32300  0.40240  0.41730  Biso   1.000  C
  H6       1.0000 0.30510  0.44030  0.35990  Biso   1.000  H
  C9       1.0000 0.25990  0.34110  0.41460  Biso   1.000  C
  H7       1.0000 0.20250  0.33870  0.35530  Biso   1.000  H
  C10      1.0000 0.28220  0.28323  0.50030  Biso   1.000  C
  C11      1.0000 0.37050  0.29170  0.58550  Biso   1.000  C
  H8       1.0000 0.38950  0.25530  0.64550  Biso   1.000  H
  C12      1.0000 0.43000  0.35430  0.58070  Biso   1.000  C
  H9       1.0000 0.48850  0.35800  0.63810  Biso   1.000  H
  Cu2      1.0000 0.99891  0.99882  0.47005  Biso   1.000  Cu
  O3       1.0000 0.11200  0.93428  0.55080  Biso   1.000  O
  O4       1.0000 0.16810  0.92480  0.37270  Biso   1.000  O
  C13      1.0000 0.17350  0.91220  0.48420  Biso   1.000  C
  C14      1.0000 0.26075  0.86768  0.55420  Biso   1.000  C
  C15      1.0000 0.32260  0.82950  0.48877  Biso   1.000  C
  H10      1.0000 0.31230  0.83290  0.40320  Biso   1.000  H
  C16      1.0000 0.39980  0.78622  0.55120  Biso   1.000  C
  H11      1.0000 0.44120  0.76070  0.50740  Biso   1.000  H
  C17      1.0000 0.41517  0.78113  0.67900  Biso   1.000  C
  C18      1.0000 0.35330  0.81932  0.74450  Biso   1.000  C
  H12      1.0000 0.36360  0.81590  0.83000  Biso   1.000  H
  C19      1.0000 0.27611  0.86260  0.68210  Biso   1.000  C
  H13      1.0000 0.23470  0.88810  0.72590  Biso   1.000  H
  N2       1.0000 0.90780  0.90958  0.49810  Biso   1.000  N
  H14      1.0000 0.52590  0.70000  0.69210  Biso   1.000  H
  C20      1.0000 0.82300  0.90240  0.41730  Biso   1.000  C
  H15      1.0000 0.80510  0.94030  0.35990  Biso   1.000  H
  C21      1.0000 0.75990  0.84110  0.41460  Biso   1.000  C
  H16      1.0000 0.70250  0.83870  0.35530  Biso   1.000  H
  C22      1.0000 0.78220  0.78323  0.50030  Biso   1.000  C
  C23      1.0000 0.87050  0.79170  0.58550  Biso   1.000  C
  H17      1.0000 0.88950  0.75530  0.64550  Biso   1.000  H
  C24      1.0000 0.93000  0.85430  0.58070  Biso   1.000  C
  H18      1.0000 0.98850  0.85800  0.63810  Biso   1.000  H
  Cu3      1.0000 0.50109  0.49882  0.02995  Biso   1.000  Cu
  O5       1.0000 0.38800  0.43428  0.94920  Biso   1.000  O
  O6       1.0000 0.33190  0.42480  0.12730  Biso   1.000  O
  C25      1.0000 0.32650  0.41220  0.01580  Biso   1.000  C
  C26      1.0000 0.23925  0.36768  0.94580  Biso   1.000  C
  C27      1.0000 0.17740  0.32950  0.01123  Biso   1.000  C
  H19      1.0000 0.18770  0.33290  0.09680  Biso   1.000  H
  C28      1.0000 0.10020  0.28622  0.94880  Biso   1.000  C
  H20      1.0000 0.05880  0.26070  0.99260  Biso   1.000  H
  C29      1.0000 0.08483  0.28113  0.82100  Biso   1.000  C
  C30      1.0000 0.14670  0.31932  0.75550  Biso   1.000  C
  H21      1.0000 0.13640  0.31590  0.67000  Biso   1.000  H
  C31      1.0000 0.22389  0.36260  0.81790  Biso   1.000  C
  H22      1.0000 0.26530  0.38810  0.77410  Biso   1.000  H
  N3       1.0000 0.59220  0.40958  0.00190  Biso   1.000  N
  H23      1.0000 0.97410  0.20000  0.80790  Biso   1.000  H
  C32      1.0000 0.67700  0.40240  0.08270  Biso   1.000  C
  H24      1.0000 0.69490  0.44030  0.14010  Biso   1.000  H
  C33      1.0000 0.74010  0.34110  0.08540  Biso   1.000  C
  H25      1.0000 0.79750  0.33870  0.14470  Biso   1.000  H
  C34      1.0000 0.71780  0.28323  0.99970  Biso   1.000  C
  C35      1.0000 0.62950  0.29170  0.91450  Biso   1.000  C
  H26      1.0000 0.61050  0.25530  0.85450  Biso   1.000  H
  C36      1.0000 0.57000  0.35430  0.91930  Biso   1.000  C
  H27      1.0000 0.51150  0.35800  0.86190  Biso   1.000  H
  Cu4      1.0000 0.00109  0.99882  0.02995  Biso   1.000  Cu
  O7       1.0000 0.88800  0.93428  0.94920  Biso   1.000  O
  O8       1.0000 0.83190  0.92480  0.12730  Biso   1.000  O
  C37      1.0000 0.82650  0.91220  0.01580  Biso   1.000  C
  C38      1.0000 0.73925  0.86768  0.94580  Biso   1.000  C
  C39      1.0000 0.67740  0.82950  0.01123  Biso   1.000  C
  H28      1.0000 0.68770  0.83290  0.09680  Biso   1.000  H
  C40      1.0000 0.60020  0.78622  0.94880  Biso   1.000  C
  H29      1.0000 0.55880  0.76070  0.99260  Biso   1.000  H
  C41      1.0000 0.58483  0.78113  0.82100  Biso   1.000  C
  C42      1.0000 0.64670  0.81932  0.75550  Biso   1.000  C
  H30      1.0000 0.63640  0.81590  0.67000  Biso   1.000  H
  C43      1.0000 0.72389  0.86260  0.81790  Biso   1.000  C
  H31      1.0000 0.76530  0.88810  0.77410  Biso   1.000  H
  N4       1.0000 0.09220  0.90958  0.00190  Biso   1.000  N
  H32      1.0000 0.47410  0.70000  0.80790  Biso   1.000  H
  C44      1.0000 0.17700  0.90240  0.08270  Biso   1.000  C
  H33      1.0000 0.19490  0.94030  0.14010  Biso   1.000  H
  C45      1.0000 0.24010  0.84110  0.08540  Biso   1.000  C
  H34      1.0000 0.29750  0.83870  0.14470  Biso   1.000  H
  C46      1.0000 0.21780  0.78323  0.99970  Biso   1.000  C
  C47      1.0000 0.12950  0.79170  0.91450  Biso   1.000  C
  H35      1.0000 0.11050  0.75530  0.85450  Biso   1.000  H
  C48      1.0000 0.07000  0.85430  0.91930  Biso   1.000  C
  H36      1.0000 0.01150  0.85800  0.86190  Biso   1.000  H
  Cu5      1.0000 0.50109  0.50118  0.52995  Biso   1.000  Cu
  O9       1.0000 0.38800  0.56572  0.44920  Biso   1.000  O
  O10      1.0000 0.33190  0.57520  0.62730  Biso   1.000  O
  C49      1.0000 0.32650  0.58780  0.51580  Biso   1.000  C
  C50      1.0000 0.23925  0.63232  0.44580  Biso   1.000  C
  C51      1.0000 0.17740  0.67050  0.51123  Biso   1.000  C
  H37      1.0000 0.18770  0.66710  0.59680  Biso   1.000  H
  C52      1.0000 0.10020  0.71378  0.44880  Biso   1.000  C
  H38      1.0000 0.05880  0.73930  0.49260  Biso   1.000  H
  C53      1.0000 0.08483  0.71887  0.32100  Biso   1.000  C
  C54      1.0000 0.14670  0.68068  0.25550  Biso   1.000  C
  H39      1.0000 0.13640  0.68410  0.17000  Biso   1.000  H
  C55      1.0000 0.22389  0.63740  0.31790  Biso   1.000  C
  H40      1.0000 0.26530  0.61190  0.27410  Biso   1.000  H
  N5       1.0000 0.59220  0.59042  0.50190  Biso   1.000  N
  H41      1.0000 0.97410  0.80000  0.30790  Biso   1.000  H
  C56      1.0000 0.67700  0.59760  0.58270  Biso   1.000  C
  H42      1.0000 0.69490  0.55970  0.64010  Biso   1.000  H
  C57      1.0000 0.74010  0.65890  0.58540  Biso   1.000  C
  H43      1.0000 0.79750  0.66130  0.64470  Biso   1.000  H
  C58      1.0000 0.71780  0.71677  0.49970  Biso   1.000  C
  C59      1.0000 0.62950  0.70830  0.41450  Biso   1.000  C
  H44      1.0000 0.61050  0.74470  0.35450  Biso   1.000  H
  C60      1.0000 0.57000  0.64570  0.41930  Biso   1.000  C
  H45      1.0000 0.51150  0.64200  0.36190  Biso   1.000  H
  Cu6      1.0000 0.00109  0.00118  0.52995  Biso   1.000  Cu
  O11      1.0000 0.88800  0.06572  0.44920  Biso   1.000  O
  O12      1.0000 0.83190  0.07520  0.62730  Biso   1.000  O
  C61      1.0000 0.82650  0.08780  0.51580  Biso   1.000  C
  C62      1.0000 0.73925  0.13232  0.44580  Biso   1.000  C
  C63      1.0000 0.67740  0.17050  0.51123  Biso   1.000  C
  H46      1.0000 0.68770  0.16710  0.59680  Biso   1.000  H
  C64      1.0000 0.60020  0.21378  0.44880  Biso   1.000  C
  H47      1.0000 0.55880  0.23930  0.49260  Biso   1.000  H
  C65      1.0000 0.58483  0.21887  0.32100  Biso   1.000  C
  C66      1.0000 0.64670  0.18068  0.25550  Biso   1.000  C
  H48      1.0000 0.63640  0.18410  0.17000  Biso   1.000  H
  C67      1.0000 0.72389  0.13740  0.31790  Biso   1.000  C
  H49      1.0000 0.76530  0.11190  0.27410  Biso   1.000  H
  N6       1.0000 0.09220  0.09042  0.50190  Biso   1.000  N
  H50      1.0000 0.47410  0.30000  0.30790  Biso   1.000  H
  C68      1.0000 0.17700  0.09760  0.58270  Biso   1.000  C
  H51      1.0000 0.19490  0.05970  0.64010  Biso   1.000  H
  C69      1.0000 0.24010  0.15890  0.58540  Biso   1.000  C
  H52      1.0000 0.29750  0.16130  0.64470  Biso   1.000  H
  C70      1.0000 0.21780  0.21677  0.49970  Biso   1.000  C
  C71      1.0000 0.12950  0.20830  0.41450  Biso   1.000  C
  H53      1.0000 0.11050  0.24470  0.35450  Biso   1.000  H
  C72      1.0000 0.07000  0.14570  0.41930  Biso   1.000  C
  H54      1.0000 0.01150  0.14200  0.36190  Biso   1.000  H
  Cu7      1.0000 0.49891  0.50118  0.97005  Biso   1.000  Cu
  O13      1.0000 0.61200  0.56572  0.05080  Biso   1.000  O
  O14      1.0000 0.66810  0.57520  0.87270  Biso   1.000  O
  C73      1.0000 0.67350  0.58780  0.98420  Biso   1.000  C
  C74      1.0000 0.76075  0.63232  0.05420  Biso   1.000  C
  C75      1.0000 0.82260  0.67050  0.98877  Biso   1.000  C
  H55      1.0000 0.81230  0.66710  0.90320  Biso   1.000  H
  C76      1.0000 0.89980  0.71378  0.05120  Biso   1.000  C
  H56      1.0000 0.94120  0.73930  0.00740  Biso   1.000  H
  C77      1.0000 0.91517  0.71887  0.17900  Biso   1.000  C
  C78      1.0000 0.85330  0.68068  0.24450  Biso   1.000  C
  H57      1.0000 0.86360  0.68410  0.33000  Biso   1.000  H
  C79      1.0000 0.77611  0.63740  0.18210  Biso   1.000  C
  H58      1.0000 0.73470  0.61190  0.22590  Biso   1.000  H
  N7       1.0000 0.40780  0.59042  0.99810  Biso   1.000  N
  H59      1.0000 0.02590  0.80000  0.19210  Biso   1.000  H
  C80      1.0000 0.32300  0.59760  0.91730  Biso   1.000  C
  H60      1.0000 0.30510  0.55970  0.85990  Biso   1.000  H
  C81      1.0000 0.25990  0.65890  0.91460  Biso   1.000  C
  H61      1.0000 0.20250  0.66130  0.85530  Biso   1.000  H
  C82      1.0000 0.28220  0.71677  0.00030  Biso   1.000  C
  C83      1.0000 0.37050  0.70830  0.08550  Biso   1.000  C
  H62      1.0000 0.38950  0.74470  0.14550  Biso   1.000  H
  C84      1.0000 0.43000  0.64570  0.08070  Biso   1.000  C
  H63      1.0000 0.48850  0.64200  0.13810  Biso   1.000  H
  Cu8      1.0000 0.99891  0.00118  0.97005  Biso   1.000  Cu
  O15      1.0000 0.11200  0.06572  0.05080  Biso   1.000  O
  O16      1.0000 0.16810  0.07520  0.87270  Biso   1.000  O
  C85      1.0000 0.17350  0.08780  0.98420  Biso   1.000  C
  C86      1.0000 0.26075  0.13232  0.05420  Biso   1.000  C
  C87      1.0000 0.32260  0.17050  0.98877  Biso   1.000  C
  H64      1.0000 0.31230  0.16710  0.90320  Biso   1.000  H
  C88      1.0000 0.39980  0.21378  0.05120  Biso   1.000  C
  H65      1.0000 0.44120  0.23930  0.00740  Biso   1.000  H
  C89      1.0000 0.41517  0.21887  0.17900  Biso   1.000  C
  C90      1.0000 0.35330  0.18068  0.24450  Biso   1.000  C
  H66      1.0000 0.36360  0.18410  0.33000  Biso   1.000  H
  C91      1.0000 0.27611  0.13740  0.18210  Biso   1.000  C
  H67      1.0000 0.23470  0.11190  0.22590  Biso   1.000  H
  N8       1.0000 0.90780  0.09042  0.99810  Biso   1.000  N
  H68      1.0000 0.52590  0.30000  0.19210  Biso   1.000  H
  C92      1.0000 0.82300  0.09760  0.91730  Biso   1.000  C
  H69      1.0000 0.80510  0.05970  0.85990  Biso   1.000  H
  C93      1.0000 0.75990  0.15890  0.91460  Biso   1.000  C
  H70      1.0000 0.70250  0.16130  0.85530  Biso   1.000  H
  C94      1.0000 0.78220  0.21677  0.00030  Biso   1.000  C
  C95      1.0000 0.87050  0.20830  0.08550  Biso   1.000  C
  H71      1.0000 0.88950  0.24470  0.14550  Biso   1.000  H
  C96      1.0000 0.93000  0.14570  0.08070  Biso   1.000  C
  H72      1.0000 0.98850  0.14200  0.13810  Biso   1.000  H
  C97      1.0000 0.00000  0.23190  0.75000  Biso   1.000  C
  C98      1.0000 0.50000  0.73190  0.75000  Biso   1.000  C
  C99      1.0000 0.00000  0.76810  0.25000  Biso   1.000  C
  C100     1.0000 0.50000  0.26810  0.25000  Biso   1.000  C
