data_image0
_cell_length_a       13.3511
_cell_length_b       13.3511
_cell_length_c       13.3511
_cell_angle_alpha    90
_cell_angle_beta     90
_cell_angle_gamma    90

_symmetry_space_group_name_H-M    "P 1"
_symmetry_int_tables_number       1

loop_
  _symmetry_equiv_pos_as_xyz
  'x, y, z'

loop_
  _atom_site_label
  _atom_site_occupancy
  _atom_site_fract_x
  _atom_site_fract_y
  _atom_site_fract_z
  _atom_site_thermal_displace_type
  _atom_site_B_iso_or_equiv
  _atom_site_type_symbol
  N1       1.0000 0.43860  0.13870  0.96510  Biso   1.000  N
  N2       1.0000 0.43860  0.63870  0.46510  Biso   1.000  N
  N3       1.0000 0.93860  0.13870  0.46510  Biso   1.000  N
  N4       1.0000 0.93860  0.63870  0.96510  Biso   1.000  N
  N5       1.0000 0.56140  0.86130  0.96510  Biso   1.000  N
  N6       1.0000 0.56140  0.36130  0.46510  Biso   1.000  N
  N7       1.0000 0.06140  0.86130  0.46510  Biso   1.000  N
  N8       1.0000 0.06140  0.36130  0.96510  Biso   1.000  N
  N9       1.0000 0.56140  0.13870  0.03490  Biso   1.000  N
  N10      1.0000 0.56140  0.63870  0.53490  Biso   1.000  N
  N11      1.0000 0.06140  0.13870  0.53490  Biso   1.000  N
  N12      1.0000 0.06140  0.63870  0.03490  Biso   1.000  N
  N13      1.0000 0.43860  0.86130  0.03490  Biso   1.000  N
  N14      1.0000 0.43860  0.36130  0.53490  Biso   1.000  N
  N15      1.0000 0.93860  0.86130  0.53490  Biso   1.000  N
  N16      1.0000 0.93860  0.36130  0.03490  Biso   1.000  N
  N17      1.0000 0.96510  0.43860  0.13870  Biso   1.000  N
  N18      1.0000 0.96510  0.93860  0.63870  Biso   1.000  N
  N19      1.0000 0.46510  0.43860  0.63870  Biso   1.000  N
  N20      1.0000 0.46510  0.93860  0.13870  Biso   1.000  N
  N21      1.0000 0.96510  0.56140  0.86130  Biso   1.000  N
  N22      1.0000 0.96510  0.06140  0.36130  Biso   1.000  N
  N23      1.0000 0.46510  0.56140  0.36130  Biso   1.000  N
  N24      1.0000 0.46510  0.06140  0.86130  Biso   1.000  N
  N25      1.0000 0.03490  0.56140  0.13870  Biso   1.000  N
  N26      1.0000 0.03490  0.06140  0.63870  Biso   1.000  N
  N27      1.0000 0.53490  0.56140  0.63870  Biso   1.000  N
  N28      1.0000 0.53490  0.06140  0.13870  Biso   1.000  N
  N29      1.0000 0.03490  0.43860  0.86130  Biso   1.000  N
  N30      1.0000 0.03490  0.93860  0.36130  Biso   1.000  N
  N31      1.0000 0.53490  0.43860  0.36130  Biso   1.000  N
  N32      1.0000 0.53490  0.93860  0.86130  Biso   1.000  N
  N33      1.0000 0.13870  0.96510  0.43860  Biso   1.000  N
  N34      1.0000 0.13870  0.46510  0.93860  Biso   1.000  N
  N35      1.0000 0.63870  0.96510  0.93860  Biso   1.000  N
  N36      1.0000 0.63870  0.46510  0.43860  Biso   1.000  N
  N37      1.0000 0.86130  0.96510  0.56140  Biso   1.000  N
  N38      1.0000 0.86130  0.46510  0.06140  Biso   1.000  N
  N39      1.0000 0.36130  0.96510  0.06140  Biso   1.000  N
  N40      1.0000 0.36130  0.46510  0.56140  Biso   1.000  N
  N41      1.0000 0.13870  0.03490  0.56140  Biso   1.000  N
  N42      1.0000 0.13870  0.53490  0.06140  Biso   1.000  N
  N43      1.0000 0.63870  0.03490  0.06140  Biso   1.000  N
  N44      1.0000 0.63870  0.53490  0.56140  Biso   1.000  N
  N45      1.0000 0.86130  0.03490  0.43860  Biso   1.000  N
  N46      1.0000 0.86130  0.53490  0.93860  Biso   1.000  N
  N47      1.0000 0.36130  0.03490  0.93860  Biso   1.000  N
  N48      1.0000 0.36130  0.53490  0.43860  Biso   1.000  N
  N49      1.0000 0.13870  0.43860  0.03490  Biso   1.000  N
  N50      1.0000 0.13870  0.93860  0.53490  Biso   1.000  N
  N51      1.0000 0.63870  0.43860  0.53490  Biso   1.000  N
  N52      1.0000 0.63870  0.93860  0.03490  Biso   1.000  N
  N53      1.0000 0.86130  0.56140  0.03490  Biso   1.000  N
  N54      1.0000 0.86130  0.06140  0.53490  Biso   1.000  N
  N55      1.0000 0.36130  0.56140  0.53490  Biso   1.000  N
  N56      1.0000 0.36130  0.06140  0.03490  Biso   1.000  N
  N57      1.0000 0.13870  0.56140  0.96510  Biso   1.000  N
  N58      1.0000 0.13870  0.06140  0.46510  Biso   1.000  N
  N59      1.0000 0.63870  0.56140  0.46510  Biso   1.000  N
  N60      1.0000 0.63870  0.06140  0.96510  Biso   1.000  N
  N61      1.0000 0.86130  0.43860  0.96510  Biso   1.000  N
  N62      1.0000 0.86130  0.93860  0.46510  Biso   1.000  N
  N63      1.0000 0.36130  0.43860  0.46510  Biso   1.000  N
  N64      1.0000 0.36130  0.93860  0.96510  Biso   1.000  N
  N65      1.0000 0.43860  0.96510  0.86130  Biso   1.000  N
  N66      1.0000 0.43860  0.46510  0.36130  Biso   1.000  N
  N67      1.0000 0.93860  0.96510  0.36130  Biso   1.000  N
  N68      1.0000 0.93860  0.46510  0.86130  Biso   1.000  N
  N69      1.0000 0.56140  0.96510  0.13870  Biso   1.000  N
  N70      1.0000 0.56140  0.46510  0.63870  Biso   1.000  N
  N71      1.0000 0.06140  0.96510  0.63870  Biso   1.000  N
  N72      1.0000 0.06140  0.46510  0.13870  Biso   1.000  N
  N73      1.0000 0.56140  0.03490  0.86130  Biso   1.000  N
  N74      1.0000 0.56140  0.53490  0.36130  Biso   1.000  N
  N75      1.0000 0.06140  0.03490  0.36130  Biso   1.000  N
  N76      1.0000 0.06140  0.53490  0.86130  Biso   1.000  N
  N77      1.0000 0.43860  0.03490  0.13870  Biso   1.000  N
  N78      1.0000 0.43860  0.53490  0.63870  Biso   1.000  N
  N79      1.0000 0.93860  0.03490  0.63870  Biso   1.000  N
  N80      1.0000 0.93860  0.53490  0.13870  Biso   1.000  N
  N81      1.0000 0.96510  0.13870  0.56140  Biso   1.000  N
  N82      1.0000 0.96510  0.63870  0.06140  Biso   1.000  N
  N83      1.0000 0.46510  0.13870  0.06140  Biso   1.000  N
  N84      1.0000 0.46510  0.63870  0.56140  Biso   1.000  N
  N85      1.0000 0.96510  0.86130  0.43860  Biso   1.000  N
  N86      1.0000 0.96510  0.36130  0.93860  Biso   1.000  N
  N87      1.0000 0.46510  0.86130  0.93860  Biso   1.000  N
  N88      1.0000 0.46510  0.36130  0.43860  Biso   1.000  N
  N89      1.0000 0.03490  0.13870  0.43860  Biso   1.000  N
  N90      1.0000 0.03490  0.63870  0.93860  Biso   1.000  N
  N91      1.0000 0.53490  0.13870  0.93860  Biso   1.000  N
  N92      1.0000 0.53490  0.63870  0.43860  Biso   1.000  N
  N93      1.0000 0.03490  0.86130  0.56140  Biso   1.000  N
  N94      1.0000 0.03490  0.36130  0.06140  Biso   1.000  N
  N95      1.0000 0.53490  0.86130  0.06140  Biso   1.000  N
  N96      1.0000 0.53490  0.36130  0.56140  Biso   1.000  N
  N97      1.0000 0.56140  0.86130  0.03490  Biso   1.000  N
  N98      1.0000 0.56140  0.36130  0.53490  Biso   1.000  N
  N99      1.0000 0.06140  0.86130  0.53490  Biso   1.000  N
  N100     1.0000 0.06140  0.36130  0.03490  Biso   1.000  N
  N101     1.0000 0.43860  0.13870  0.03490  Biso   1.000  N
  N102     1.0000 0.43860  0.63870  0.53490  Biso   1.000  N
  N103     1.0000 0.93860  0.13870  0.53490  Biso   1.000  N
  N104     1.0000 0.93860  0.63870  0.03490  Biso   1.000  N
  N105     1.0000 0.43860  0.86130  0.96510  Biso   1.000  N
  N106     1.0000 0.43860  0.36130  0.46510  Biso   1.000  N
  N107     1.0000 0.93860  0.86130  0.46510  Biso   1.000  N
  N108     1.0000 0.93860  0.36130  0.96510  Biso   1.000  N
  N109     1.0000 0.56140  0.13870  0.96510  Biso   1.000  N
  N110     1.0000 0.56140  0.63870  0.46510  Biso   1.000  N
  N111     1.0000 0.06140  0.13870  0.46510  Biso   1.000  N
  N112     1.0000 0.06140  0.63870  0.96510  Biso   1.000  N
  N113     1.0000 0.03490  0.56140  0.86130  Biso   1.000  N
  N114     1.0000 0.03490  0.06140  0.36130  Biso   1.000  N
  N115     1.0000 0.53490  0.56140  0.36130  Biso   1.000  N
  N116     1.0000 0.53490  0.06140  0.86130  Biso   1.000  N
  N117     1.0000 0.03490  0.43860  0.13870  Biso   1.000  N
  N118     1.0000 0.03490  0.93860  0.63870  Biso   1.000  N
  N119     1.0000 0.53490  0.43860  0.63870  Biso   1.000  N
  N120     1.0000 0.53490  0.93860  0.13870  Biso   1.000  N
  N121     1.0000 0.96510  0.43860  0.86130  Biso   1.000  N
  N122     1.0000 0.96510  0.93860  0.36130  Biso   1.000  N
  N123     1.0000 0.46510  0.43860  0.36130  Biso   1.000  N
  N124     1.0000 0.46510  0.93860  0.86130  Biso   1.000  N
  N125     1.0000 0.96510  0.56140  0.13870  Biso   1.000  N
  N126     1.0000 0.96510  0.06140  0.63870  Biso   1.000  N
  N127     1.0000 0.46510  0.56140  0.63870  Biso   1.000  N
  N128     1.0000 0.46510  0.06140  0.13870  Biso   1.000  N
  N129     1.0000 0.86130  0.03490  0.56140  Biso   1.000  N
  N130     1.0000 0.86130  0.53490  0.06140  Biso   1.000  N
  N131     1.0000 0.36130  0.03490  0.06140  Biso   1.000  N
  N132     1.0000 0.36130  0.53490  0.56140  Biso   1.000  N
  N133     1.0000 0.13870  0.03490  0.43860  Biso   1.000  N
  N134     1.0000 0.13870  0.53490  0.93860  Biso   1.000  N
  N135     1.0000 0.63870  0.03490  0.93860  Biso   1.000  N
  N136     1.0000 0.63870  0.53490  0.43860  Biso   1.000  N
  N137     1.0000 0.86130  0.96510  0.43860  Biso   1.000  N
  N138     1.0000 0.86130  0.46510  0.93860  Biso   1.000  N
  N139     1.0000 0.36130  0.96510  0.93860  Biso   1.000  N
  N140     1.0000 0.36130  0.46510  0.43860  Biso   1.000  N
  N141     1.0000 0.13870  0.96510  0.56140  Biso   1.000  N
  N142     1.0000 0.13870  0.46510  0.06140  Biso   1.000  N
  N143     1.0000 0.63870  0.96510  0.06140  Biso   1.000  N
  N144     1.0000 0.63870  0.46510  0.56140  Biso   1.000  N
  N145     1.0000 0.86130  0.56140  0.96510  Biso   1.000  N
  N146     1.0000 0.86130  0.06140  0.46510  Biso   1.000  N
  N147     1.0000 0.36130  0.56140  0.46510  Biso   1.000  N
  N148     1.0000 0.36130  0.06140  0.96510  Biso   1.000  N
  N149     1.0000 0.13870  0.43860  0.96510  Biso   1.000  N
  N150     1.0000 0.13870  0.93860  0.46510  Biso   1.000  N
  N151     1.0000 0.63870  0.43860  0.46510  Biso   1.000  N
  N152     1.0000 0.63870  0.93860  0.96510  Biso   1.000  N
  N153     1.0000 0.86130  0.43860  0.03490  Biso   1.000  N
  N154     1.0000 0.86130  0.93860  0.53490  Biso   1.000  N
  N155     1.0000 0.36130  0.43860  0.53490  Biso   1.000  N
  N156     1.0000 0.36130  0.93860  0.03490  Biso   1.000  N
  N157     1.0000 0.13870  0.56140  0.03490  Biso   1.000  N
  N158     1.0000 0.13870  0.06140  0.53490  Biso   1.000  N
  N159     1.0000 0.63870  0.56140  0.53490  Biso   1.000  N
  N160     1.0000 0.63870  0.06140  0.03490  Biso   1.000  N
  N161     1.0000 0.56140  0.03490  0.13870  Biso   1.000  N
  N162     1.0000 0.56140  0.53490  0.63870  Biso   1.000  N
  N163     1.0000 0.06140  0.03490  0.63870  Biso   1.000  N
  N164     1.0000 0.06140  0.53490  0.13870  Biso   1.000  N
  N165     1.0000 0.43860  0.03490  0.86130  Biso   1.000  N
  N166     1.0000 0.43860  0.53490  0.36130  Biso   1.000  N
  N167     1.0000 0.93860  0.03490  0.36130  Biso   1.000  N
  N168     1.0000 0.93860  0.53490  0.86130  Biso   1.000  N
  N169     1.0000 0.43860  0.96510  0.13870  Biso   1.000  N
  N170     1.0000 0.43860  0.46510  0.63870  Biso   1.000  N
  N171     1.0000 0.93860  0.96510  0.63870  Biso   1.000  N
  N172     1.0000 0.93860  0.46510  0.13870  Biso   1.000  N
  N173     1.0000 0.56140  0.96510  0.86130  Biso   1.000  N
  N174     1.0000 0.56140  0.46510  0.36130  Biso   1.000  N
  N175     1.0000 0.06140  0.96510  0.36130  Biso   1.000  N
  N176     1.0000 0.06140  0.46510  0.86130  Biso   1.000  N
  N177     1.0000 0.03490  0.86130  0.43860  Biso   1.000  N
  N178     1.0000 0.03490  0.36130  0.93860  Biso   1.000  N
  N179     1.0000 0.53490  0.86130  0.93860  Biso   1.000  N
  N180     1.0000 0.53490  0.36130  0.43860  Biso   1.000  N
  N181     1.0000 0.03490  0.13870  0.56140  Biso   1.000  N
  N182     1.0000 0.03490  0.63870  0.06140  Biso   1.000  N
  N183     1.0000 0.53490  0.13870  0.06140  Biso   1.000  N
  N184     1.0000 0.53490  0.63870  0.56140  Biso   1.000  N
  N185     1.0000 0.96510  0.86130  0.56140  Biso   1.000  N
  N186     1.0000 0.96510  0.36130  0.06140  Biso   1.000  N
  N187     1.0000 0.46510  0.86130  0.06140  Biso   1.000  N
  N188     1.0000 0.46510  0.36130  0.56140  Biso   1.000  N
  N189     1.0000 0.96510  0.13870  0.43860  Biso   1.000  N
  N190     1.0000 0.96510  0.63870  0.93860  Biso   1.000  N
  N191     1.0000 0.46510  0.13870  0.93860  Biso   1.000  N
  N192     1.0000 0.46510  0.63870  0.43860  Biso   1.000  N
  K1       1.0000 0.50000  0.50000  0.00000  Biso   1.000  K
  K2       1.0000 0.00000  0.50000  0.50000  Biso   1.000  K
  K3       1.0000 0.50000  0.00000  0.50000  Biso   1.000  K
  K4       1.0000 0.00000  0.00000  0.00000  Biso   1.000  K
  N193     1.0000 0.47900  0.21620  0.97900  Biso   1.000  N
  N194     1.0000 0.47900  0.71620  0.47900  Biso   1.000  N
  N195     1.0000 0.52100  0.78380  0.97900  Biso   1.000  N
  N196     1.0000 0.52100  0.28380  0.47900  Biso   1.000  N
  N197     1.0000 0.02100  0.78380  0.47900  Biso   1.000  N
  N198     1.0000 0.52100  0.21620  0.02100  Biso   1.000  N
  N199     1.0000 0.52100  0.71620  0.52100  Biso   1.000  N
  N200     1.0000 0.02100  0.71620  0.02100  Biso   1.000  N
  N201     1.0000 0.47900  0.78380  0.02100  Biso   1.000  N
  N202     1.0000 0.47900  0.28380  0.52100  Biso   1.000  N
  N203     1.0000 0.97900  0.47900  0.21620  Biso   1.000  N
  N204     1.0000 0.97900  0.97900  0.71620  Biso   1.000  N
  N205     1.0000 0.47900  0.47900  0.71620  Biso   1.000  N
  N206     1.0000 0.97900  0.52100  0.78380  Biso   1.000  N
  N207     1.0000 0.97900  0.02100  0.28380  Biso   1.000  N
  N208     1.0000 0.47900  0.02100  0.78380  Biso   1.000  N
  N209     1.0000 0.02100  0.52100  0.21620  Biso   1.000  N
  N210     1.0000 0.02100  0.02100  0.71620  Biso   1.000  N
  N211     1.0000 0.02100  0.47900  0.78380  Biso   1.000  N
  N212     1.0000 0.02100  0.97900  0.28380  Biso   1.000  N
  N213     1.0000 0.21620  0.97900  0.47900  Biso   1.000  N
  N214     1.0000 0.71620  0.97900  0.97900  Biso   1.000  N
  N215     1.0000 0.71620  0.47900  0.47900  Biso   1.000  N
  N216     1.0000 0.78380  0.97900  0.52100  Biso   1.000  N
  N217     1.0000 0.78380  0.47900  0.02100  Biso   1.000  N
  N218     1.0000 0.28380  0.97900  0.02100  Biso   1.000  N
  N219     1.0000 0.21620  0.02100  0.52100  Biso   1.000  N
  N220     1.0000 0.71620  0.02100  0.02100  Biso   1.000  N
  N221     1.0000 0.78380  0.02100  0.47900  Biso   1.000  N
  N222     1.0000 0.28380  0.02100  0.97900  Biso   1.000  N
  N223     1.0000 0.21620  0.47900  0.02100  Biso   1.000  N
  N224     1.0000 0.71620  0.47900  0.52100  Biso   1.000  N
  N225     1.0000 0.78380  0.52100  0.02100  Biso   1.000  N
  N226     1.0000 0.28380  0.52100  0.52100  Biso   1.000  N
  N227     1.0000 0.28380  0.02100  0.02100  Biso   1.000  N
  N228     1.0000 0.21620  0.52100  0.97900  Biso   1.000  N
  N229     1.0000 0.21620  0.02100  0.47900  Biso   1.000  N
  N230     1.0000 0.71620  0.52100  0.47900  Biso   1.000  N
  N231     1.0000 0.78380  0.47900  0.97900  Biso   1.000  N
  N232     1.0000 0.28380  0.47900  0.47900  Biso   1.000  N
  N233     1.0000 0.47900  0.97900  0.78380  Biso   1.000  N
  N234     1.0000 0.47900  0.47900  0.28380  Biso   1.000  N
  N235     1.0000 0.52100  0.97900  0.21620  Biso   1.000  N
  N236     1.0000 0.52100  0.47900  0.71620  Biso   1.000  N
  N237     1.0000 0.02100  0.47900  0.21620  Biso   1.000  N
  N238     1.0000 0.52100  0.02100  0.78380  Biso   1.000  N
  N239     1.0000 0.52100  0.52100  0.28380  Biso   1.000  N
  N240     1.0000 0.02100  0.02100  0.28380  Biso   1.000  N
  N241     1.0000 0.47900  0.02100  0.21620  Biso   1.000  N
  N242     1.0000 0.47900  0.52100  0.71620  Biso   1.000  N
  N243     1.0000 0.97900  0.21620  0.52100  Biso   1.000  N
  N244     1.0000 0.97900  0.71620  0.02100  Biso   1.000  N
  N245     1.0000 0.47900  0.21620  0.02100  Biso   1.000  N
  N246     1.0000 0.97900  0.78380  0.47900  Biso   1.000  N
  N247     1.0000 0.97900  0.28380  0.97900  Biso   1.000  N
  N248     1.0000 0.47900  0.28380  0.47900  Biso   1.000  N
  N249     1.0000 0.02100  0.21620  0.47900  Biso   1.000  N
  N250     1.0000 0.02100  0.71620  0.97900  Biso   1.000  N
  N251     1.0000 0.02100  0.78380  0.52100  Biso   1.000  N
  N252     1.0000 0.02100  0.28380  0.02100  Biso   1.000  N
  N253     1.0000 0.52100  0.78380  0.02100  Biso   1.000  N
  N254     1.0000 0.52100  0.28380  0.52100  Biso   1.000  N
  N255     1.0000 0.47900  0.71620  0.52100  Biso   1.000  N
  N256     1.0000 0.47900  0.78380  0.97900  Biso   1.000  N
  N257     1.0000 0.52100  0.21620  0.97900  Biso   1.000  N
  N258     1.0000 0.52100  0.71620  0.47900  Biso   1.000  N
  N259     1.0000 0.02100  0.52100  0.78380  Biso   1.000  N
  N260     1.0000 0.02100  0.97900  0.71620  Biso   1.000  N
  N261     1.0000 0.97900  0.47900  0.78380  Biso   1.000  N
  N262     1.0000 0.97900  0.97900  0.28380  Biso   1.000  N
  N263     1.0000 0.97900  0.52100  0.21620  Biso   1.000  N
  N264     1.0000 0.97900  0.02100  0.71620  Biso   1.000  N
  N265     1.0000 0.78380  0.02100  0.52100  Biso   1.000  N
  N266     1.0000 0.71620  0.02100  0.97900  Biso   1.000  N
  N267     1.0000 0.78380  0.97900  0.47900  Biso   1.000  N
  N268     1.0000 0.28380  0.97900  0.97900  Biso   1.000  N
  N269     1.0000 0.21620  0.97900  0.52100  Biso   1.000  N
  N270     1.0000 0.71620  0.97900  0.02100  Biso   1.000  N
  N271     1.0000 0.78380  0.52100  0.97900  Biso   1.000  N
  N272     1.0000 0.28380  0.52100  0.47900  Biso   1.000  N
  N273     1.0000 0.21620  0.47900  0.97900  Biso   1.000  N
  N274     1.0000 0.28380  0.47900  0.52100  Biso   1.000  N
  N275     1.0000 0.21620  0.52100  0.02100  Biso   1.000  N
  N276     1.0000 0.71620  0.52100  0.52100  Biso   1.000  N
  N277     1.0000 0.52100  0.02100  0.21620  Biso   1.000  N
  N278     1.0000 0.52100  0.52100  0.71620  Biso   1.000  N
  N279     1.0000 0.47900  0.52100  0.28380  Biso   1.000  N
  N280     1.0000 0.47900  0.97900  0.21620  Biso   1.000  N
  N281     1.0000 0.52100  0.97900  0.78380  Biso   1.000  N
  N282     1.0000 0.52100  0.47900  0.28380  Biso   1.000  N
  N283     1.0000 0.02100  0.28380  0.97900  Biso   1.000  N
  N284     1.0000 0.02100  0.21620  0.52100  Biso   1.000  N
  N285     1.0000 0.97900  0.78380  0.52100  Biso   1.000  N
  N286     1.0000 0.97900  0.28380  0.02100  Biso   1.000  N
  N287     1.0000 0.97900  0.21620  0.47900  Biso   1.000  N
  N288     1.0000 0.97900  0.71620  0.97900  Biso   1.000  N
  N289     1.0000 0.51900  0.29260  0.00000  Biso   1.000  N
  N290     1.0000 0.51900  0.79260  0.50000  Biso   1.000  N
  N291     1.0000 0.01900  0.29260  0.50000  Biso   1.000  N
  N292     1.0000 0.01900  0.79260  0.00000  Biso   1.000  N
  N293     1.0000 0.48100  0.70740  0.00000  Biso   1.000  N
  N294     1.0000 0.48100  0.20740  0.50000  Biso   1.000  N
  N295     1.0000 0.98100  0.70740  0.50000  Biso   1.000  N
  N296     1.0000 0.98100  0.20740  0.00000  Biso   1.000  N
  N297     1.0000 0.48100  0.29260  0.00000  Biso   1.000  N
  N298     1.0000 0.48100  0.79260  0.50000  Biso   1.000  N
  N299     1.0000 0.98100  0.29260  0.50000  Biso   1.000  N
  N300     1.0000 0.98100  0.79260  0.00000  Biso   1.000  N
  N301     1.0000 0.51900  0.70740  0.00000  Biso   1.000  N
  N302     1.0000 0.51900  0.20740  0.50000  Biso   1.000  N
  N303     1.0000 0.01900  0.70740  0.50000  Biso   1.000  N
  N304     1.0000 0.01900  0.20740  0.00000  Biso   1.000  N
  N305     1.0000 0.00000  0.51900  0.29260  Biso   1.000  N
  N306     1.0000 0.00000  0.01900  0.79260  Biso   1.000  N
  N307     1.0000 0.50000  0.51900  0.79260  Biso   1.000  N
  N308     1.0000 0.50000  0.01900  0.29260  Biso   1.000  N
  N309     1.0000 0.00000  0.48100  0.70740  Biso   1.000  N
  N310     1.0000 0.00000  0.98100  0.20740  Biso   1.000  N
  N311     1.0000 0.50000  0.48100  0.20740  Biso   1.000  N
  N312     1.0000 0.50000  0.98100  0.70740  Biso   1.000  N
  N313     1.0000 0.00000  0.48100  0.29260  Biso   1.000  N
  N314     1.0000 0.00000  0.98100  0.79260  Biso   1.000  N
  N315     1.0000 0.50000  0.48100  0.79260  Biso   1.000  N
  N316     1.0000 0.50000  0.98100  0.29260  Biso   1.000  N
  N317     1.0000 0.00000  0.51900  0.70740  Biso   1.000  N
  N318     1.0000 0.00000  0.01900  0.20740  Biso   1.000  N
  N319     1.0000 0.50000  0.51900  0.20740  Biso   1.000  N
  N320     1.0000 0.50000  0.01900  0.70740  Biso   1.000  N
  N321     1.0000 0.29260  0.00000  0.51900  Biso   1.000  N
  N322     1.0000 0.29260  0.50000  0.01900  Biso   1.000  N
  N323     1.0000 0.79260  0.00000  0.01900  Biso   1.000  N
  N324     1.0000 0.79260  0.50000  0.51900  Biso   1.000  N
  N325     1.0000 0.70740  0.00000  0.48100  Biso   1.000  N
  N326     1.0000 0.70740  0.50000  0.98100  Biso   1.000  N
  N327     1.0000 0.20740  0.00000  0.98100  Biso   1.000  N
  N328     1.0000 0.20740  0.50000  0.48100  Biso   1.000  N
  N329     1.0000 0.29260  0.00000  0.48100  Biso   1.000  N
  N330     1.0000 0.29260  0.50000  0.98100  Biso   1.000  N
  N331     1.0000 0.79260  0.00000  0.98100  Biso   1.000  N
  N332     1.0000 0.79260  0.50000  0.48100  Biso   1.000  N
  N333     1.0000 0.70740  0.00000  0.51900  Biso   1.000  N
  N334     1.0000 0.70740  0.50000  0.01900  Biso   1.000  N
  N335     1.0000 0.20740  0.00000  0.01900  Biso   1.000  N
  N336     1.0000 0.20740  0.50000  0.51900  Biso   1.000  N
  N337     1.0000 0.29260  0.51900  0.00000  Biso   1.000  N
  N338     1.0000 0.29260  0.01900  0.50000  Biso   1.000  N
  N339     1.0000 0.79260  0.51900  0.50000  Biso   1.000  N
  N340     1.0000 0.79260  0.01900  0.00000  Biso   1.000  N
  N341     1.0000 0.70740  0.48100  0.00000  Biso   1.000  N
  N342     1.0000 0.70740  0.98100  0.50000  Biso   1.000  N
  N343     1.0000 0.20740  0.48100  0.50000  Biso   1.000  N
  N344     1.0000 0.20740  0.98100  0.00000  Biso   1.000  N
  N345     1.0000 0.29260  0.48100  0.00000  Biso   1.000  N
  N346     1.0000 0.29260  0.98100  0.50000  Biso   1.000  N
  N347     1.0000 0.79260  0.48100  0.50000  Biso   1.000  N
  N348     1.0000 0.79260  0.98100  0.00000  Biso   1.000  N
  N349     1.0000 0.70740  0.51900  0.00000  Biso   1.000  N
  N350     1.0000 0.70740  0.01900  0.50000  Biso   1.000  N
  N351     1.0000 0.20740  0.51900  0.50000  Biso   1.000  N
  N352     1.0000 0.20740  0.01900  0.00000  Biso   1.000  N
  N353     1.0000 0.51900  0.00000  0.70740  Biso   1.000  N
  N354     1.0000 0.51900  0.50000  0.20740  Biso   1.000  N
  N355     1.0000 0.01900  0.00000  0.20740  Biso   1.000  N
  N356     1.0000 0.01900  0.50000  0.70740  Biso   1.000  N
  N357     1.0000 0.48100  0.00000  0.29260  Biso   1.000  N
  N358     1.0000 0.48100  0.50000  0.79260  Biso   1.000  N
  N359     1.0000 0.98100  0.00000  0.79260  Biso   1.000  N
  N360     1.0000 0.98100  0.50000  0.29260  Biso   1.000  N
  N361     1.0000 0.48100  0.00000  0.70740  Biso   1.000  N
  N362     1.0000 0.48100  0.50000  0.20740  Biso   1.000  N
  N363     1.0000 0.98100  0.00000  0.20740  Biso   1.000  N
  N364     1.0000 0.98100  0.50000  0.70740  Biso   1.000  N
  N365     1.0000 0.51900  0.00000  0.29260  Biso   1.000  N
  N366     1.0000 0.51900  0.50000  0.79260  Biso   1.000  N
  N367     1.0000 0.01900  0.00000  0.79260  Biso   1.000  N
  N368     1.0000 0.01900  0.50000  0.29260  Biso   1.000  N
  N369     1.0000 0.00000  0.29260  0.48100  Biso   1.000  N
  N370     1.0000 0.00000  0.79260  0.98100  Biso   1.000  N
  N371     1.0000 0.50000  0.29260  0.98100  Biso   1.000  N
  N372     1.0000 0.50000  0.79260  0.48100  Biso   1.000  N
  N373     1.0000 0.00000  0.70740  0.51900  Biso   1.000  N
  N374     1.0000 0.00000  0.20740  0.01900  Biso   1.000  N
  N375     1.0000 0.50000  0.70740  0.01900  Biso   1.000  N
  N376     1.0000 0.50000  0.20740  0.51900  Biso   1.000  N
  N377     1.0000 0.00000  0.29260  0.51900  Biso   1.000  N
  N378     1.0000 0.00000  0.79260  0.01900  Biso   1.000  N
  N379     1.0000 0.50000  0.29260  0.01900  Biso   1.000  N
  N380     1.0000 0.50000  0.79260  0.51900  Biso   1.000  N
  N381     1.0000 0.00000  0.70740  0.48100  Biso   1.000  N
  N382     1.0000 0.00000  0.20740  0.98100  Biso   1.000  N
  N383     1.0000 0.50000  0.70740  0.98100  Biso   1.000  N
  N384     1.0000 0.50000  0.20740  0.48100  Biso   1.000  N
  Fe1      1.0000 0.50000  0.00000  0.00000  Biso   1.000  Fe
  Fe2      1.0000 0.50000  0.50000  0.50000  Biso   1.000  Fe
  Fe3      1.0000 0.00000  0.00000  0.50000  Biso   1.000  Fe
  Fe4      1.0000 0.00000  0.50000  0.00000  Biso   1.000  Fe
