data_image0
_cell_length_a       17.612
_cell_length_b       18.052
_cell_length_c       18.652
_cell_angle_alpha    90
_cell_angle_beta     92.38
_cell_angle_gamma    90

_symmetry_space_group_name_H-M    "P 1"
_symmetry_int_tables_number       1

loop_
  _symmetry_equiv_pos_as_xyz
  'x, y, z'

loop_
  _atom_site_label
  _atom_site_occupancy
  _atom_site_fract_x
  _atom_site_fract_y
  _atom_site_fract_z
  _atom_site_thermal_displace_type
  _atom_site_B_iso_or_equiv
  _atom_site_type_symbol
  Zn1      1.0000 0.39673  0.48285  0.28981  Biso   1.000  Zn
  Zn2      1.0000 0.32886  0.61844  0.36410  Biso   1.000  Zn
  Zn3      1.0000 0.41435  0.76978  0.43507  Biso   1.000  Zn
  O1       1.0000 0.30911  0.80029  0.40869  Biso   1.000  O
  O2       1.0000 0.56166  0.55593  0.61923  Biso   1.000  O
  O3       1.0000 0.70928  0.95456  0.22294  Biso   1.000  O
  O4       1.0000 0.64523  0.47752  0.57360  Biso   1.000  O
  O5       1.0000 0.76081  0.06145  0.18633  Biso   1.000  O
  O6       1.0000 0.29184  0.71727  0.31954  Biso   1.000  O
  C1       1.0000 0.59583  0.52757  0.56699  Biso   1.000  C
  C2       1.0000 0.43598  0.65496  0.17759  Biso   1.000  C
  H1       1.0000 0.38680  0.65160  0.15490  Biso   1.000  H
  C3       1.0000 0.60084  0.56413  0.36838  Biso   1.000  C
  H2       1.0000 0.63190  0.55230  0.32960  Biso   1.000  H
  C4       1.0000 0.57608  0.55687  0.49365  Biso   1.000  C
  C5       1.0000 0.56674  0.69523  0.17473  Biso   1.000  C
  H3       1.0000 0.60710  0.71730  0.15010  Biso   1.000  H
  C6       1.0000 0.51291  0.60233  0.48271  Biso   1.000  C
  H4       1.0000 0.48400  0.61630  0.52240  Biso   1.000  H
  C7       1.0000 0.76488  0.99755  0.21204  Biso   1.000  C
  C8       1.0000 0.62009  0.53698  0.43616  Biso   1.000  C
  H5       1.0000 0.66270  0.50520  0.44350  Biso   1.000  H
  C9       1.0000 0.44826  0.62723  0.24741  Biso   1.000  C
  C10      1.0000 0.49479  0.68736  0.14109  Biso   1.000  C
  C11      1.0000 0.84184  0.96693  0.23197  Biso   1.000  C
  C12      1.0000 0.19881  0.81035  0.33220  Biso   1.000  C
  C13      1.0000 0.51999  0.63652  0.28235  Biso   1.000  C
  C14      1.0000 0.57833  0.67028  0.24467  Biso   1.000  C
  H6       1.0000 0.62700  0.67610  0.26780  Biso   1.000  H
  C15      1.0000 0.53654  0.60869  0.35589  Biso   1.000  C
  C16      1.0000 0.27169  0.77263  0.35530  Biso   1.000  C
  C17      1.0000 0.84879  0.89325  0.25090  Biso   1.000  C
  H7       1.0000 0.80510  0.86250  0.25110  Biso   1.000  H
  C18      1.0000 0.92009  0.86420  0.26980  Biso   1.000  C
  H8       1.0000 0.92460  0.81350  0.28300  Biso   1.000  H
  C19      1.0000 0.15713  0.78327  0.27316  Biso   1.000  C
  H9       1.0000 0.17530  0.74180  0.24760  Biso   1.000  H
  C20      1.0000 0.98470  0.90819  0.26960  Biso   1.000  C
  C21      1.0000 0.17246  0.87066  0.37002  Biso   1.000  C
  H10      1.0000 0.20140  0.88960  0.41000  Biso   1.000  H
  C22      1.0000 0.08881  0.81660  0.25110  Biso   1.000  C
  C23      1.0000 0.10359  0.90315  0.34923  Biso   1.000  C
  H11      1.0000 0.08550  0.94420  0.37540  Biso   1.000  H
  C24      1.0000 0.90554  0.01169  0.23091  Biso   1.000  C
  H12      1.0000 0.90090  0.06230  0.21730  Biso   1.000  H
  C25      1.0000 0.97682  0.98199  0.25000  Biso   1.000  C
  O7       1.0000 0.42786  0.66931  0.40363  Biso   1.000  O
  O8       1.0000 0.39226  0.58873  0.27720  Biso   1.000  O
  N1       1.0000 0.52575  0.33938  0.12957  Biso   1.000  N
  N2       1.0000 0.45532  0.42343  0.21700  Biso   1.000  N
  O9       1.0000 0.41453  0.70533  0.03688  Biso   1.000  O
  O10      1.0000 0.53616  0.72881  0.02776  Biso   1.000  O
  C26      1.0000 0.49149  0.62775  0.41416  Biso   1.000  C
  C27      1.0000 0.48259  0.70920  0.06424  Biso   1.000  C
  C28      1.0000 0.51814  0.38291  0.25574  Biso   1.000  C
  H13      1.0000 0.49720  0.35220  0.29420  Biso   1.000  H
  H14      1.0000 0.55420  0.41890  0.27830  Biso   1.000  H
  C29      1.0000 0.55998  0.33338  0.20379  Biso   1.000  C
  H15      1.0000 0.61410  0.34810  0.20380  Biso   1.000  H
  H16      1.0000 0.55750  0.28130  0.22010  Biso   1.000  H
  C30      1.0000 0.53030  0.41833  0.10707  Biso   1.000  C
  H17      1.0000 0.50710  0.42400  0.05810  Biso   1.000  H
  H18      1.0000 0.58420  0.43360  0.10590  Biso   1.000  H
  C31      1.0000 0.44418  0.31858  0.13088  Biso   1.000  C
  H19      1.0000 0.43970  0.26610  0.14560  Biso   1.000  H
  H20      1.0000 0.42040  0.32370  0.08210  Biso   1.000  H
  C32      1.0000 0.40233  0.36798  0.18320  Biso   1.000  C
  H21      1.0000 0.36010  0.39390  0.15710  Biso   1.000  H
  H22      1.0000 0.38050  0.33690  0.22090  Biso   1.000  H
  C33      1.0000 0.48861  0.46829  0.15938  Biso   1.000  C
  H23      1.0000 0.52470  0.50480  0.18100  Biso   1.000  H
  H24      1.0000 0.44770  0.49580  0.13290  Biso   1.000  H
  C34      1.0000 0.06066  0.87638  0.29051  Biso   1.000  C
  O11      1.0000 0.05080  0.79390  0.18870  Biso   1.000  O
  H25      1.0000 0.07050  0.75460  0.17400  Biso   1.000  H
  O12      1.0000 0.04130  0.02870  0.24240  Biso   1.000  O
  H26      1.0000 0.08120  0.00460  0.25240  Biso   1.000  H
  O13      1.0000 0.91910  0.78750  0.29320  Biso   1.000  O
  H27      1.0000 0.89750  0.76140  0.26110  Biso   1.000  H
  O14      1.0000 0.08330  0.96950  0.38500  Biso   1.000  O
  H28      1.0000 0.08520  0.96230  0.42950  Biso   1.000  H
  H29      1.0000 0.02050  0.01280  0.24940  Biso   1.000  H
  H30      1.0000 0.06130  0.79910  0.20970  Biso   1.000  H
  Zn4      1.0000 0.60327  0.98285  0.21019  Biso   1.000  Zn
  Zn5      1.0000 0.67114  0.11844  0.13590  Biso   1.000  Zn
  Zn6      1.0000 0.58565  0.26978  0.06493  Biso   1.000  Zn
  O15      1.0000 0.69089  0.30029  0.09131  Biso   1.000  O
  O16      1.0000 0.43834  0.05593  0.88077  Biso   1.000  O
  O17      1.0000 0.29072  0.45456  0.27706  Biso   1.000  O
  O18      1.0000 0.35477  0.97752  0.92640  Biso   1.000  O
  O19      1.0000 0.23919  0.56145  0.31367  Biso   1.000  O
  O20      1.0000 0.70816  0.21727  0.18046  Biso   1.000  O
  C35      1.0000 0.40417  0.02757  0.93301  Biso   1.000  C
  C36      1.0000 0.56402  0.15496  0.32241  Biso   1.000  C
  H31      1.0000 0.61320  0.15160  0.34510  Biso   1.000  H
  C37      1.0000 0.39916  0.06413  0.13162  Biso   1.000  C
  H32      1.0000 0.36810  0.05230  0.17040  Biso   1.000  H
  C38      1.0000 0.42392  0.05687  0.00635  Biso   1.000  C
  C39      1.0000 0.43326  0.19523  0.32527  Biso   1.000  C
  H33      1.0000 0.39290  0.21730  0.34990  Biso   1.000  H
  C40      1.0000 0.48709  0.10233  0.01729  Biso   1.000  C
  H34      1.0000 0.51600  0.11630  0.97760  Biso   1.000  H
  C41      1.0000 0.23512  0.49755  0.28796  Biso   1.000  C
  C42      1.0000 0.37991  0.03698  0.06384  Biso   1.000  C
  H35      1.0000 0.33730  0.00520  0.05650  Biso   1.000  H
  C43      1.0000 0.55174  0.12723  0.25259  Biso   1.000  C
  C44      1.0000 0.50521  0.18736  0.35891  Biso   1.000  C
  C45      1.0000 0.15816  0.46693  0.26803  Biso   1.000  C
  C46      1.0000 0.80119  0.31035  0.16780  Biso   1.000  C
  C47      1.0000 0.48001  0.13652  0.21765  Biso   1.000  C
  C48      1.0000 0.42167  0.17028  0.25533  Biso   1.000  C
  H36      1.0000 0.37300  0.17610  0.23220  Biso   1.000  H
  C49      1.0000 0.46346  0.10869  0.14411  Biso   1.000  C
  C50      1.0000 0.72831  0.27263  0.14470  Biso   1.000  C
  C51      1.0000 0.15121  0.39325  0.24910  Biso   1.000  C
  H37      1.0000 0.19490  0.36250  0.24890  Biso   1.000  H
  C52      1.0000 0.07991  0.36420  0.23020  Biso   1.000  C
  H38      1.0000 0.07540  0.31350  0.21700  Biso   1.000  H
  C53      1.0000 0.84287  0.28327  0.22684  Biso   1.000  C
  H39      1.0000 0.82470  0.24180  0.25240  Biso   1.000  H
  C54      1.0000 0.01530  0.40819  0.23040  Biso   1.000  C
  C55      1.0000 0.82754  0.37066  0.12998  Biso   1.000  C
  H40      1.0000 0.79860  0.38960  0.09000  Biso   1.000  H
  C56      1.0000 0.91119  0.31660  0.24890  Biso   1.000  C
  C57      1.0000 0.89641  0.40315  0.15077  Biso   1.000  C
  H41      1.0000 0.91450  0.44420  0.12460  Biso   1.000  H
  C58      1.0000 0.09446  0.51169  0.26909  Biso   1.000  C
  H42      1.0000 0.09910  0.56230  0.28270  Biso   1.000  H
  C59      1.0000 0.02318  0.48199  0.25000  Biso   1.000  C
  O21      1.0000 0.57214  0.16931  0.09637  Biso   1.000  O
  O22      1.0000 0.60774  0.08873  0.22280  Biso   1.000  O
  N3       1.0000 0.47425  0.83938  0.37043  Biso   1.000  N
  N4       1.0000 0.54468  0.92343  0.28300  Biso   1.000  N
  O23      1.0000 0.58547  0.20533  0.46312  Biso   1.000  O
  O24      1.0000 0.46384  0.22881  0.47224  Biso   1.000  O
  C60      1.0000 0.50851  0.12775  0.08584  Biso   1.000  C
  C61      1.0000 0.51741  0.20920  0.43576  Biso   1.000  C
  C62      1.0000 0.48186  0.88291  0.24426  Biso   1.000  C
  H43      1.0000 0.50280  0.85220  0.20580  Biso   1.000  H
  H44      1.0000 0.44580  0.91890  0.22170  Biso   1.000  H
  C63      1.0000 0.44002  0.83338  0.29621  Biso   1.000  C
  H45      1.0000 0.38590  0.84810  0.29620  Biso   1.000  H
  H46      1.0000 0.44250  0.78130  0.27990  Biso   1.000  H
  C64      1.0000 0.46970  0.91833  0.39293  Biso   1.000  C
  H47      1.0000 0.49290  0.92400  0.44190  Biso   1.000  H
  H48      1.0000 0.41580  0.93360  0.39410  Biso   1.000  H
  C65      1.0000 0.55582  0.81858  0.36912  Biso   1.000  C
  H49      1.0000 0.56030  0.76610  0.35440  Biso   1.000  H
  H50      1.0000 0.57960  0.82370  0.41790  Biso   1.000  H
  C66      1.0000 0.59767  0.86798  0.31680  Biso   1.000  C
  H51      1.0000 0.63990  0.89390  0.34290  Biso   1.000  H
  H52      1.0000 0.61950  0.83690  0.27910  Biso   1.000  H
  C67      1.0000 0.51139  0.96829  0.34062  Biso   1.000  C
  H53      1.0000 0.47530  0.00480  0.31900  Biso   1.000  H
  H54      1.0000 0.55230  0.99580  0.36710  Biso   1.000  H
  C68      1.0000 0.93934  0.37638  0.20949  Biso   1.000  C
  O25      1.0000 0.94920  0.29390  0.31130  Biso   1.000  O
  H55      1.0000 0.92950  0.25460  0.32600  Biso   1.000  H
  O26      1.0000 0.95870  0.52870  0.25760  Biso   1.000  O
  H56      1.0000 0.91880  0.50460  0.24760  Biso   1.000  H
  O27      1.0000 0.08090  0.28750  0.20680  Biso   1.000  O
  H57      1.0000 0.10250  0.26140  0.23890  Biso   1.000  H
  O28      1.0000 0.91670  0.46950  0.11500  Biso   1.000  O
  H58      1.0000 0.91480  0.46230  0.07050  Biso   1.000  H
  H59      1.0000 0.97950  0.51280  0.25060  Biso   1.000  H
  H60      1.0000 0.93870  0.29910  0.29030  Biso   1.000  H
  Zn7      1.0000 0.60327  0.51715  0.71019  Biso   1.000  Zn
  Zn8      1.0000 0.67114  0.38156  0.63590  Biso   1.000  Zn
  Zn9      1.0000 0.58565  0.23022  0.56493  Biso   1.000  Zn
  O29      1.0000 0.69089  0.19971  0.59131  Biso   1.000  O
  O30      1.0000 0.43834  0.44407  0.38077  Biso   1.000  O
  O31      1.0000 0.29072  0.04544  0.77706  Biso   1.000  O
  O32      1.0000 0.35477  0.52248  0.42640  Biso   1.000  O
  O33      1.0000 0.23919  0.93855  0.81367  Biso   1.000  O
  O34      1.0000 0.70816  0.28273  0.68046  Biso   1.000  O
  C69      1.0000 0.40417  0.47243  0.43301  Biso   1.000  C
  C70      1.0000 0.56402  0.34504  0.82241  Biso   1.000  C
  H61      1.0000 0.61320  0.34840  0.84510  Biso   1.000  H
  C71      1.0000 0.39916  0.43587  0.63162  Biso   1.000  C
  H62      1.0000 0.36810  0.44770  0.67040  Biso   1.000  H
  C72      1.0000 0.42392  0.44313  0.50635  Biso   1.000  C
  C73      1.0000 0.43326  0.30477  0.82527  Biso   1.000  C
  H63      1.0000 0.39290  0.28270  0.84990  Biso   1.000  H
  C74      1.0000 0.48709  0.39767  0.51729  Biso   1.000  C
  H64      1.0000 0.51600  0.38370  0.47760  Biso   1.000  H
  C75      1.0000 0.23512  0.00245  0.78796  Biso   1.000  C
  C76      1.0000 0.37991  0.46302  0.56384  Biso   1.000  C
  H65      1.0000 0.33730  0.49480  0.55650  Biso   1.000  H
  C77      1.0000 0.55174  0.37277  0.75259  Biso   1.000  C
  C78      1.0000 0.50521  0.31264  0.85891  Biso   1.000  C
  C79      1.0000 0.15816  0.03307  0.76803  Biso   1.000  C
  C80      1.0000 0.80119  0.18965  0.66780  Biso   1.000  C
  C81      1.0000 0.48001  0.36348  0.71765  Biso   1.000  C
  C82      1.0000 0.42167  0.32972  0.75533  Biso   1.000  C
  H66      1.0000 0.37300  0.32390  0.73220  Biso   1.000  H
  C83      1.0000 0.46346  0.39131  0.64411  Biso   1.000  C
  C84      1.0000 0.72831  0.22737  0.64470  Biso   1.000  C
  C85      1.0000 0.15121  0.10675  0.74910  Biso   1.000  C
  H67      1.0000 0.19490  0.13750  0.74890  Biso   1.000  H
  C86      1.0000 0.07991  0.13580  0.73020  Biso   1.000  C
  H68      1.0000 0.07540  0.18650  0.71700  Biso   1.000  H
  C87      1.0000 0.84287  0.21673  0.72684  Biso   1.000  C
  H69      1.0000 0.82470  0.25820  0.75240  Biso   1.000  H
  C88      1.0000 0.01530  0.09181  0.73040  Biso   1.000  C
  C89      1.0000 0.82754  0.12934  0.62998  Biso   1.000  C
  H70      1.0000 0.79860  0.11040  0.59000  Biso   1.000  H
  C90      1.0000 0.91119  0.18340  0.74890  Biso   1.000  C
  C91      1.0000 0.89641  0.09685  0.65077  Biso   1.000  C
  H71      1.0000 0.91450  0.05580  0.62460  Biso   1.000  H
  C92      1.0000 0.09446  0.98831  0.76909  Biso   1.000  C
  H72      1.0000 0.09910  0.93770  0.78270  Biso   1.000  H
  C93      1.0000 0.02318  0.01801  0.75000  Biso   1.000  C
  O35      1.0000 0.57214  0.33069  0.59637  Biso   1.000  O
  O36      1.0000 0.60774  0.41127  0.72280  Biso   1.000  O
  N5       1.0000 0.47425  0.66062  0.87043  Biso   1.000  N
  N6       1.0000 0.54468  0.57657  0.78300  Biso   1.000  N
  O37      1.0000 0.58547  0.29467  0.96312  Biso   1.000  O
  O38      1.0000 0.46384  0.27119  0.97224  Biso   1.000  O
  C94      1.0000 0.50851  0.37225  0.58584  Biso   1.000  C
  C95      1.0000 0.51741  0.29080  0.93576  Biso   1.000  C
  C96      1.0000 0.48186  0.61709  0.74426  Biso   1.000  C
  H73      1.0000 0.50280  0.64780  0.70580  Biso   1.000  H
  H74      1.0000 0.44580  0.58110  0.72170  Biso   1.000  H
  C97      1.0000 0.44002  0.66662  0.79621  Biso   1.000  C
  H75      1.0000 0.38590  0.65190  0.79620  Biso   1.000  H
  H76      1.0000 0.44250  0.71870  0.77990  Biso   1.000  H
  C98      1.0000 0.46970  0.58167  0.89293  Biso   1.000  C
  H77      1.0000 0.49290  0.57600  0.94190  Biso   1.000  H
  H78      1.0000 0.41580  0.56640  0.89410  Biso   1.000  H
  C99      1.0000 0.55582  0.68142  0.86912  Biso   1.000  C
  H79      1.0000 0.56030  0.73390  0.85440  Biso   1.000  H
  H80      1.0000 0.57960  0.67630  0.91790  Biso   1.000  H
  C100     1.0000 0.59767  0.63202  0.81680  Biso   1.000  C
  H81      1.0000 0.63990  0.60610  0.84290  Biso   1.000  H
  H82      1.0000 0.61950  0.66310  0.77910  Biso   1.000  H
  C101     1.0000 0.51139  0.53171  0.84062  Biso   1.000  C
  H83      1.0000 0.47530  0.49520  0.81900  Biso   1.000  H
  H84      1.0000 0.55230  0.50420  0.86710  Biso   1.000  H
  C102     1.0000 0.93934  0.12362  0.70949  Biso   1.000  C
  O39      1.0000 0.94920  0.20610  0.81130  Biso   1.000  O
  H85      1.0000 0.92950  0.24540  0.82600  Biso   1.000  H
  O40      1.0000 0.95870  0.97130  0.75760  Biso   1.000  O
  H86      1.0000 0.91880  0.99540  0.74760  Biso   1.000  H
  O41      1.0000 0.08090  0.21250  0.70680  Biso   1.000  O
  H87      1.0000 0.10250  0.23860  0.73890  Biso   1.000  H
  O42      1.0000 0.91670  0.03050  0.61500  Biso   1.000  O
  H88      1.0000 0.91480  0.03770  0.57050  Biso   1.000  H
  H89      1.0000 0.97950  0.98720  0.75060  Biso   1.000  H
  H90      1.0000 0.93870  0.20090  0.79030  Biso   1.000  H
  Zn10     1.0000 0.39673  0.01715  0.78980  Biso   1.000  Zn
  Zn11     1.0000 0.32886  0.88156  0.86410  Biso   1.000  Zn
  Zn12     1.0000 0.41435  0.73022  0.93507  Biso   1.000  Zn
  O43      1.0000 0.30911  0.69971  0.90869  Biso   1.000  O
  O44      1.0000 0.56166  0.94407  0.11923  Biso   1.000  O
  O45      1.0000 0.70928  0.54544  0.72294  Biso   1.000  O
  O46      1.0000 0.64523  0.02248  0.07360  Biso   1.000  O
  O47      1.0000 0.76081  0.43855  0.68633  Biso   1.000  O
  O48      1.0000 0.29184  0.78273  0.81954  Biso   1.000  O
  C103     1.0000 0.59583  0.97243  0.06699  Biso   1.000  C
  C104     1.0000 0.43598  0.84504  0.67759  Biso   1.000  C
  H91      1.0000 0.38680  0.84840  0.65490  Biso   1.000  H
  C105     1.0000 0.60084  0.93587  0.86838  Biso   1.000  C
  H92      1.0000 0.63190  0.94770  0.82960  Biso   1.000  H
  C106     1.0000 0.57608  0.94313  0.99365  Biso   1.000  C
  C107     1.0000 0.56674  0.80477  0.67473  Biso   1.000  C
  H93      1.0000 0.60710  0.78270  0.65010  Biso   1.000  H
  C108     1.0000 0.51291  0.89767  0.98271  Biso   1.000  C
  H94      1.0000 0.48400  0.88370  0.02240  Biso   1.000  H
  C109     1.0000 0.76488  0.50245  0.71204  Biso   1.000  C
  C110     1.0000 0.62009  0.96302  0.93616  Biso   1.000  C
  H95      1.0000 0.66270  0.99480  0.94350  Biso   1.000  H
  C111     1.0000 0.44826  0.87277  0.74741  Biso   1.000  C
  C112     1.0000 0.49479  0.81264  0.64109  Biso   1.000  C
  C113     1.0000 0.84184  0.53307  0.73197  Biso   1.000  C
  C114     1.0000 0.19881  0.68965  0.83220  Biso   1.000  C
  C115     1.0000 0.51999  0.86348  0.78235  Biso   1.000  C
  C116     1.0000 0.57833  0.82972  0.74467  Biso   1.000  C
  H96      1.0000 0.62700  0.82390  0.76780  Biso   1.000  H
  C117     1.0000 0.53654  0.89131  0.85589  Biso   1.000  C
  C118     1.0000 0.27169  0.72737  0.85530  Biso   1.000  C
  C119     1.0000 0.84879  0.60675  0.75090  Biso   1.000  C
  H97      1.0000 0.80510  0.63750  0.75110  Biso   1.000  H
  C120     1.0000 0.92009  0.63580  0.76980  Biso   1.000  C
  H98      1.0000 0.92460  0.68650  0.78300  Biso   1.000  H
  C121     1.0000 0.15713  0.71673  0.77316  Biso   1.000  C
  H99      1.0000 0.17530  0.75820  0.74760  Biso   1.000  H
  C122     1.0000 0.98470  0.59181  0.76960  Biso   1.000  C
  C123     1.0000 0.17246  0.62934  0.87002  Biso   1.000  C
  H100     1.0000 0.20140  0.61040  0.91000  Biso   1.000  H
  C124     1.0000 0.08881  0.68340  0.75110  Biso   1.000  C
  C125     1.0000 0.10359  0.59685  0.84923  Biso   1.000  C
  H101     1.0000 0.08550  0.55580  0.87540  Biso   1.000  H
  C126     1.0000 0.90554  0.48831  0.73091  Biso   1.000  C
  H102     1.0000 0.90090  0.43770  0.71730  Biso   1.000  H
  C127     1.0000 0.97682  0.51801  0.75000  Biso   1.000  C
  O49      1.0000 0.42786  0.83069  0.90363  Biso   1.000  O
  O50      1.0000 0.39226  0.91127  0.77720  Biso   1.000  O
  N7       1.0000 0.52575  0.16062  0.62957  Biso   1.000  N
  N8       1.0000 0.45532  0.07657  0.71700  Biso   1.000  N
  O51      1.0000 0.41453  0.79467  0.53688  Biso   1.000  O
  O52      1.0000 0.53616  0.77119  0.52776  Biso   1.000  O
  C128     1.0000 0.49149  0.87225  0.91416  Biso   1.000  C
  C129     1.0000 0.48259  0.79080  0.56424  Biso   1.000  C
  C130     1.0000 0.51814  0.11709  0.75574  Biso   1.000  C
  H103     1.0000 0.49720  0.14780  0.79420  Biso   1.000  H
  H104     1.0000 0.55420  0.08110  0.77830  Biso   1.000  H
  C131     1.0000 0.55998  0.16662  0.70379  Biso   1.000  C
  H105     1.0000 0.61410  0.15190  0.70380  Biso   1.000  H
  H106     1.0000 0.55750  0.21870  0.72010  Biso   1.000  H
  C132     1.0000 0.53030  0.08167  0.60707  Biso   1.000  C
  H107     1.0000 0.50710  0.07600  0.55810  Biso   1.000  H
  H108     1.0000 0.58420  0.06640  0.60590  Biso   1.000  H
  C133     1.0000 0.44418  0.18142  0.63088  Biso   1.000  C
  H109     1.0000 0.43970  0.23390  0.64560  Biso   1.000  H
  H110     1.0000 0.42040  0.17630  0.58210  Biso   1.000  H
  C134     1.0000 0.40233  0.13202  0.68320  Biso   1.000  C
  H111     1.0000 0.36010  0.10610  0.65710  Biso   1.000  H
  H112     1.0000 0.38050  0.16310  0.72090  Biso   1.000  H
  C135     1.0000 0.48861  0.03171  0.65938  Biso   1.000  C
  H113     1.0000 0.52470  0.99520  0.68100  Biso   1.000  H
  H114     1.0000 0.44770  0.00420  0.63290  Biso   1.000  H
  C136     1.0000 0.06066  0.62362  0.79051  Biso   1.000  C
  O53      1.0000 0.05080  0.70610  0.68870  Biso   1.000  O
  H115     1.0000 0.07050  0.74540  0.67400  Biso   1.000  H
  O54      1.0000 0.04130  0.47130  0.74240  Biso   1.000  O
  H116     1.0000 0.08120  0.49540  0.75240  Biso   1.000  H
  O55      1.0000 0.91910  0.71250  0.79320  Biso   1.000  O
  H117     1.0000 0.89750  0.73860  0.76110  Biso   1.000  H
  O56      1.0000 0.08330  0.53050  0.88500  Biso   1.000  O
  H118     1.0000 0.08520  0.53770  0.92950  Biso   1.000  H
  H119     1.0000 0.02050  0.48720  0.74940  Biso   1.000  H
  H120     1.0000 0.06130  0.70090  0.70970  Biso   1.000  H
