data_image0
_cell_length_a       17.5414
_cell_length_b       18.1004
_cell_length_c       18.4729
_cell_angle_alpha    90
_cell_angle_beta     91.858
_cell_angle_gamma    90

_symmetry_space_group_name_H-M    "P 1"
_symmetry_int_tables_number       1

loop_
  _symmetry_equiv_pos_as_xyz
  'x, y, z'

loop_
  _atom_site_label
  _atom_site_occupancy
  _atom_site_fract_x
  _atom_site_fract_y
  _atom_site_fract_z
  _atom_site_thermal_displace_type
  _atom_site_B_iso_or_equiv
  _atom_site_type_symbol
  Zn1      1.0000 0.39796  0.52486  0.20083  Biso   1.000  Zn
  Zn2      1.0000 0.39733  0.23271  0.06408  Biso   1.000  Zn
  Zn3      1.0000 0.32041  0.39205  0.12431  Biso   1.000  Zn
  O1       1.0000 0.38319  0.42101  0.21728  Biso   1.000  O
  O2       1.0000 0.64504  0.51695  0.94238  Biso   1.000  O
  O3       1.0000 0.41775  0.33346  0.09500  Biso   1.000  O
  O4       1.0000 0.29334  0.20661  0.09681  Biso   1.000  O
  O5       1.0000 0.56087  0.43976  0.88940  Biso   1.000  O
  N1       1.0000 0.46262  0.57974  0.27752  Biso   1.000  N
  C1       1.0000 0.59498  0.46780  0.94495  Biso   1.000  C
  O6       1.0000 0.70656  0.06040  0.29479  Biso   1.000  O
  O7       1.0000 0.76632  0.95928  0.34050  Biso   1.000  O
  C2       1.0000 0.61634  0.45817  0.07869  Biso   1.000  C
  H1       1.0000 0.66030  0.48850  0.07510  Biso   1.000  H
  O8       1.0000 0.38670  0.29360  0.46052  Biso   1.000  O
  O9       1.0000 0.27812  0.30101  0.17353  Biso   1.000  O
  C3       1.0000 0.52785  0.39049  0.15280  Biso   1.000  C
  O10      1.0000 0.50883  0.27349  0.48212  Biso   1.000  O
  N2       1.0000 0.54035  0.66170  0.36743  Biso   1.000  N
  C4       1.0000 0.50838  0.39571  0.02296  Biso   1.000  C
  H2       1.0000 0.48010  0.38200  0.98030  Biso   1.000  H
  C5       1.0000 0.41720  0.35048  0.32121  Biso   1.000  C
  H3       1.0000 0.36720  0.35670  0.33850  Biso   1.000  H
  C6       1.0000 0.56114  0.32734  0.26920  Biso   1.000  C
  H4       1.0000 0.61050  0.31860  0.25120  Biso   1.000  H
  C7       1.0000 0.47182  0.31424  0.36400  Biso   1.000  C
  C8       1.0000 0.48384  0.37223  0.09016  Biso   1.000  C
  C9       1.0000 0.43475  0.37787  0.25322  Biso   1.000  C
  C10      1.0000 0.57284  0.66518  0.29412  Biso   1.000  C
  H5       1.0000 0.62670  0.64880  0.29680  Biso   1.000  H
  H6       1.0000 0.57150  0.71680  0.27650  Biso   1.000  H
  C11      1.0000 0.57348  0.43886  0.01712  Biso   1.000  C
  C12      1.0000 0.52731  0.61571  0.24090  Biso   1.000  C
  H7       1.0000 0.50740  0.64580  0.19970  Biso   1.000  H
  H8       1.0000 0.56130  0.57730  0.22150  Biso   1.000  H
  C13      1.0000 0.50724  0.36442  0.22579  Biso   1.000  C
  C14      1.0000 0.18737  0.20613  0.17367  Biso   1.000  C
  C15      1.0000 0.59398  0.43243  0.14608  Biso   1.000  C
  H9       1.0000 0.62440  0.44370  0.18810  Biso   1.000  H
  C16      1.0000 0.76574  0.02157  0.31124  Biso   1.000  C
  C17      1.0000 0.49390  0.53504  0.33875  Biso   1.000  C
  H10      1.0000 0.52630  0.49500  0.32000  Biso   1.000  H
  H11      1.0000 0.45150  0.51200  0.36470  Biso   1.000  H
  C18      1.0000 0.54452  0.30290  0.33785  Biso   1.000  C
  H12      1.0000 0.58240  0.27850  0.36700  Biso   1.000  H
  C19      1.0000 0.41364  0.63921  0.30711  Biso   1.000  C
  H13      1.0000 0.36950  0.61680  0.33100  Biso   1.000  H
  H14      1.0000 0.39390  0.67090  0.26700  Biso   1.000  H
  C20      1.0000 0.45959  0.68625  0.36192  Biso   1.000  C
  H15      1.0000 0.45750  0.73870  0.34680  Biso   1.000  H
  H16      1.0000 0.43660  0.68230  0.41000  Biso   1.000  H
  C21      1.0000 0.54160  0.58367  0.39167  Biso   1.000  C
  H17      1.0000 0.52070  0.58020  0.44070  Biso   1.000  H
  H18      1.0000 0.59490  0.56560  0.39430  Biso   1.000  H
  C22      1.0000 0.07485  0.21648  0.24436  Biso   1.000  C
  C23      1.0000 0.84048  0.05472  0.29180  Biso   1.000  C
  O11      1.0000 0.03350  0.25770  0.29111  Biso   1.000  O
  H19      1.0000 0.98900  0.26330  0.27390  Biso   1.000  H
  C24      1.0000 0.05349  0.14538  0.22591  Biso   1.000  C
  C25      1.0000 0.90689  0.01651  0.30536  Biso   1.000  C
  H20      1.0000 0.90520  0.96960  0.32830  Biso   1.000  H
  C26      1.0000 0.97965  0.11368  0.24995  Biso   1.000  C
  C27      1.0000 0.97656  0.04550  0.28593  Biso   1.000  C
  C28      1.0000 0.84252  0.12293  0.25660  Biso   1.000  C
  H21      1.0000 0.79680  0.14960  0.24650  Biso   1.000  H
  C29      1.0000 0.91185  0.15110  0.23670  Biso   1.000  C
  H22      1.0000 0.91310  0.19770  0.21320  Biso   1.000  H
  O12      1.0000 0.04260  0.00796  0.30320  Biso   1.000  O
  H23      1.0000 0.04110  0.96610  0.28360  Biso   1.000  H
  C30      1.0000 0.45568  0.29180  0.43993  Biso   1.000  C
  C31      1.0000 0.25818  0.24082  0.14578  Biso   1.000  C
  C32      1.0000 0.14147  0.24682  0.21818  Biso   1.000  C
  H24      1.0000 0.15550  0.29590  0.23100  Biso   1.000  H
  C33      1.0000 0.16713  0.13430  0.15671  Biso   1.000  C
  H25      1.0000 0.19840  0.10520  0.12690  Biso   1.000  H
  C34      1.0000 0.10088  0.10524  0.18358  Biso   1.000  C
  H26      1.0000 0.08780  0.05560  0.17220  Biso   1.000  H
  O13      1.0000 0.91040  0.21480  0.19200  Biso   1.000  O
  H27      1.0000 0.88090  0.24640  0.20910  Biso   1.000  H
  O14      1.0000 0.08560  0.03230  0.16790  Biso   1.000  O
  H28      1.0000 0.10350  0.00550  0.20140  Biso   1.000  H
  H29      1.0000 0.04390  0.24490  0.27510  Biso   1.000  H
  H30      1.0000 0.02230  0.01910  0.29700  Biso   1.000  H
  Zn4      1.0000 0.60204  0.02486  0.29917  Biso   1.000  Zn
  Zn5      1.0000 0.60267  0.73271  0.43592  Biso   1.000  Zn
  Zn6      1.0000 0.67959  0.89205  0.37569  Biso   1.000  Zn
  O15      1.0000 0.61681  0.92101  0.28272  Biso   1.000  O
  O16      1.0000 0.35496  0.01695  0.55762  Biso   1.000  O
  O17      1.0000 0.58225  0.83346  0.40500  Biso   1.000  O
  O18      1.0000 0.70666  0.70661  0.40319  Biso   1.000  O
  O19      1.0000 0.43913  0.93976  0.61060  Biso   1.000  O
  N3       1.0000 0.53738  0.07974  0.22248  Biso   1.000  N
  C35      1.0000 0.40502  0.96780  0.55505  Biso   1.000  C
  O20      1.0000 0.29344  0.56040  0.20521  Biso   1.000  O
  O21      1.0000 0.23368  0.45928  0.15950  Biso   1.000  O
  C36      1.0000 0.38366  0.95817  0.42131  Biso   1.000  C
  H31      1.0000 0.33970  0.98850  0.42490  Biso   1.000  H
  O22      1.0000 0.61330  0.79360  0.03948  Biso   1.000  O
  O23      1.0000 0.72188  0.80101  0.32647  Biso   1.000  O
  C37      1.0000 0.47215  0.89049  0.34720  Biso   1.000  C
  O24      1.0000 0.49117  0.77349  0.01788  Biso   1.000  O
  N4       1.0000 0.45965  0.16170  0.13257  Biso   1.000  N
  C38      1.0000 0.49162  0.89571  0.47704  Biso   1.000  C
  H32      1.0000 0.51990  0.88200  0.51970  Biso   1.000  H
  C39      1.0000 0.58280  0.85048  0.17879  Biso   1.000  C
  H33      1.0000 0.63280  0.85670  0.16150  Biso   1.000  H
  C40      1.0000 0.43886  0.82734  0.23080  Biso   1.000  C
  H34      1.0000 0.38950  0.81860  0.24880  Biso   1.000  H
  C41      1.0000 0.52818  0.81424  0.13600  Biso   1.000  C
  C42      1.0000 0.51616  0.87223  0.40984  Biso   1.000  C
  C43      1.0000 0.56525  0.87787  0.24678  Biso   1.000  C
  C44      1.0000 0.42716  0.16518  0.20588  Biso   1.000  C
  H35      1.0000 0.37330  0.14880  0.20320  Biso   1.000  H
  H36      1.0000 0.42850  0.21680  0.22350  Biso   1.000  H
  C45      1.0000 0.42652  0.93886  0.48288  Biso   1.000  C
  C46      1.0000 0.47269  0.11571  0.25910  Biso   1.000  C
  H37      1.0000 0.49260  0.14580  0.30030  Biso   1.000  H
  H38      1.0000 0.43870  0.07730  0.27850  Biso   1.000  H
  C47      1.0000 0.49276  0.86442  0.27421  Biso   1.000  C
  C48      1.0000 0.81263  0.70613  0.32633  Biso   1.000  C
  C49      1.0000 0.40602  0.93243  0.35392  Biso   1.000  C
  H39      1.0000 0.37560  0.94370  0.31190  Biso   1.000  H
  C50      1.0000 0.23426  0.52157  0.18876  Biso   1.000  C
  C51      1.0000 0.50610  0.03504  0.16125  Biso   1.000  C
  H40      1.0000 0.47370  0.99500  0.18000  Biso   1.000  H
  H41      1.0000 0.54850  0.01200  0.13530  Biso   1.000  H
  C52      1.0000 0.45548  0.80290  0.16215  Biso   1.000  C
  H42      1.0000 0.41760  0.77850  0.13300  Biso   1.000  H
  C53      1.0000 0.58636  0.13921  0.19289  Biso   1.000  C
  H43      1.0000 0.63050  0.11680  0.16900  Biso   1.000  H
  H44      1.0000 0.60610  0.17090  0.23300  Biso   1.000  H
  C54      1.0000 0.54041  0.18625  0.13808  Biso   1.000  C
  H45      1.0000 0.54250  0.23870  0.15320  Biso   1.000  H
  H46      1.0000 0.56340  0.18230  0.09000  Biso   1.000  H
  C55      1.0000 0.45840  0.08367  0.10833  Biso   1.000  C
  H47      1.0000 0.47930  0.08020  0.05930  Biso   1.000  H
  H48      1.0000 0.40510  0.06560  0.10570  Biso   1.000  H
  C56      1.0000 0.92515  0.71648  0.25564  Biso   1.000  C
  C57      1.0000 0.15952  0.55472  0.20820  Biso   1.000  C
  O25      1.0000 0.96650  0.75770  0.20889  Biso   1.000  O
  H49      1.0000 0.01100  0.76330  0.22610  Biso   1.000  H
  C58      1.0000 0.94651  0.64538  0.27409  Biso   1.000  C
  C59      1.0000 0.09311  0.51651  0.19464  Biso   1.000  C
  H50      1.0000 0.09480  0.46960  0.17170  Biso   1.000  H
  C60      1.0000 0.02035  0.61368  0.25005  Biso   1.000  C
  C61      1.0000 0.02344  0.54550  0.21407  Biso   1.000  C
  C62      1.0000 0.15748  0.62293  0.24340  Biso   1.000  C
  H51      1.0000 0.20320  0.64960  0.25350  Biso   1.000  H
  C63      1.0000 0.08815  0.65110  0.26330  Biso   1.000  C
  H52      1.0000 0.08690  0.69770  0.28680  Biso   1.000  H
  O26      1.0000 0.95740  0.50796  0.19680  Biso   1.000  O
  H53      1.0000 0.95890  0.46610  0.21640  Biso   1.000  H
  C64      1.0000 0.54432  0.79180  0.06007  Biso   1.000  C
  C65      1.0000 0.74182  0.74082  0.35422  Biso   1.000  C
  C66      1.0000 0.85853  0.74682  0.28182  Biso   1.000  C
  H54      1.0000 0.84450  0.79590  0.26900  Biso   1.000  H
  C67      1.0000 0.83287  0.63430  0.34329  Biso   1.000  C
  H55      1.0000 0.80160  0.60520  0.37310  Biso   1.000  H
  C68      1.0000 0.89912  0.60524  0.31642  Biso   1.000  C
  H56      1.0000 0.91220  0.55560  0.32780  Biso   1.000  H
  O27      1.0000 0.08960  0.71480  0.30800  Biso   1.000  O
  H57      1.0000 0.11910  0.74640  0.29090  Biso   1.000  H
  O28      1.0000 0.91440  0.53230  0.33210  Biso   1.000  O
  H58      1.0000 0.89650  0.50550  0.29860  Biso   1.000  H
  H59      1.0000 0.95610  0.74490  0.22490  Biso   1.000  H
  H60      1.0000 0.97770  0.51910  0.20300  Biso   1.000  H
  Zn7      1.0000 0.60204  0.47513  0.79917  Biso   1.000  Zn
  Zn8      1.0000 0.60267  0.76729  0.93592  Biso   1.000  Zn
  Zn9      1.0000 0.67959  0.60795  0.87569  Biso   1.000  Zn
  O29      1.0000 0.61681  0.57899  0.78272  Biso   1.000  O
  O30      1.0000 0.35496  0.48305  0.05762  Biso   1.000  O
  O31      1.0000 0.58225  0.66654  0.90500  Biso   1.000  O
  O32      1.0000 0.70666  0.79339  0.90319  Biso   1.000  O
  O33      1.0000 0.43913  0.56024  0.11060  Biso   1.000  O
  N5       1.0000 0.53738  0.42026  0.72248  Biso   1.000  N
  C69      1.0000 0.40502  0.53220  0.05505  Biso   1.000  C
  O34      1.0000 0.29344  0.93960  0.70521  Biso   1.000  O
  O35      1.0000 0.23368  0.04072  0.65950  Biso   1.000  O
  C70      1.0000 0.38366  0.54183  0.92131  Biso   1.000  C
  H61      1.0000 0.33970  0.51150  0.92490  Biso   1.000  H
  O36      1.0000 0.61330  0.70640  0.53948  Biso   1.000  O
  O37      1.0000 0.72188  0.69899  0.82647  Biso   1.000  O
  C71      1.0000 0.47215  0.60951  0.84720  Biso   1.000  C
  O38      1.0000 0.49117  0.72651  0.51788  Biso   1.000  O
  N6       1.0000 0.45965  0.33830  0.63257  Biso   1.000  N
  C72      1.0000 0.49162  0.60429  0.97704  Biso   1.000  C
  H62      1.0000 0.51990  0.61800  0.01970  Biso   1.000  H
  C73      1.0000 0.58280  0.64952  0.67879  Biso   1.000  C
  H63      1.0000 0.63280  0.64330  0.66150  Biso   1.000  H
  C74      1.0000 0.43886  0.67266  0.73080  Biso   1.000  C
  H64      1.0000 0.38950  0.68140  0.74880  Biso   1.000  H
  C75      1.0000 0.52818  0.68576  0.63600  Biso   1.000  C
  C76      1.0000 0.51616  0.62777  0.90984  Biso   1.000  C
  C77      1.0000 0.56525  0.62213  0.74678  Biso   1.000  C
  C78      1.0000 0.42716  0.33482  0.70588  Biso   1.000  C
  H65      1.0000 0.37330  0.35120  0.70320  Biso   1.000  H
  H66      1.0000 0.42850  0.28320  0.72350  Biso   1.000  H
  C79      1.0000 0.42652  0.56114  0.98288  Biso   1.000  C
  C80      1.0000 0.47269  0.38429  0.75910  Biso   1.000  C
  H67      1.0000 0.49260  0.35420  0.80030  Biso   1.000  H
  H68      1.0000 0.43870  0.42270  0.77850  Biso   1.000  H
  C81      1.0000 0.49276  0.63558  0.77421  Biso   1.000  C
  C82      1.0000 0.81263  0.79387  0.82633  Biso   1.000  C
  C83      1.0000 0.40602  0.56757  0.85392  Biso   1.000  C
  H69      1.0000 0.37560  0.55630  0.81190  Biso   1.000  H
  C84      1.0000 0.23426  0.97843  0.68876  Biso   1.000  C
  C85      1.0000 0.50610  0.46496  0.66125  Biso   1.000  C
  H70      1.0000 0.47370  0.50500  0.68000  Biso   1.000  H
  H71      1.0000 0.54850  0.48800  0.63530  Biso   1.000  H
  C86      1.0000 0.45548  0.69710  0.66215  Biso   1.000  C
  H72      1.0000 0.41760  0.72150  0.63300  Biso   1.000  H
  C87      1.0000 0.58636  0.36079  0.69289  Biso   1.000  C
  H73      1.0000 0.63050  0.38320  0.66900  Biso   1.000  H
  H74      1.0000 0.60610  0.32910  0.73300  Biso   1.000  H
  C88      1.0000 0.54041  0.31375  0.63808  Biso   1.000  C
  H75      1.0000 0.54250  0.26130  0.65320  Biso   1.000  H
  H76      1.0000 0.56340  0.31770  0.59000  Biso   1.000  H
  C89      1.0000 0.45840  0.41633  0.60833  Biso   1.000  C
  H77      1.0000 0.47930  0.41980  0.55930  Biso   1.000  H
  H78      1.0000 0.40510  0.43440  0.60570  Biso   1.000  H
  C90      1.0000 0.92515  0.78352  0.75564  Biso   1.000  C
  C91      1.0000 0.15952  0.94528  0.70820  Biso   1.000  C
  O39      1.0000 0.96650  0.74230  0.70889  Biso   1.000  O
  H79      1.0000 0.01100  0.73670  0.72610  Biso   1.000  H
  C92      1.0000 0.94651  0.85462  0.77409  Biso   1.000  C
  C93      1.0000 0.09311  0.98349  0.69464  Biso   1.000  C
  H80      1.0000 0.09480  0.03040  0.67170  Biso   1.000  H
  C94      1.0000 0.02035  0.88632  0.75005  Biso   1.000  C
  C95      1.0000 0.02344  0.95450  0.71407  Biso   1.000  C
  C96      1.0000 0.15748  0.87707  0.74340  Biso   1.000  C
  H81      1.0000 0.20320  0.85040  0.75350  Biso   1.000  H
  C97      1.0000 0.08815  0.84890  0.76330  Biso   1.000  C
  H82      1.0000 0.08690  0.80230  0.78680  Biso   1.000  H
  O40      1.0000 0.95740  0.99204  0.69680  Biso   1.000  O
  H83      1.0000 0.95890  0.03390  0.71640  Biso   1.000  H
  C98      1.0000 0.54432  0.70820  0.56007  Biso   1.000  C
  C99      1.0000 0.74182  0.75918  0.85422  Biso   1.000  C
  C100     1.0000 0.85853  0.75318  0.78182  Biso   1.000  C
  H84      1.0000 0.84450  0.70410  0.76900  Biso   1.000  H
  C101     1.0000 0.83287  0.86570  0.84329  Biso   1.000  C
  H85      1.0000 0.80160  0.89480  0.87310  Biso   1.000  H
  C102     1.0000 0.89912  0.89476  0.81642  Biso   1.000  C
  H86      1.0000 0.91220  0.94440  0.82780  Biso   1.000  H
  O41      1.0000 0.08960  0.78520  0.80800  Biso   1.000  O
  H87      1.0000 0.11910  0.75360  0.79090  Biso   1.000  H
  O42      1.0000 0.91440  0.96770  0.83210  Biso   1.000  O
  H88      1.0000 0.89650  0.99450  0.79860  Biso   1.000  H
  H89      1.0000 0.95610  0.75510  0.72490  Biso   1.000  H
  H90      1.0000 0.97770  0.98090  0.70300  Biso   1.000  H
  Zn10     1.0000 0.39796  0.97513  0.70083  Biso   1.000  Zn
  Zn11     1.0000 0.39733  0.26729  0.56408  Biso   1.000  Zn
  Zn12     1.0000 0.32041  0.10795  0.62431  Biso   1.000  Zn
  O43      1.0000 0.38319  0.07899  0.71728  Biso   1.000  O
  O44      1.0000 0.64504  0.98305  0.44238  Biso   1.000  O
  O45      1.0000 0.41775  0.16654  0.59500  Biso   1.000  O
  O46      1.0000 0.29334  0.29339  0.59681  Biso   1.000  O
  O47      1.0000 0.56087  0.06024  0.38940  Biso   1.000  O
  N7       1.0000 0.46262  0.92026  0.77752  Biso   1.000  N
  C103     1.0000 0.59498  0.03220  0.44495  Biso   1.000  C
  O48      1.0000 0.70656  0.43960  0.79479  Biso   1.000  O
  O49      1.0000 0.76632  0.54072  0.84050  Biso   1.000  O
  C104     1.0000 0.61634  0.04183  0.57869  Biso   1.000  C
  H91      1.0000 0.66030  0.01150  0.57510  Biso   1.000  H
  O50      1.0000 0.38670  0.20640  0.96052  Biso   1.000  O
  O51      1.0000 0.27812  0.19899  0.67353  Biso   1.000  O
  C105     1.0000 0.52785  0.10951  0.65280  Biso   1.000  C
  O52      1.0000 0.50883  0.22651  0.98212  Biso   1.000  O
  N8       1.0000 0.54035  0.83830  0.86743  Biso   1.000  N
  C106     1.0000 0.50838  0.10429  0.52296  Biso   1.000  C
  H92      1.0000 0.48010  0.11800  0.48030  Biso   1.000  H
  C107     1.0000 0.41720  0.14952  0.82121  Biso   1.000  C
  H93      1.0000 0.36720  0.14330  0.83850  Biso   1.000  H
  C108     1.0000 0.56114  0.17266  0.76920  Biso   1.000  C
  H94      1.0000 0.61050  0.18140  0.75120  Biso   1.000  H
  C109     1.0000 0.47182  0.18576  0.86400  Biso   1.000  C
  C110     1.0000 0.48384  0.12777  0.59016  Biso   1.000  C
  C111     1.0000 0.43475  0.12213  0.75322  Biso   1.000  C
  C112     1.0000 0.57284  0.83482  0.79412  Biso   1.000  C
  H95      1.0000 0.62670  0.85120  0.79680  Biso   1.000  H
  H96      1.0000 0.57150  0.78320  0.77650  Biso   1.000  H
  C113     1.0000 0.57348  0.06114  0.51712  Biso   1.000  C
  C114     1.0000 0.52731  0.88429  0.74090  Biso   1.000  C
  H97      1.0000 0.50740  0.85420  0.69970  Biso   1.000  H
  H98      1.0000 0.56130  0.92270  0.72150  Biso   1.000  H
  C115     1.0000 0.50724  0.13558  0.72579  Biso   1.000  C
  C116     1.0000 0.18737  0.29387  0.67367  Biso   1.000  C
  C117     1.0000 0.59398  0.06757  0.64608  Biso   1.000  C
  H99      1.0000 0.62440  0.05630  0.68810  Biso   1.000  H
  C118     1.0000 0.76574  0.47843  0.81124  Biso   1.000  C
  C119     1.0000 0.49390  0.96496  0.83875  Biso   1.000  C
  H100     1.0000 0.52630  0.00500  0.82000  Biso   1.000  H
  H101     1.0000 0.45150  0.98800  0.86470  Biso   1.000  H
  C120     1.0000 0.54452  0.19710  0.83785  Biso   1.000  C
  H102     1.0000 0.58240  0.22150  0.86700  Biso   1.000  H
  C121     1.0000 0.41364  0.86079  0.80711  Biso   1.000  C
  H103     1.0000 0.36950  0.88320  0.83100  Biso   1.000  H
  H104     1.0000 0.39390  0.82910  0.76700  Biso   1.000  H
  C122     1.0000 0.45959  0.81375  0.86192  Biso   1.000  C
  H105     1.0000 0.45750  0.76130  0.84680  Biso   1.000  H
  H106     1.0000 0.43660  0.81770  0.91000  Biso   1.000  H
  C123     1.0000 0.54160  0.91633  0.89167  Biso   1.000  C
  H107     1.0000 0.52070  0.91980  0.94070  Biso   1.000  H
  H108     1.0000 0.59490  0.93440  0.89430  Biso   1.000  H
  C124     1.0000 0.07485  0.28352  0.74436  Biso   1.000  C
  C125     1.0000 0.84048  0.44528  0.79180  Biso   1.000  C
  O53      1.0000 0.03350  0.24230  0.79111  Biso   1.000  O
  H109     1.0000 0.98900  0.23670  0.77390  Biso   1.000  H
  C126     1.0000 0.05349  0.35462  0.72591  Biso   1.000  C
  C127     1.0000 0.90689  0.48349  0.80536  Biso   1.000  C
  H110     1.0000 0.90520  0.53040  0.82830  Biso   1.000  H
  C128     1.0000 0.97965  0.38632  0.74995  Biso   1.000  C
  C129     1.0000 0.97656  0.45450  0.78593  Biso   1.000  C
  C130     1.0000 0.84252  0.37707  0.75660  Biso   1.000  C
  H111     1.0000 0.79680  0.35040  0.74650  Biso   1.000  H
  C131     1.0000 0.91185  0.34890  0.73670  Biso   1.000  C
  H112     1.0000 0.91310  0.30230  0.71320  Biso   1.000  H
  O54      1.0000 0.04260  0.49204  0.80320  Biso   1.000  O
  H113     1.0000 0.04110  0.53390  0.78360  Biso   1.000  H
  C132     1.0000 0.45568  0.20820  0.93993  Biso   1.000  C
  C133     1.0000 0.25818  0.25918  0.64578  Biso   1.000  C
  C134     1.0000 0.14147  0.25318  0.71818  Biso   1.000  C
  H114     1.0000 0.15550  0.20410  0.73100  Biso   1.000  H
  C135     1.0000 0.16713  0.36570  0.65671  Biso   1.000  C
  H115     1.0000 0.19840  0.39480  0.62690  Biso   1.000  H
  C136     1.0000 0.10088  0.39476  0.68358  Biso   1.000  C
  H116     1.0000 0.08780  0.44440  0.67220  Biso   1.000  H
  O55      1.0000 0.91040  0.28520  0.69200  Biso   1.000  O
  H117     1.0000 0.88090  0.25360  0.70910  Biso   1.000  H
  O56      1.0000 0.08560  0.46770  0.66790  Biso   1.000  O
  H118     1.0000 0.10350  0.49450  0.70140  Biso   1.000  H
  H119     1.0000 0.04390  0.25510  0.77510  Biso   1.000  H
  H120     1.0000 0.02230  0.48090  0.79700  Biso   1.000  H
