data_image0
_cell_length_a       17.6122
_cell_length_b       18.1405
_cell_length_c       18.3816
_cell_angle_alpha    90
_cell_angle_beta     91.826
_cell_angle_gamma    90

_symmetry_space_group_name_H-M    "P 1"
_symmetry_int_tables_number       1

loop_
  _symmetry_equiv_pos_as_xyz
  'x, y, z'

loop_
  _atom_site_label
  _atom_site_occupancy
  _atom_site_fract_x
  _atom_site_fract_y
  _atom_site_fract_z
  _atom_site_thermal_displace_type
  _atom_site_B_iso_or_equiv
  _atom_site_type_symbol
  Co1      1.0000 0.39672  0.52745  0.19795  Biso   1.000  Co
  Co2      1.0000 0.32123  0.39531  0.12560  Biso   1.000  Co
  Co3      1.0000 0.39533  0.23486  0.06495  Biso   1.000  Co
  O1       1.0000 0.38238  0.42489  0.21871  Biso   1.000  O
  O2       1.0000 0.64376  0.51349  0.94116  Biso   1.000  O
  O3       1.0000 0.55892  0.43642  0.89067  Biso   1.000  O
  O4       1.0000 0.29312  0.21073  0.10246  Biso   1.000  O
  O5       1.0000 0.76677  0.96251  0.34231  Biso   1.000  O
  O6       1.0000 0.41673  0.33482  0.09825  Biso   1.000  O
  O7       1.0000 0.70744  0.06173  0.29433  Biso   1.000  O
  O8       1.0000 0.27576  0.30666  0.17728  Biso   1.000  O
  O9       1.0000 0.49558  0.26794  0.48509  Biso   1.000  O
  O10      1.0000 0.37794  0.29980  0.46213  Biso   1.000  O
  C1       1.0000 0.59353  0.46493  0.94622  Biso   1.000  C
  N1       1.0000 0.45983  0.16408  0.13358  Biso   1.000  N
  C2       1.0000 0.52611  0.39230  0.15598  Biso   1.000  C
  C3       1.0000 0.61479  0.45768  0.08045  Biso   1.000  C
  H1       1.0000 0.65940  0.48660  0.07640  Biso   1.000  H
  C4       1.0000 0.50743  0.39572  0.02569  Biso   1.000  C
  H2       1.0000 0.47950  0.38100  0.98310  Biso   1.000  H
  N2       1.0000 0.53851  0.08279  0.22358  Biso   1.000  N
  C5       1.0000 0.48276  0.37370  0.09302  Biso   1.000  C
  C6       1.0000 0.57215  0.43896  0.01880  Biso   1.000  C
  C7       1.0000 0.25717  0.24576  0.15057  Biso   1.000  C
  C8       1.0000 0.55747  0.32927  0.27400  Biso   1.000  C
  H3       1.0000 0.60700  0.32040  0.25710  Biso   1.000  H
  C9       1.0000 0.41298  0.35456  0.32321  Biso   1.000  C
  H4       1.0000 0.36300  0.36210  0.33960  Biso   1.000  H
  C10      1.0000 0.46613  0.31659  0.36746  Biso   1.000  C
  C11      1.0000 0.18709  0.20968  0.17871  Biso   1.000  C
  C12      1.0000 0.43256  0.38106  0.25599  Biso   1.000  C
  C13      1.0000 0.76646  0.02395  0.31184  Biso   1.000  C
  C14      1.0000 0.59223  0.43407  0.14834  Biso   1.000  C
  H5       1.0000 0.62220  0.44650  0.19040  Biso   1.000  H
  C15      1.0000 0.44609  0.29281  0.44207  Biso   1.000  C
  C16      1.0000 0.50483  0.36691  0.22921  Biso   1.000  C
  C17      1.0000 0.54013  0.18836  0.13780  Biso   1.000  C
  H6       1.0000 0.54260  0.24080  0.15250  Biso   1.000  H
  H7       1.0000 0.56240  0.18390  0.08920  Biso   1.000  H
  C18      1.0000 0.53895  0.30483  0.34217  Biso   1.000  C
  H8       1.0000 0.57580  0.27990  0.37190  Biso   1.000  H
  C19      1.0000 0.50620  0.03844  0.16260  Biso   1.000  C
  H9       1.0000 0.47400  0.99880  0.18220  Biso   1.000  H
  H10      1.0000 0.54800  0.01490  0.13630  Biso   1.000  H
  C20      1.0000 0.42825  0.16720  0.20722  Biso   1.000  C
  H11      1.0000 0.37480  0.15030  0.20490  Biso   1.000  H
  H12      1.0000 0.42900  0.21880  0.22480  Biso   1.000  H
  C21      1.0000 0.47392  0.11895  0.26022  Biso   1.000  C
  H13      1.0000 0.49380  0.14950  0.30120  Biso   1.000  H
  H14      1.0000 0.44040  0.08070  0.28030  Biso   1.000  H
  C22      1.0000 0.14008  0.25065  0.22227  Biso   1.000  C
  H15      1.0000 0.15330  0.29990  0.23490  Biso   1.000  H
  C23      1.0000 0.16818  0.13819  0.16150  Biso   1.000  C
  H16      1.0000 0.20030  0.10950  0.13210  Biso   1.000  H
  C24      1.0000 0.45841  0.08595  0.10924  Biso   1.000  C
  H17      1.0000 0.47900  0.08230  0.05990  Biso   1.000  H
  H18      1.0000 0.40540  0.06780  0.10700  Biso   1.000  H
  C25      1.0000 0.58625  0.14184  0.19259  Biso   1.000  C
  H19      1.0000 0.62990  0.11940  0.16820  Biso   1.000  H
  H20      1.0000 0.60640  0.17380  0.23230  Biso   1.000  H
  C26      1.0000 0.84054  0.05658  0.29250  Biso   1.000  C
  C27      1.0000 0.07383  0.22010  0.24750  Biso   1.000  C
  C28      1.0000 0.05330  0.14820  0.22930  Biso   1.000  C
  C29      1.0000 0.90721  0.01950  0.30660  Biso   1.000  C
  H21      1.0000 0.90610  0.97270  0.32990  Biso   1.000  H
  C30      1.0000 0.10180  0.10821  0.18740  Biso   1.000  C
  H22      1.0000 0.08950  0.05850  0.17590  Biso   1.000  H
  C31      1.0000 0.97957  0.11680  0.25270  Biso   1.000  C
  C32      1.0000 0.91240  0.15360  0.23870  Biso   1.000  C
  H23      1.0000 0.91360  0.20020  0.21520  Biso   1.000  H
  C33      1.0000 0.84300  0.12490  0.25800  Biso   1.000  C
  H24      1.0000 0.79750  0.15150  0.24770  Biso   1.000  H
  O11      1.0000 0.02980  0.26040  0.29330  Biso   1.000  O
  H25      1.0000 0.04990  0.30190  0.30070  Biso   1.000  H
  O12      1.0000 0.04201  0.00940  0.30250  Biso   1.000  O
  H26      1.0000 0.03070  0.96710  0.31740  Biso   1.000  H
  C34      1.0000 0.97614  0.04910  0.28750  Biso   1.000  C
  O13      1.0000 0.91010  0.22010  0.19750  Biso   1.000  O
  H27      1.0000 0.86660  0.23880  0.19900  Biso   1.000  H
  O14      1.0000 0.09080  0.03330  0.16850  Biso   1.000  O
  H28      1.0000 0.08100  0.00890  0.20590  Biso   1.000  H
  H29      1.0000 0.04210  0.24850  0.27750  Biso   1.000  H
  H30      1.0000 0.02170  0.02280  0.29830  Biso   1.000  H
  Co4      1.0000 0.60328  0.02745  0.30205  Biso   1.000  Co
  Co5      1.0000 0.67877  0.89531  0.37440  Biso   1.000  Co
  Co6      1.0000 0.60467  0.73486  0.43505  Biso   1.000  Co
  O15      1.0000 0.61762  0.92489  0.28129  Biso   1.000  O
  O16      1.0000 0.35624  0.01349  0.55884  Biso   1.000  O
  O17      1.0000 0.44108  0.93642  0.60933  Biso   1.000  O
  O18      1.0000 0.70688  0.71073  0.39754  Biso   1.000  O
  O19      1.0000 0.23323  0.46251  0.15769  Biso   1.000  O
  O20      1.0000 0.58327  0.83482  0.40175  Biso   1.000  O
  O21      1.0000 0.29256  0.56173  0.20567  Biso   1.000  O
  O22      1.0000 0.72424  0.80666  0.32272  Biso   1.000  O
  O23      1.0000 0.50442  0.76794  0.01491  Biso   1.000  O
  O24      1.0000 0.62206  0.79980  0.03787  Biso   1.000  O
  C35      1.0000 0.40647  0.96493  0.55378  Biso   1.000  C
  N3       1.0000 0.54017  0.66408  0.36642  Biso   1.000  N
  C36      1.0000 0.47389  0.89230  0.34402  Biso   1.000  C
  C37      1.0000 0.38521  0.95768  0.41955  Biso   1.000  C
  H31      1.0000 0.34060  0.98660  0.42360  Biso   1.000  H
  C38      1.0000 0.49257  0.89572  0.47431  Biso   1.000  C
  H32      1.0000 0.52050  0.88100  0.51690  Biso   1.000  H
  N4       1.0000 0.46149  0.58279  0.27642  Biso   1.000  N
  C39      1.0000 0.51724  0.87370  0.40698  Biso   1.000  C
  C40      1.0000 0.42785  0.93896  0.48120  Biso   1.000  C
  C41      1.0000 0.74283  0.74576  0.34943  Biso   1.000  C
  C42      1.0000 0.44253  0.82927  0.22600  Biso   1.000  C
  H33      1.0000 0.39300  0.82040  0.24290  Biso   1.000  H
  C43      1.0000 0.58702  0.85456  0.17679  Biso   1.000  C
  H34      1.0000 0.63700  0.86210  0.16040  Biso   1.000  H
  C44      1.0000 0.53387  0.81659  0.13254  Biso   1.000  C
  C45      1.0000 0.81291  0.70968  0.32129  Biso   1.000  C
  C46      1.0000 0.56744  0.88106  0.24401  Biso   1.000  C
  C47      1.0000 0.23354  0.52395  0.18816  Biso   1.000  C
  C48      1.0000 0.40777  0.93407  0.35166  Biso   1.000  C
  H35      1.0000 0.37780  0.94650  0.30960  Biso   1.000  H
  C49      1.0000 0.55391  0.79281  0.05793  Biso   1.000  C
  C50      1.0000 0.49517  0.86691  0.27079  Biso   1.000  C
  C51      1.0000 0.45987  0.68836  0.36220  Biso   1.000  C
  H36      1.0000 0.45740  0.74080  0.34750  Biso   1.000  H
  H37      1.0000 0.43760  0.68390  0.41080  Biso   1.000  H
  C52      1.0000 0.46105  0.80483  0.15783  Biso   1.000  C
  H38      1.0000 0.42420  0.77990  0.12810  Biso   1.000  H
  C53      1.0000 0.49380  0.53844  0.33740  Biso   1.000  C
  H39      1.0000 0.52600  0.49880  0.31780  Biso   1.000  H
  H40      1.0000 0.45200  0.51490  0.36370  Biso   1.000  H
  C54      1.0000 0.57175  0.66720  0.29278  Biso   1.000  C
  H41      1.0000 0.62520  0.65030  0.29510  Biso   1.000  H
  H42      1.0000 0.57100  0.71880  0.27520  Biso   1.000  H
  C55      1.0000 0.52608  0.61895  0.23978  Biso   1.000  C
  H43      1.0000 0.50620  0.64950  0.19880  Biso   1.000  H
  H44      1.0000 0.55960  0.58070  0.21970  Biso   1.000  H
  C56      1.0000 0.85992  0.75065  0.27773  Biso   1.000  C
  H45      1.0000 0.84670  0.79990  0.26510  Biso   1.000  H
  C57      1.0000 0.83182  0.63819  0.33850  Biso   1.000  C
  H46      1.0000 0.79970  0.60950  0.36790  Biso   1.000  H
  C58      1.0000 0.54159  0.58595  0.39076  Biso   1.000  C
  H47      1.0000 0.52100  0.58230  0.44010  Biso   1.000  H
  H48      1.0000 0.59460  0.56780  0.39300  Biso   1.000  H
  C59      1.0000 0.41375  0.64184  0.30741  Biso   1.000  C
  H49      1.0000 0.37010  0.61940  0.33180  Biso   1.000  H
  H50      1.0000 0.39360  0.67380  0.26770  Biso   1.000  H
  C60      1.0000 0.15946  0.55658  0.20750  Biso   1.000  C
  C61      1.0000 0.92617  0.72010  0.25250  Biso   1.000  C
  C62      1.0000 0.94670  0.64820  0.27070  Biso   1.000  C
  C63      1.0000 0.09279  0.51950  0.19340  Biso   1.000  C
  H51      1.0000 0.09390  0.47270  0.17010  Biso   1.000  H
  C64      1.0000 0.89820  0.60821  0.31260  Biso   1.000  C
  H52      1.0000 0.91050  0.55850  0.32410  Biso   1.000  H
  C65      1.0000 0.02043  0.61680  0.24730  Biso   1.000  C
  C66      1.0000 0.08760  0.65360  0.26130  Biso   1.000  C
  H53      1.0000 0.08640  0.70020  0.28480  Biso   1.000  H
  C67      1.0000 0.15700  0.62490  0.24200  Biso   1.000  C
  H54      1.0000 0.20250  0.65150  0.25230  Biso   1.000  H
  O25      1.0000 0.97020  0.76040  0.20670  Biso   1.000  O
  H55      1.0000 0.95010  0.80190  0.19930  Biso   1.000  H
  O26      1.0000 0.95799  0.50940  0.19750  Biso   1.000  O
  H56      1.0000 0.96930  0.46710  0.18260  Biso   1.000  H
  C68      1.0000 0.02386  0.54910  0.21250  Biso   1.000  C
  O27      1.0000 0.08990  0.72010  0.30250  Biso   1.000  O
  H57      1.0000 0.13340  0.73880  0.30100  Biso   1.000  H
  O28      1.0000 0.90920  0.53330  0.33150  Biso   1.000  O
  H58      1.0000 0.91900  0.50890  0.29410  Biso   1.000  H
  H59      1.0000 0.95790  0.74850  0.22250  Biso   1.000  H
  H60      1.0000 0.97830  0.52280  0.20170  Biso   1.000  H
  Co7      1.0000 0.60328  0.47255  0.80205  Biso   1.000  Co
  Co8      1.0000 0.67877  0.60469  0.87440  Biso   1.000  Co
  Co9      1.0000 0.60467  0.76514  0.93505  Biso   1.000  Co
  O29      1.0000 0.61762  0.57511  0.78129  Biso   1.000  O
  O30      1.0000 0.35624  0.48651  0.05884  Biso   1.000  O
  O31      1.0000 0.44108  0.56358  0.10933  Biso   1.000  O
  O32      1.0000 0.70688  0.78927  0.89754  Biso   1.000  O
  O33      1.0000 0.23323  0.03749  0.65769  Biso   1.000  O
  O34      1.0000 0.58327  0.66518  0.90175  Biso   1.000  O
  O35      1.0000 0.29256  0.93827  0.70567  Biso   1.000  O
  O36      1.0000 0.72424  0.69334  0.82272  Biso   1.000  O
  O37      1.0000 0.50442  0.73206  0.51491  Biso   1.000  O
  O38      1.0000 0.62206  0.70020  0.53787  Biso   1.000  O
  C69      1.0000 0.40647  0.53507  0.05378  Biso   1.000  C
  N5       1.0000 0.54017  0.83592  0.86642  Biso   1.000  N
  C70      1.0000 0.47389  0.60770  0.84402  Biso   1.000  C
  C71      1.0000 0.38521  0.54232  0.91955  Biso   1.000  C
  H61      1.0000 0.34060  0.51340  0.92360  Biso   1.000  H
  C72      1.0000 0.49257  0.60428  0.97431  Biso   1.000  C
  H62      1.0000 0.52050  0.61900  0.01690  Biso   1.000  H
  N6       1.0000 0.46149  0.91721  0.77642  Biso   1.000  N
  C73      1.0000 0.51724  0.62630  0.90698  Biso   1.000  C
  C74      1.0000 0.42785  0.56104  0.98120  Biso   1.000  C
  C75      1.0000 0.74283  0.75424  0.84943  Biso   1.000  C
  C76      1.0000 0.44253  0.67073  0.72600  Biso   1.000  C
  H63      1.0000 0.39300  0.67960  0.74290  Biso   1.000  H
  C77      1.0000 0.58702  0.64544  0.67679  Biso   1.000  C
  H64      1.0000 0.63700  0.63790  0.66040  Biso   1.000  H
  C78      1.0000 0.53387  0.68341  0.63254  Biso   1.000  C
  C79      1.0000 0.81291  0.79032  0.82129  Biso   1.000  C
  C80      1.0000 0.56744  0.61894  0.74401  Biso   1.000  C
  C81      1.0000 0.23354  0.97605  0.68816  Biso   1.000  C
  C82      1.0000 0.40777  0.56593  0.85166  Biso   1.000  C
  H65      1.0000 0.37780  0.55350  0.80960  Biso   1.000  H
  C83      1.0000 0.55391  0.70719  0.55793  Biso   1.000  C
  C84      1.0000 0.49517  0.63309  0.77079  Biso   1.000  C
  C85      1.0000 0.45987  0.81164  0.86220  Biso   1.000  C
  H66      1.0000 0.45740  0.75920  0.84750  Biso   1.000  H
  H67      1.0000 0.43760  0.81610  0.91080  Biso   1.000  H
  C86      1.0000 0.46105  0.69517  0.65783  Biso   1.000  C
  H68      1.0000 0.42420  0.72010  0.62810  Biso   1.000  H
  C87      1.0000 0.49380  0.96156  0.83740  Biso   1.000  C
  H69      1.0000 0.52600  0.00120  0.81780  Biso   1.000  H
  H70      1.0000 0.45200  0.98510  0.86370  Biso   1.000  H
  C88      1.0000 0.57175  0.83280  0.79278  Biso   1.000  C
  H71      1.0000 0.62520  0.84970  0.79510  Biso   1.000  H
  H72      1.0000 0.57100  0.78120  0.77520  Biso   1.000  H
  C89      1.0000 0.52608  0.88105  0.73978  Biso   1.000  C
  H73      1.0000 0.50620  0.85050  0.69880  Biso   1.000  H
  H74      1.0000 0.55960  0.91930  0.71970  Biso   1.000  H
  C90      1.0000 0.85992  0.74935  0.77773  Biso   1.000  C
  H75      1.0000 0.84670  0.70010  0.76510  Biso   1.000  H
  C91      1.0000 0.83182  0.86181  0.83850  Biso   1.000  C
  H76      1.0000 0.79970  0.89050  0.86790  Biso   1.000  H
  C92      1.0000 0.54159  0.91405  0.89076  Biso   1.000  C
  H77      1.0000 0.52100  0.91770  0.94010  Biso   1.000  H
  H78      1.0000 0.59460  0.93220  0.89300  Biso   1.000  H
  C93      1.0000 0.41375  0.85816  0.80741  Biso   1.000  C
  H79      1.0000 0.37010  0.88060  0.83180  Biso   1.000  H
  H80      1.0000 0.39360  0.82620  0.76770  Biso   1.000  H
  C94      1.0000 0.15946  0.94342  0.70750  Biso   1.000  C
  C95      1.0000 0.92617  0.77990  0.75250  Biso   1.000  C
  C96      1.0000 0.94670  0.85180  0.77070  Biso   1.000  C
  C97      1.0000 0.09279  0.98050  0.69340  Biso   1.000  C
  H81      1.0000 0.09390  0.02730  0.67010  Biso   1.000  H
  C98      1.0000 0.89820  0.89179  0.81260  Biso   1.000  C
  H82      1.0000 0.91050  0.94150  0.82410  Biso   1.000  H
  C99      1.0000 0.02043  0.88320  0.74730  Biso   1.000  C
  C100     1.0000 0.08760  0.84640  0.76130  Biso   1.000  C
  H83      1.0000 0.08640  0.79980  0.78480  Biso   1.000  H
  C101     1.0000 0.15700  0.87510  0.74200  Biso   1.000  C
  H84      1.0000 0.20250  0.84850  0.75230  Biso   1.000  H
  O39      1.0000 0.97020  0.73960  0.70670  Biso   1.000  O
  H85      1.0000 0.95010  0.69810  0.69930  Biso   1.000  H
  O40      1.0000 0.95799  0.99060  0.69750  Biso   1.000  O
  H86      1.0000 0.96930  0.03290  0.68260  Biso   1.000  H
  C102     1.0000 0.02386  0.95090  0.71250  Biso   1.000  C
  O41      1.0000 0.08990  0.77990  0.80250  Biso   1.000  O
  H87      1.0000 0.13340  0.76120  0.80100  Biso   1.000  H
  O42      1.0000 0.90920  0.96670  0.83150  Biso   1.000  O
  H88      1.0000 0.91900  0.99110  0.79410  Biso   1.000  H
  H89      1.0000 0.95790  0.75150  0.72250  Biso   1.000  H
  H90      1.0000 0.97830  0.97720  0.70170  Biso   1.000  H
  Co10     1.0000 0.39672  0.97255  0.69795  Biso   1.000  Co
  Co11     1.0000 0.32123  0.10469  0.62560  Biso   1.000  Co
  Co12     1.0000 0.39533  0.26514  0.56495  Biso   1.000  Co
  O43      1.0000 0.38238  0.07511  0.71871  Biso   1.000  O
  O44      1.0000 0.64376  0.98651  0.44116  Biso   1.000  O
  O45      1.0000 0.55892  0.06358  0.39067  Biso   1.000  O
  O46      1.0000 0.29312  0.28927  0.60246  Biso   1.000  O
  O47      1.0000 0.76677  0.53749  0.84231  Biso   1.000  O
  O48      1.0000 0.41673  0.16518  0.59825  Biso   1.000  O
  O49      1.0000 0.70744  0.43827  0.79433  Biso   1.000  O
  O50      1.0000 0.27576  0.19334  0.67728  Biso   1.000  O
  O51      1.0000 0.49558  0.23206  0.98509  Biso   1.000  O
  O52      1.0000 0.37794  0.20020  0.96213  Biso   1.000  O
  C103     1.0000 0.59353  0.03507  0.44622  Biso   1.000  C
  N7       1.0000 0.45983  0.33592  0.63358  Biso   1.000  N
  C104     1.0000 0.52611  0.10770  0.65598  Biso   1.000  C
  C105     1.0000 0.61479  0.04232  0.58045  Biso   1.000  C
  H91      1.0000 0.65940  0.01340  0.57640  Biso   1.000  H
  C106     1.0000 0.50743  0.10428  0.52569  Biso   1.000  C
  H92      1.0000 0.47950  0.11900  0.48310  Biso   1.000  H
  N8       1.0000 0.53851  0.41721  0.72358  Biso   1.000  N
  C107     1.0000 0.48276  0.12630  0.59302  Biso   1.000  C
  C108     1.0000 0.57215  0.06104  0.51880  Biso   1.000  C
  C109     1.0000 0.25717  0.25424  0.65057  Biso   1.000  C
  C110     1.0000 0.55747  0.17073  0.77400  Biso   1.000  C
  H93      1.0000 0.60700  0.17960  0.75710  Biso   1.000  H
  C111     1.0000 0.41298  0.14544  0.82321  Biso   1.000  C
  H94      1.0000 0.36300  0.13790  0.83960  Biso   1.000  H
  C112     1.0000 0.46613  0.18341  0.86746  Biso   1.000  C
  C113     1.0000 0.18709  0.29032  0.67871  Biso   1.000  C
  C114     1.0000 0.43256  0.11894  0.75599  Biso   1.000  C
  C115     1.0000 0.76646  0.47605  0.81184  Biso   1.000  C
  C116     1.0000 0.59223  0.06593  0.64834  Biso   1.000  C
  H95      1.0000 0.62220  0.05350  0.69040  Biso   1.000  H
  C117     1.0000 0.44609  0.20719  0.94207  Biso   1.000  C
  C118     1.0000 0.50483  0.13309  0.72921  Biso   1.000  C
  C119     1.0000 0.54013  0.31164  0.63780  Biso   1.000  C
  H96      1.0000 0.54260  0.25920  0.65250  Biso   1.000  H
  H97      1.0000 0.56240  0.31610  0.58920  Biso   1.000  H
  C120     1.0000 0.53895  0.19517  0.84217  Biso   1.000  C
  H98      1.0000 0.57580  0.22010  0.87190  Biso   1.000  H
  C121     1.0000 0.50620  0.46156  0.66260  Biso   1.000  C
  H99      1.0000 0.47400  0.50120  0.68220  Biso   1.000  H
  H100     1.0000 0.54800  0.48510  0.63630  Biso   1.000  H
  C122     1.0000 0.42825  0.33280  0.70722  Biso   1.000  C
  H101     1.0000 0.37480  0.34970  0.70490  Biso   1.000  H
  H102     1.0000 0.42900  0.28120  0.72480  Biso   1.000  H
  C123     1.0000 0.47392  0.38105  0.76022  Biso   1.000  C
  H103     1.0000 0.49380  0.35050  0.80120  Biso   1.000  H
  H104     1.0000 0.44040  0.41930  0.78030  Biso   1.000  H
  C124     1.0000 0.14008  0.24935  0.72227  Biso   1.000  C
  H105     1.0000 0.15330  0.20010  0.73490  Biso   1.000  H
  C125     1.0000 0.16818  0.36181  0.66150  Biso   1.000  C
  H106     1.0000 0.20030  0.39050  0.63210  Biso   1.000  H
  C126     1.0000 0.45841  0.41405  0.60924  Biso   1.000  C
  H107     1.0000 0.47900  0.41770  0.55990  Biso   1.000  H
  H108     1.0000 0.40540  0.43220  0.60700  Biso   1.000  H
  C127     1.0000 0.58625  0.35816  0.69259  Biso   1.000  C
  H109     1.0000 0.62990  0.38060  0.66820  Biso   1.000  H
  H110     1.0000 0.60640  0.32620  0.73230  Biso   1.000  H
  C128     1.0000 0.84054  0.44342  0.79250  Biso   1.000  C
  C129     1.0000 0.07383  0.27990  0.74750  Biso   1.000  C
  C130     1.0000 0.05330  0.35180  0.72930  Biso   1.000  C
  C131     1.0000 0.90721  0.48050  0.80660  Biso   1.000  C
  H111     1.0000 0.90610  0.52730  0.82990  Biso   1.000  H
  C132     1.0000 0.10180  0.39179  0.68740  Biso   1.000  C
  H112     1.0000 0.08950  0.44150  0.67590  Biso   1.000  H
  C133     1.0000 0.97957  0.38320  0.75270  Biso   1.000  C
  C134     1.0000 0.91240  0.34640  0.73870  Biso   1.000  C
  H113     1.0000 0.91360  0.29980  0.71520  Biso   1.000  H
  C135     1.0000 0.84300  0.37510  0.75800  Biso   1.000  C
  H114     1.0000 0.79750  0.34850  0.74770  Biso   1.000  H
  O53      1.0000 0.02980  0.23960  0.79330  Biso   1.000  O
  H115     1.0000 0.04990  0.19810  0.80070  Biso   1.000  H
  O54      1.0000 0.04201  0.49060  0.80250  Biso   1.000  O
  H116     1.0000 0.03070  0.53290  0.81740  Biso   1.000  H
  C136     1.0000 0.97614  0.45090  0.78750  Biso   1.000  C
  O55      1.0000 0.91010  0.27990  0.69750  Biso   1.000  O
  H117     1.0000 0.86660  0.26120  0.69900  Biso   1.000  H
  O56      1.0000 0.09080  0.46670  0.66850  Biso   1.000  O
  H118     1.0000 0.08100  0.49110  0.70590  Biso   1.000  H
  H119     1.0000 0.04210  0.25150  0.77750  Biso   1.000  H
  H120     1.0000 0.02170  0.47720  0.79830  Biso   1.000  H
