data_image0
_cell_length_a       10
_cell_length_b       10
_cell_length_c       10
_cell_angle_alpha    90
_cell_angle_beta     90
_cell_angle_gamma    90

_symmetry_space_group_name_H-M    "P 1"
_symmetry_int_tables_number       1

loop_
  _symmetry_equiv_pos_as_xyz
  'x, y, z'

loop_
  _atom_site_label
  _atom_site_occupancy
  _atom_site_fract_x
  _atom_site_fract_y
  _atom_site_fract_z
  _atom_site_thermal_displace_type
  _atom_site_B_iso_or_equiv
  _atom_site_type_symbol
  O1       1.0000 0.05480  0.64725  0.58930  Biso   1.000  O
  O2       1.0000 0.10084  0.58208  0.66850  Biso   1.000  O
  C1       1.0000 0.09190  0.63140  0.64200  Biso   1.000  C
  C2       1.0000 0.13166  0.67358  0.67640  Biso   1.000  C
  C3       1.0000 0.17060  0.66031  0.74100  Biso   1.000  C
  H1       1.0000 0.17120  0.62460  0.76640  Biso   1.000  H
  C4       1.0000 0.20860  0.69934  0.76840  Biso   1.000  C
  H2       1.0000 0.23530  0.69010  0.81230  Biso   1.000  H
  C5       1.0000 0.16870  0.76483  0.66650  Biso   1.000  C
  C6       1.0000 0.16960  0.81790  0.61410  Biso   1.000  C
  H3       1.0000 0.19800  0.84200  0.63850  Biso   1.000  H
  H4       1.0000 0.13380  0.83590  0.61900  Biso   1.000  H
  H5       1.0000 0.17750  0.81010  0.55080  Biso   1.000  H
  C7       1.0000 0.20763  0.75157  0.73120  Biso   1.000  C
  C8       1.0000 0.13068  0.72581  0.63910  Biso   1.000  C
  H6       1.0000 0.10410  0.73480  0.59500  Biso   1.000  H
  C9       1.0000 0.24740  0.68170  0.84200  Biso   1.000  C
  H7       1.0000 0.24220  0.64440  0.86090  Biso   1.000  H
  H8       1.0000 0.28340  0.68580  0.81680  Biso   1.000  H
  H9       1.0000 0.24350  0.70570  0.89270  Biso   1.000  H
  H10      1.0000 0.16580  0.79950  0.64330  Biso   1.000  H
  O3       1.0000 0.94520  0.35275  0.58930  Biso   1.000  O
  O4       1.0000 0.89916  0.41792  0.66850  Biso   1.000  O
  C10      1.0000 0.90810  0.36860  0.64200  Biso   1.000  C
  C11      1.0000 0.86834  0.32642  0.67640  Biso   1.000  C
  C12      1.0000 0.82940  0.33969  0.74100  Biso   1.000  C
  H11      1.0000 0.82880  0.37540  0.76640  Biso   1.000  H
  C13      1.0000 0.79140  0.30066  0.76840  Biso   1.000  C
  H12      1.0000 0.76470  0.30990  0.81230  Biso   1.000  H
  C14      1.0000 0.83130  0.23517  0.66650  Biso   1.000  C
  C15      1.0000 0.83040  0.18210  0.61410  Biso   1.000  C
  H13      1.0000 0.80200  0.15800  0.63850  Biso   1.000  H
  H14      1.0000 0.86620  0.16410  0.61900  Biso   1.000  H
  H15      1.0000 0.82250  0.18990  0.55080  Biso   1.000  H
  C16      1.0000 0.79237  0.24843  0.73120  Biso   1.000  C
  C17      1.0000 0.86932  0.27419  0.63910  Biso   1.000  C
  H16      1.0000 0.89590  0.26520  0.59500  Biso   1.000  H
  C18      1.0000 0.75260  0.31830  0.84200  Biso   1.000  C
  H17      1.0000 0.75780  0.35560  0.86090  Biso   1.000  H
  H18      1.0000 0.71660  0.31420  0.81680  Biso   1.000  H
  H19      1.0000 0.75650  0.29430  0.89270  Biso   1.000  H
  H20      1.0000 0.83420  0.20050  0.64330  Biso   1.000  H
  O5       1.0000 0.35275  0.05480  0.08930  Biso   1.000  O
  O6       1.0000 0.41792  0.10084  0.16850  Biso   1.000  O
  C19      1.0000 0.36860  0.09190  0.14200  Biso   1.000  C
  C20      1.0000 0.32642  0.13166  0.17640  Biso   1.000  C
  C21      1.0000 0.33969  0.17060  0.24100  Biso   1.000  C
  H21      1.0000 0.37540  0.17120  0.26640  Biso   1.000  H
  C22      1.0000 0.30066  0.20860  0.26840  Biso   1.000  C
  H22      1.0000 0.30990  0.23530  0.31230  Biso   1.000  H
  C23      1.0000 0.23517  0.16870  0.16650  Biso   1.000  C
  C24      1.0000 0.18210  0.16960  0.11410  Biso   1.000  C
  H23      1.0000 0.15800  0.19800  0.13850  Biso   1.000  H
  H24      1.0000 0.16410  0.13380  0.11900  Biso   1.000  H
  H25      1.0000 0.18990  0.17750  0.05080  Biso   1.000  H
  C25      1.0000 0.24843  0.20763  0.23120  Biso   1.000  C
  C26      1.0000 0.27419  0.13068  0.13910  Biso   1.000  C
  H26      1.0000 0.26520  0.10410  0.09500  Biso   1.000  H
  C27      1.0000 0.31830  0.24740  0.34200  Biso   1.000  C
  H27      1.0000 0.35560  0.24220  0.36090  Biso   1.000  H
  H28      1.0000 0.31420  0.28340  0.31680  Biso   1.000  H
  H29      1.0000 0.29430  0.24350  0.39270  Biso   1.000  H
  H30      1.0000 0.20050  0.16580  0.14330  Biso   1.000  H
  O7       1.0000 0.64725  0.94520  0.08930  Biso   1.000  O
  O8       1.0000 0.58208  0.89916  0.16850  Biso   1.000  O
  C28      1.0000 0.63140  0.90810  0.14200  Biso   1.000  C
  C29      1.0000 0.67358  0.86834  0.17640  Biso   1.000  C
  C30      1.0000 0.66031  0.82940  0.24100  Biso   1.000  C
  H31      1.0000 0.62460  0.82880  0.26640  Biso   1.000  H
  C31      1.0000 0.69934  0.79140  0.26840  Biso   1.000  C
  H32      1.0000 0.69010  0.76470  0.31230  Biso   1.000  H
  C32      1.0000 0.76483  0.83130  0.16650  Biso   1.000  C
  C33      1.0000 0.81790  0.83040  0.11410  Biso   1.000  C
  H33      1.0000 0.84200  0.80200  0.13850  Biso   1.000  H
  H34      1.0000 0.83590  0.86620  0.11900  Biso   1.000  H
  H35      1.0000 0.81010  0.82250  0.05080  Biso   1.000  H
  C34      1.0000 0.75157  0.79237  0.23120  Biso   1.000  C
  C35      1.0000 0.72581  0.86932  0.13910  Biso   1.000  C
  H36      1.0000 0.73480  0.89590  0.09500  Biso   1.000  H
  C36      1.0000 0.68170  0.75260  0.34200  Biso   1.000  C
  H37      1.0000 0.64440  0.75780  0.36090  Biso   1.000  H
  H38      1.0000 0.68580  0.71660  0.31680  Biso   1.000  H
  H39      1.0000 0.70570  0.75650  0.39270  Biso   1.000  H
  H40      1.0000 0.79950  0.83420  0.14330  Biso   1.000  H
  O9       1.0000 0.94520  0.64725  0.41070  Biso   1.000  O
  O10      1.0000 0.89916  0.58208  0.33150  Biso   1.000  O
  C37      1.0000 0.90810  0.63140  0.35800  Biso   1.000  C
  C38      1.0000 0.86834  0.67358  0.32360  Biso   1.000  C
  C39      1.0000 0.82940  0.66031  0.25900  Biso   1.000  C
  H41      1.0000 0.82880  0.62460  0.23360  Biso   1.000  H
  C40      1.0000 0.79140  0.69934  0.23160  Biso   1.000  C
  H42      1.0000 0.76470  0.69010  0.18770  Biso   1.000  H
  C41      1.0000 0.83130  0.76483  0.33350  Biso   1.000  C
  C42      1.0000 0.83040  0.81790  0.38590  Biso   1.000  C
  H43      1.0000 0.80200  0.84200  0.36150  Biso   1.000  H
  H44      1.0000 0.86620  0.83590  0.38100  Biso   1.000  H
  H45      1.0000 0.82250  0.81010  0.44920  Biso   1.000  H
  C43      1.0000 0.79237  0.75157  0.26880  Biso   1.000  C
  C44      1.0000 0.86932  0.72581  0.36090  Biso   1.000  C
  H46      1.0000 0.89590  0.73480  0.40500  Biso   1.000  H
  C45      1.0000 0.75260  0.68170  0.15800  Biso   1.000  C
  H47      1.0000 0.75780  0.64440  0.13910  Biso   1.000  H
  H48      1.0000 0.71660  0.68580  0.18320  Biso   1.000  H
  H49      1.0000 0.75650  0.70570  0.10730  Biso   1.000  H
  H50      1.0000 0.83420  0.79950  0.35670  Biso   1.000  H
  O11      1.0000 0.05480  0.35275  0.41070  Biso   1.000  O
  O12      1.0000 0.10084  0.41792  0.33150  Biso   1.000  O
  C46      1.0000 0.09190  0.36860  0.35800  Biso   1.000  C
  C47      1.0000 0.13166  0.32642  0.32360  Biso   1.000  C
  C48      1.0000 0.17060  0.33969  0.25900  Biso   1.000  C
  H51      1.0000 0.17120  0.37540  0.23360  Biso   1.000  H
  C49      1.0000 0.20860  0.30066  0.23160  Biso   1.000  C
  H52      1.0000 0.23530  0.30990  0.18770  Biso   1.000  H
  C50      1.0000 0.16870  0.23517  0.33350  Biso   1.000  C
  C51      1.0000 0.16960  0.18210  0.38590  Biso   1.000  C
  H53      1.0000 0.19800  0.15800  0.36150  Biso   1.000  H
  H54      1.0000 0.13380  0.16410  0.38100  Biso   1.000  H
  H55      1.0000 0.17750  0.18990  0.44920  Biso   1.000  H
  C52      1.0000 0.20763  0.24843  0.26880  Biso   1.000  C
  C53      1.0000 0.13068  0.27419  0.36090  Biso   1.000  C
  H56      1.0000 0.10410  0.26520  0.40500  Biso   1.000  H
  C54      1.0000 0.24740  0.31830  0.15800  Biso   1.000  C
  H57      1.0000 0.24220  0.35560  0.13910  Biso   1.000  H
  H58      1.0000 0.28340  0.31420  0.18320  Biso   1.000  H
  H59      1.0000 0.24350  0.29430  0.10730  Biso   1.000  H
  H60      1.0000 0.16580  0.20050  0.35670  Biso   1.000  H
  O13      1.0000 0.64725  0.05480  0.91070  Biso   1.000  O
  O14      1.0000 0.58208  0.10084  0.83150  Biso   1.000  O
  C55      1.0000 0.63140  0.09190  0.85800  Biso   1.000  C
  C56      1.0000 0.67358  0.13166  0.82360  Biso   1.000  C
  C57      1.0000 0.66031  0.17060  0.75900  Biso   1.000  C
  H61      1.0000 0.62460  0.17120  0.73360  Biso   1.000  H
  C58      1.0000 0.69934  0.20860  0.73160  Biso   1.000  C
  H62      1.0000 0.69010  0.23530  0.68770  Biso   1.000  H
  C59      1.0000 0.76483  0.16870  0.83350  Biso   1.000  C
  C60      1.0000 0.81790  0.16960  0.88590  Biso   1.000  C
  H63      1.0000 0.84200  0.19800  0.86150  Biso   1.000  H
  H64      1.0000 0.83590  0.13380  0.88100  Biso   1.000  H
  H65      1.0000 0.81010  0.17750  0.94920  Biso   1.000  H
  C61      1.0000 0.75157  0.20763  0.76880  Biso   1.000  C
  C62      1.0000 0.72581  0.13068  0.86090  Biso   1.000  C
  H66      1.0000 0.73480  0.10410  0.90500  Biso   1.000  H
  C63      1.0000 0.68170  0.24740  0.65800  Biso   1.000  C
  H67      1.0000 0.64440  0.24220  0.63910  Biso   1.000  H
  H68      1.0000 0.68580  0.28340  0.68320  Biso   1.000  H
  H69      1.0000 0.70570  0.24350  0.60730  Biso   1.000  H
  H70      1.0000 0.79950  0.16580  0.85670  Biso   1.000  H
  O15      1.0000 0.35275  0.94520  0.91070  Biso   1.000  O
  O16      1.0000 0.41792  0.89916  0.83150  Biso   1.000  O
  C64      1.0000 0.36860  0.90810  0.85800  Biso   1.000  C
  C65      1.0000 0.32642  0.86834  0.82360  Biso   1.000  C
  C66      1.0000 0.33969  0.82940  0.75900  Biso   1.000  C
  H71      1.0000 0.37540  0.82880  0.73360  Biso   1.000  H
  C67      1.0000 0.30066  0.79140  0.73160  Biso   1.000  C
  H72      1.0000 0.30990  0.76470  0.68770  Biso   1.000  H
  C68      1.0000 0.23517  0.83130  0.83350  Biso   1.000  C
  C69      1.0000 0.18210  0.83040  0.88590  Biso   1.000  C
  H73      1.0000 0.15800  0.80200  0.86150  Biso   1.000  H
  H74      1.0000 0.16410  0.86620  0.88100  Biso   1.000  H
  H75      1.0000 0.18990  0.82250  0.94920  Biso   1.000  H
  C70      1.0000 0.24843  0.79237  0.76880  Biso   1.000  C
  C71      1.0000 0.27419  0.86932  0.86090  Biso   1.000  C
  H76      1.0000 0.26520  0.89590  0.90500  Biso   1.000  H
  C72      1.0000 0.31830  0.75260  0.65800  Biso   1.000  C
  H77      1.0000 0.35560  0.75780  0.63910  Biso   1.000  H
  H78      1.0000 0.31420  0.71660  0.68320  Biso   1.000  H
  H79      1.0000 0.29430  0.75650  0.60730  Biso   1.000  H
  H80      1.0000 0.20050  0.83420  0.85670  Biso   1.000  H
  O17      1.0000 0.94520  0.35275  0.41070  Biso   1.000  O
  O18      1.0000 0.89916  0.41792  0.33150  Biso   1.000  O
  C73      1.0000 0.90810  0.36860  0.35800  Biso   1.000  C
  C74      1.0000 0.86834  0.32642  0.32360  Biso   1.000  C
  C75      1.0000 0.82940  0.33969  0.25900  Biso   1.000  C
  H81      1.0000 0.82880  0.37540  0.23360  Biso   1.000  H
  C76      1.0000 0.79140  0.30066  0.23160  Biso   1.000  C
  H82      1.0000 0.76470  0.30990  0.18770  Biso   1.000  H
  C77      1.0000 0.83130  0.23517  0.33350  Biso   1.000  C
  C78      1.0000 0.83040  0.18210  0.38590  Biso   1.000  C
  H83      1.0000 0.80200  0.15800  0.36150  Biso   1.000  H
  H84      1.0000 0.86620  0.16410  0.38100  Biso   1.000  H
  H85      1.0000 0.82250  0.18990  0.44920  Biso   1.000  H
  C79      1.0000 0.79237  0.24843  0.26880  Biso   1.000  C
  C80      1.0000 0.86932  0.27419  0.36090  Biso   1.000  C
  H86      1.0000 0.89590  0.26520  0.40500  Biso   1.000  H
  C81      1.0000 0.75260  0.31830  0.15800  Biso   1.000  C
  H87      1.0000 0.75780  0.35560  0.13910  Biso   1.000  H
  H88      1.0000 0.71660  0.31420  0.18320  Biso   1.000  H
  H89      1.0000 0.75650  0.29430  0.10730  Biso   1.000  H
  H90      1.0000 0.83420  0.20050  0.35670  Biso   1.000  H
  O19      1.0000 0.05480  0.64725  0.41070  Biso   1.000  O
  O20      1.0000 0.10084  0.58208  0.33150  Biso   1.000  O
  C82      1.0000 0.09190  0.63140  0.35800  Biso   1.000  C
  C83      1.0000 0.13166  0.67358  0.32360  Biso   1.000  C
  C84      1.0000 0.17060  0.66031  0.25900  Biso   1.000  C
  H91      1.0000 0.17120  0.62460  0.23360  Biso   1.000  H
  C85      1.0000 0.20860  0.69934  0.23160  Biso   1.000  C
  H92      1.0000 0.23530  0.69010  0.18770  Biso   1.000  H
  C86      1.0000 0.16870  0.76483  0.33350  Biso   1.000  C
  C87      1.0000 0.16960  0.81790  0.38590  Biso   1.000  C
  H93      1.0000 0.19800  0.84200  0.36150  Biso   1.000  H
  H94      1.0000 0.13380  0.83590  0.38100  Biso   1.000  H
  H95      1.0000 0.17750  0.81010  0.44920  Biso   1.000  H
  C88      1.0000 0.20763  0.75157  0.26880  Biso   1.000  C
  C89      1.0000 0.13068  0.72581  0.36090  Biso   1.000  C
  H96      1.0000 0.10410  0.73480  0.40500  Biso   1.000  H
  C90      1.0000 0.24740  0.68170  0.15800  Biso   1.000  C
  H97      1.0000 0.24220  0.64440  0.13910  Biso   1.000  H
  H98      1.0000 0.28340  0.68580  0.18320  Biso   1.000  H
  H99      1.0000 0.24350  0.70570  0.10730  Biso   1.000  H
  H100     1.0000 0.16580  0.79950  0.35670  Biso   1.000  H
  O21      1.0000 0.64725  0.94520  0.91070  Biso   1.000  O
  O22      1.0000 0.58208  0.89916  0.83150  Biso   1.000  O
  C91      1.0000 0.63140  0.90810  0.85800  Biso   1.000  C
  C92      1.0000 0.67358  0.86834  0.82360  Biso   1.000  C
  C93      1.0000 0.66031  0.82940  0.75900  Biso   1.000  C
  H101     1.0000 0.62460  0.82880  0.73360  Biso   1.000  H
  C94      1.0000 0.69934  0.79140  0.73160  Biso   1.000  C
  H102     1.0000 0.69010  0.76470  0.68770  Biso   1.000  H
  C95      1.0000 0.76483  0.83130  0.83350  Biso   1.000  C
  C96      1.0000 0.81790  0.83040  0.88590  Biso   1.000  C
  H103     1.0000 0.84200  0.80200  0.86150  Biso   1.000  H
  H104     1.0000 0.83590  0.86620  0.88100  Biso   1.000  H
  H105     1.0000 0.81010  0.82250  0.94920  Biso   1.000  H
  C97      1.0000 0.75157  0.79237  0.76880  Biso   1.000  C
  C98      1.0000 0.72581  0.86932  0.86090  Biso   1.000  C
  H106     1.0000 0.73480  0.89590  0.90500  Biso   1.000  H
  C99      1.0000 0.68170  0.75260  0.65800  Biso   1.000  C
  H107     1.0000 0.64440  0.75780  0.63910  Biso   1.000  H
  H108     1.0000 0.68580  0.71660  0.68320  Biso   1.000  H
  H109     1.0000 0.70570  0.75650  0.60730  Biso   1.000  H
  H110     1.0000 0.79950  0.83420  0.85670  Biso   1.000  H
  O23      1.0000 0.35275  0.05480  0.91070  Biso   1.000  O
  O24      1.0000 0.41792  0.10084  0.83150  Biso   1.000  O
  C100     1.0000 0.36860  0.09190  0.85800  Biso   1.000  C
  C101     1.0000 0.32642  0.13166  0.82360  Biso   1.000  C
  C102     1.0000 0.33969  0.17060  0.75900  Biso   1.000  C
  H111     1.0000 0.37540  0.17120  0.73360  Biso   1.000  H
  C103     1.0000 0.30066  0.20860  0.73160  Biso   1.000  C
  H112     1.0000 0.30990  0.23530  0.68770  Biso   1.000  H
  C104     1.0000 0.23517  0.16870  0.83350  Biso   1.000  C
  C105     1.0000 0.18210  0.16960  0.88590  Biso   1.000  C
  H113     1.0000 0.15800  0.19800  0.86150  Biso   1.000  H
  H114     1.0000 0.16410  0.13380  0.88100  Biso   1.000  H
  H115     1.0000 0.18990  0.17750  0.94920  Biso   1.000  H
  C106     1.0000 0.24843  0.20763  0.76880  Biso   1.000  C
  C107     1.0000 0.27419  0.13068  0.86090  Biso   1.000  C
  H116     1.0000 0.26520  0.10410  0.90500  Biso   1.000  H
  C108     1.0000 0.31830  0.24740  0.65800  Biso   1.000  C
  H117     1.0000 0.35560  0.24220  0.63910  Biso   1.000  H
  H118     1.0000 0.31420  0.28340  0.68320  Biso   1.000  H
  H119     1.0000 0.29430  0.24350  0.60730  Biso   1.000  H
  H120     1.0000 0.20050  0.16580  0.85670  Biso   1.000  H
  O25      1.0000 0.05480  0.35275  0.58930  Biso   1.000  O
  O26      1.0000 0.10084  0.41792  0.66850  Biso   1.000  O
  C109     1.0000 0.09190  0.36860  0.64200  Biso   1.000  C
  C110     1.0000 0.13166  0.32642  0.67640  Biso   1.000  C
  C111     1.0000 0.17060  0.33969  0.74100  Biso   1.000  C
  H121     1.0000 0.17120  0.37540  0.76640  Biso   1.000  H
  C112     1.0000 0.20860  0.30066  0.76840  Biso   1.000  C
  H122     1.0000 0.23530  0.30990  0.81230  Biso   1.000  H
  C113     1.0000 0.16870  0.23517  0.66650  Biso   1.000  C
  C114     1.0000 0.16960  0.18210  0.61410  Biso   1.000  C
  H123     1.0000 0.19800  0.15800  0.63850  Biso   1.000  H
  H124     1.0000 0.13380  0.16410  0.61900  Biso   1.000  H
  H125     1.0000 0.17750  0.18990  0.55080  Biso   1.000  H
  C115     1.0000 0.20763  0.24843  0.73120  Biso   1.000  C
  C116     1.0000 0.13068  0.27419  0.63910  Biso   1.000  C
  H126     1.0000 0.10410  0.26520  0.59500  Biso   1.000  H
  C117     1.0000 0.24740  0.31830  0.84200  Biso   1.000  C
  H127     1.0000 0.24220  0.35560  0.86090  Biso   1.000  H
  H128     1.0000 0.28340  0.31420  0.81680  Biso   1.000  H
  H129     1.0000 0.24350  0.29430  0.89270  Biso   1.000  H
  H130     1.0000 0.16580  0.20050  0.64330  Biso   1.000  H
  O27      1.0000 0.94520  0.64725  0.58930  Biso   1.000  O
  O28      1.0000 0.89916  0.58208  0.66850  Biso   1.000  O
  C118     1.0000 0.90810  0.63140  0.64200  Biso   1.000  C
  C119     1.0000 0.86834  0.67358  0.67640  Biso   1.000  C
  C120     1.0000 0.82940  0.66031  0.74100  Biso   1.000  C
  H131     1.0000 0.82880  0.62460  0.76640  Biso   1.000  H
  C121     1.0000 0.79140  0.69934  0.76840  Biso   1.000  C
  H132     1.0000 0.76470  0.69010  0.81230  Biso   1.000  H
  C122     1.0000 0.83130  0.76483  0.66650  Biso   1.000  C
  C123     1.0000 0.83040  0.81790  0.61410  Biso   1.000  C
  H133     1.0000 0.80200  0.84200  0.63850  Biso   1.000  H
  H134     1.0000 0.86620  0.83590  0.61900  Biso   1.000  H
  H135     1.0000 0.82250  0.81010  0.55080  Biso   1.000  H
  C124     1.0000 0.79237  0.75157  0.73120  Biso   1.000  C
  C125     1.0000 0.86932  0.72581  0.63910  Biso   1.000  C
  H136     1.0000 0.89590  0.73480  0.59500  Biso   1.000  H
  C126     1.0000 0.75260  0.68170  0.84200  Biso   1.000  C
  H137     1.0000 0.75780  0.64440  0.86090  Biso   1.000  H
  H138     1.0000 0.71660  0.68580  0.81680  Biso   1.000  H
  H139     1.0000 0.75650  0.70570  0.89270  Biso   1.000  H
  H140     1.0000 0.83420  0.79950  0.64330  Biso   1.000  H
  O29      1.0000 0.35275  0.94520  0.08930  Biso   1.000  O
  O30      1.0000 0.41792  0.89916  0.16850  Biso   1.000  O
  C127     1.0000 0.36860  0.90810  0.14200  Biso   1.000  C
  C128     1.0000 0.32642  0.86834  0.17640  Biso   1.000  C
  C129     1.0000 0.33969  0.82940  0.24100  Biso   1.000  C
  H141     1.0000 0.37540  0.82880  0.26640  Biso   1.000  H
  C130     1.0000 0.30066  0.79140  0.26840  Biso   1.000  C
  H142     1.0000 0.30990  0.76470  0.31230  Biso   1.000  H
  C131     1.0000 0.23517  0.83130  0.16650  Biso   1.000  C
  C132     1.0000 0.18210  0.83040  0.11410  Biso   1.000  C
  H143     1.0000 0.15800  0.80200  0.13850  Biso   1.000  H
  H144     1.0000 0.16410  0.86620  0.11900  Biso   1.000  H
  H145     1.0000 0.18990  0.82250  0.05080  Biso   1.000  H
  C133     1.0000 0.24843  0.79237  0.23120  Biso   1.000  C
  C134     1.0000 0.27419  0.86932  0.13910  Biso   1.000  C
  H146     1.0000 0.26520  0.89590  0.09500  Biso   1.000  H
  C135     1.0000 0.31830  0.75260  0.34200  Biso   1.000  C
  H147     1.0000 0.35560  0.75780  0.36090  Biso   1.000  H
  H148     1.0000 0.31420  0.71660  0.31680  Biso   1.000  H
  H149     1.0000 0.29430  0.75650  0.39270  Biso   1.000  H
  H150     1.0000 0.20050  0.83420  0.14330  Biso   1.000  H
  O31      1.0000 0.64725  0.05480  0.08930  Biso   1.000  O
  O32      1.0000 0.58208  0.10084  0.16850  Biso   1.000  O
  C136     1.0000 0.63140  0.09190  0.14200  Biso   1.000  C
  C137     1.0000 0.67358  0.13166  0.17640  Biso   1.000  C
  C138     1.0000 0.66031  0.17060  0.24100  Biso   1.000  C
  H151     1.0000 0.62460  0.17120  0.26640  Biso   1.000  H
  C139     1.0000 0.69934  0.20860  0.26840  Biso   1.000  C
  H152     1.0000 0.69010  0.23530  0.31230  Biso   1.000  H
  C140     1.0000 0.76483  0.16870  0.16650  Biso   1.000  C
  C141     1.0000 0.81790  0.16960  0.11410  Biso   1.000  C
  H153     1.0000 0.84200  0.19800  0.13850  Biso   1.000  H
  H154     1.0000 0.83590  0.13380  0.11900  Biso   1.000  H
  H155     1.0000 0.81010  0.17750  0.05080  Biso   1.000  H
  C142     1.0000 0.75157  0.20763  0.23120  Biso   1.000  C
  C143     1.0000 0.72581  0.13068  0.13910  Biso   1.000  C
  H156     1.0000 0.73480  0.10410  0.09500  Biso   1.000  H
  C144     1.0000 0.68170  0.24740  0.34200  Biso   1.000  C
  H157     1.0000 0.64440  0.24220  0.36090  Biso   1.000  H
  H158     1.0000 0.68580  0.28340  0.31680  Biso   1.000  H
  H159     1.0000 0.70570  0.24350  0.39270  Biso   1.000  H
  H160     1.0000 0.79950  0.16580  0.14330  Biso   1.000  H
  Zr1      1.0000 0.07167  0.50000  0.61938  Biso   1.000  Zr
  O33      1.0000 0.05430  0.50000  0.76480  Biso   1.000  O
  O34      1.0000 0.16149  0.50000  0.60840  Biso   1.000  O
  H161     1.0000 0.17070  0.50000  0.55330  Biso   1.000  H
  C145     1.0000 0.04934  0.50000  0.95300  Biso   1.000  C
  H162     1.0000 0.08310  0.50000  0.92110  Biso   1.000  H
  Zr2      1.0000 0.92833  0.50000  0.61938  Biso   1.000  Zr
  O35      1.0000 0.94570  0.50000  0.76480  Biso   1.000  O
  O36      1.0000 0.83851  0.50000  0.60840  Biso   1.000  O
  H163     1.0000 0.82930  0.50000  0.55330  Biso   1.000  H
  C146     1.0000 0.95066  0.50000  0.95300  Biso   1.000  C
  H164     1.0000 0.91690  0.50000  0.92110  Biso   1.000  H
  Zr3      1.0000 0.50000  0.07167  0.11938  Biso   1.000  Zr
  O37      1.0000 0.50000  0.05430  0.26480  Biso   1.000  O
  O38      1.0000 0.50000  0.16149  0.10840  Biso   1.000  O
  H165     1.0000 0.50000  0.17070  0.05330  Biso   1.000  H
  C147     1.0000 0.50000  0.04934  0.45300  Biso   1.000  C
  H166     1.0000 0.50000  0.08310  0.42110  Biso   1.000  H
  Zr4      1.0000 0.50000  0.92833  0.11938  Biso   1.000  Zr
  O39      1.0000 0.50000  0.94570  0.26480  Biso   1.000  O
  O40      1.0000 0.50000  0.83851  0.10840  Biso   1.000  O
  H167     1.0000 0.50000  0.82930  0.05330  Biso   1.000  H
  C148     1.0000 0.50000  0.95066  0.45300  Biso   1.000  C
  H168     1.0000 0.50000  0.91690  0.42110  Biso   1.000  H
  Zr5      1.0000 0.92833  0.50000  0.38062  Biso   1.000  Zr
  O41      1.0000 0.94570  0.50000  0.23520  Biso   1.000  O
  O42      1.0000 0.83851  0.50000  0.39160  Biso   1.000  O
  H169     1.0000 0.82930  0.50000  0.44670  Biso   1.000  H
  C149     1.0000 0.95066  0.50000  0.04700  Biso   1.000  C
  H170     1.0000 0.91690  0.50000  0.07890  Biso   1.000  H
  Zr6      1.0000 0.07167  0.50000  0.38062  Biso   1.000  Zr
  O43      1.0000 0.05430  0.50000  0.23520  Biso   1.000  O
  O44      1.0000 0.16149  0.50000  0.39160  Biso   1.000  O
  H171     1.0000 0.17070  0.50000  0.44670  Biso   1.000  H
  C150     1.0000 0.04934  0.50000  0.04700  Biso   1.000  C
  H172     1.0000 0.08310  0.50000  0.07890  Biso   1.000  H
  Zr7      1.0000 0.50000  0.07167  0.88062  Biso   1.000  Zr
  O45      1.0000 0.50000  0.05430  0.73520  Biso   1.000  O
  O46      1.0000 0.50000  0.16149  0.89160  Biso   1.000  O
  H173     1.0000 0.50000  0.17070  0.94670  Biso   1.000  H
  C151     1.0000 0.50000  0.04934  0.54700  Biso   1.000  C
  H174     1.0000 0.50000  0.08310  0.57890  Biso   1.000  H
  Zr8      1.0000 0.50000  0.92833  0.88062  Biso   1.000  Zr
  O47      1.0000 0.50000  0.94570  0.73520  Biso   1.000  O
  O48      1.0000 0.50000  0.83851  0.89160  Biso   1.000  O
  H175     1.0000 0.50000  0.82930  0.94670  Biso   1.000  H
  C152     1.0000 0.50000  0.95066  0.54700  Biso   1.000  C
  H176     1.0000 0.50000  0.91690  0.57890  Biso   1.000  H
  Zr9      1.0000 0.00000  0.60101  0.50000  Biso   1.000  Zr
  Zr10     1.0000 0.00000  0.39899  0.50000  Biso   1.000  Zr
  Zr11     1.0000 0.39899  0.00000  0.00000  Biso   1.000  Zr
  Zr12     1.0000 0.60101  0.00000  0.00000  Biso   1.000  Zr
  O49      1.0000 0.00000  0.54410  0.59870  Biso   1.000  O
  O50      1.0000 0.00000  0.55580  0.63340  Biso   1.000  O
  H177     1.0000 0.00000  0.57930  0.68360  Biso   1.000  H
  O51      1.0000 0.00000  0.45590  0.59870  Biso   1.000  O
  O52      1.0000 0.00000  0.44420  0.63340  Biso   1.000  O
  H178     1.0000 0.00000  0.42070  0.68360  Biso   1.000  H
  O53      1.0000 0.45590  0.00000  0.09870  Biso   1.000  O
  O54      1.0000 0.44420  0.00000  0.13340  Biso   1.000  O
  H179     1.0000 0.42070  0.00000  0.18360  Biso   1.000  H
  O55      1.0000 0.54410  0.00000  0.09870  Biso   1.000  O
  O56      1.0000 0.55580  0.00000  0.13340  Biso   1.000  O
  H180     1.0000 0.57930  0.00000  0.18360  Biso   1.000  H
  O57      1.0000 0.00000  0.54410  0.40130  Biso   1.000  O
  O58      1.0000 0.00000  0.55580  0.36660  Biso   1.000  O
  H181     1.0000 0.00000  0.57930  0.31640  Biso   1.000  H
  O59      1.0000 0.00000  0.45590  0.40130  Biso   1.000  O
  O60      1.0000 0.00000  0.44420  0.36660  Biso   1.000  O
  H182     1.0000 0.00000  0.42070  0.31640  Biso   1.000  H
  O61      1.0000 0.54410  0.00000  0.90130  Biso   1.000  O
  O62      1.0000 0.55580  0.00000  0.86660  Biso   1.000  O
  H183     1.0000 0.57930  0.00000  0.81640  Biso   1.000  H
  O63      1.0000 0.45590  0.00000  0.90130  Biso   1.000  O
  O64      1.0000 0.44420  0.00000  0.86660  Biso   1.000  O
  H184     1.0000 0.42070  0.00000  0.81640  Biso   1.000  H
  O65      1.0000 0.06280  0.54160  0.50000  Biso   1.000  O
  O66      1.0000 0.08160  0.55650  0.50000  Biso   1.000  O
  H185     1.0000 0.11290  0.57920  0.50000  Biso   1.000  H
  O67      1.0000 0.93720  0.45840  0.50000  Biso   1.000  O
  O68      1.0000 0.91840  0.44350  0.50000  Biso   1.000  O
  H186     1.0000 0.88710  0.42080  0.50000  Biso   1.000  H
  O69      1.0000 0.45840  0.06280  0.00000  Biso   1.000  O
  O70      1.0000 0.44350  0.08160  0.00000  Biso   1.000  O
  H187     1.0000 0.42080  0.11290  0.00000  Biso   1.000  H
  O71      1.0000 0.54160  0.93720  0.00000  Biso   1.000  O
  O72      1.0000 0.55650  0.91840  0.00000  Biso   1.000  O
  H188     1.0000 0.57920  0.88710  0.00000  Biso   1.000  H
  O73      1.0000 0.93720  0.54160  0.50000  Biso   1.000  O
  O74      1.0000 0.91840  0.55650  0.50000  Biso   1.000  O
  H189     1.0000 0.88710  0.57920  0.50000  Biso   1.000  H
  O75      1.0000 0.06280  0.45840  0.50000  Biso   1.000  O
  O76      1.0000 0.08160  0.44350  0.50000  Biso   1.000  O
  H190     1.0000 0.11290  0.42080  0.50000  Biso   1.000  H
  O77      1.0000 0.54160  0.06280  0.00000  Biso   1.000  O
  O78      1.0000 0.55650  0.08160  0.00000  Biso   1.000  O
  H191     1.0000 0.57920  0.11290  0.00000  Biso   1.000  H
  O79      1.0000 0.45840  0.93720  0.00000  Biso   1.000  O
  O80      1.0000 0.44350  0.91840  0.00000  Biso   1.000  O
  H192     1.0000 0.42080  0.88710  0.00000  Biso   1.000  H
  C153     1.0000 0.00000  0.50000  0.80510  Biso   1.000  C
  C154     1.0000 0.00000  0.50000  0.90640  Biso   1.000  C
  C155     1.0000 0.50000  0.00000  0.30510  Biso   1.000  C
  C156     1.0000 0.50000  0.00000  0.40640  Biso   1.000  C
  C157     1.0000 0.00000  0.50000  0.19490  Biso   1.000  C
  C158     1.0000 0.00000  0.50000  0.09360  Biso   1.000  C
  C159     1.0000 0.50000  0.00000  0.69490  Biso   1.000  C
  C160     1.0000 0.50000  0.00000  0.59360  Biso   1.000  C
