data_image0
_cell_length_a       18.4365
_cell_length_b       16.7553
_cell_length_c       20.2441
_cell_angle_alpha    90
_cell_angle_beta     114.322
_cell_angle_gamma    90

_symmetry_space_group_name_H-M    "P 1"
_symmetry_int_tables_number       1

loop_
  _symmetry_equiv_pos_as_xyz
  'x, y, z'

loop_
  _atom_site_label
  _atom_site_occupancy
  _atom_site_fract_x
  _atom_site_fract_y
  _atom_site_fract_z
  _atom_site_thermal_displace_type
  _atom_site_B_iso_or_equiv
  _atom_site_type_symbol
  Ag1      1.0000 0.01880  0.10457  0.51264  Biso   1.000  Ag
  Ag2      1.0000 0.17649  0.14670  0.53683  Biso   1.000  Ag
  Ag3      1.0000 0.04207  0.26572  0.49238  Biso   1.000  Ag
  Ag4      1.0000 0.13893  0.25378  0.40595  Biso   1.000  Ag
  Ag5      1.0000 0.02440  0.25890  0.24700  Biso   1.000  Ag
  C1       1.0000 0.06710  0.16230  0.43750  Biso   1.000  C
  C2       1.0000 0.04880  0.13440  0.37800  Biso   1.000  C
  C3       1.0000 0.02310  0.08920  0.31150  Biso   1.000  C
  C4       1.0000 0.02490  0.00660  0.31410  Biso   1.000  C
  H1       1.0000 0.04250  0.97980  0.35820  Biso   1.000  H
  O1       1.0000 0.95240  0.14760  0.57610  Biso   1.000  O
  O2       1.0000 0.96640  0.27670  0.55940  Biso   1.000  O
  C5       1.0000 0.94010  0.21820  0.57980  Biso   1.000  C
  C6       1.0000 0.88580  0.23820  0.61860  Biso   1.000  C
  F1       1.0000 0.89600  0.19200  0.67170  Biso   1.000  F
  F2       1.0000 0.81300  0.23400  0.57530  Biso   1.000  F
  F3       1.0000 0.89600  0.30850  0.64600  Biso   1.000  F
  O3       1.0000 0.08320  0.98760  0.56710  Biso   1.000  O
  O4       1.0000 0.20900  0.02420  0.59800  Biso   1.000  O
  C7       1.0000 0.15520  0.97810  0.59640  Biso   1.000  C
  C8       1.0000 0.18350  0.90000  0.64000  Biso   1.000  C
  F4       1.0000 0.14320  0.87470  0.67040  Biso   1.000  F
  F5       1.0000 0.25260  0.90260  0.68750  Biso   1.000  F
  F6       1.0000 0.18700  0.84450  0.59920  Biso   1.000  F
  O5       1.0000 0.35980  0.20350  0.75270  Biso   1.000  O
  O6       1.0000 0.27330  0.20850  0.63850  Biso   1.000  O
  C9       1.0000 0.29360  0.19980  0.70450  Biso   1.000  C
  C10      1.0000 0.22500  0.18460  0.72790  Biso   1.000  C
  F7       1.0000 0.16020  0.16510  0.67720  Biso   1.000  F
  F8       1.0000 0.21180  0.24590  0.75800  Biso   1.000  F
  F9       1.0000 0.24290  0.12700  0.77400  Biso   1.000  F
  F10      1.0000 0.85000  0.30410  0.59500  Biso   1.000  F
  F11      1.0000 0.93070  0.24500  0.68590  Biso   1.000  F
  F12      1.0000 0.83340  0.18380  0.60900  Biso   1.000  F
  F13      1.0000 0.14010  0.84070  0.60590  Biso   1.000  F
  F14      1.0000 0.25690  0.88280  0.65700  Biso   1.000  F
  F15      1.0000 0.17500  0.91020  0.70090  Biso   1.000  F
  F16      1.0000 0.25820  0.29770  0.20860  Biso   1.000  F
  F17      1.0000 0.29760  0.38530  0.27930  Biso   1.000  F
  F18      1.0000 0.33490  0.27400  0.30740  Biso   1.000  F
  Ag6      1.0000 0.98120  0.10457  0.98736  Biso   1.000  Ag
  Ag7      1.0000 0.82351  0.14670  0.96317  Biso   1.000  Ag
  Ag8      1.0000 0.95793  0.26572  0.00762  Biso   1.000  Ag
  Ag9      1.0000 0.86107  0.25378  0.09405  Biso   1.000  Ag
  Ag10     1.0000 0.97560  0.25890  0.25300  Biso   1.000  Ag
  C11      1.0000 0.93290  0.16230  0.06250  Biso   1.000  C
  C12      1.0000 0.95120  0.13440  0.12200  Biso   1.000  C
  C13      1.0000 0.97690  0.08920  0.18850  Biso   1.000  C
  C14      1.0000 0.97510  0.00660  0.18590  Biso   1.000  C
  H2       1.0000 0.95750  0.97980  0.14180  Biso   1.000  H
  O7       1.0000 0.04760  0.14760  0.92390  Biso   1.000  O
  O8       1.0000 0.03360  0.27670  0.94060  Biso   1.000  O
  C15      1.0000 0.05990  0.21820  0.92020  Biso   1.000  C
  C16      1.0000 0.11420  0.23820  0.88140  Biso   1.000  C
  F19      1.0000 0.10400  0.19200  0.82830  Biso   1.000  F
  F20      1.0000 0.18700  0.23400  0.92470  Biso   1.000  F
  F21      1.0000 0.10400  0.30850  0.85400  Biso   1.000  F
  O9       1.0000 0.91680  0.98760  0.93290  Biso   1.000  O
  O10      1.0000 0.79100  0.02420  0.90200  Biso   1.000  O
  C17      1.0000 0.84480  0.97810  0.90360  Biso   1.000  C
  C18      1.0000 0.81650  0.90000  0.86000  Biso   1.000  C
  F22      1.0000 0.85680  0.87470  0.82960  Biso   1.000  F
  F23      1.0000 0.74740  0.90260  0.81250  Biso   1.000  F
  F24      1.0000 0.81300  0.84450  0.90080  Biso   1.000  F
  O11      1.0000 0.64020  0.20350  0.74730  Biso   1.000  O
  O12      1.0000 0.72670  0.20850  0.86150  Biso   1.000  O
  C19      1.0000 0.70640  0.19980  0.79550  Biso   1.000  C
  C20      1.0000 0.77500  0.18460  0.77210  Biso   1.000  C
  F25      1.0000 0.83980  0.16510  0.82280  Biso   1.000  F
  F26      1.0000 0.78820  0.24590  0.74200  Biso   1.000  F
  F27      1.0000 0.75710  0.12700  0.72600  Biso   1.000  F
  F28      1.0000 0.15000  0.30410  0.90500  Biso   1.000  F
  F29      1.0000 0.06930  0.24500  0.81410  Biso   1.000  F
  F30      1.0000 0.16660  0.18380  0.89100  Biso   1.000  F
  F31      1.0000 0.85990  0.84070  0.89410  Biso   1.000  F
  F32      1.0000 0.74310  0.88280  0.84300  Biso   1.000  F
  F33      1.0000 0.82500  0.91020  0.79910  Biso   1.000  F
  F34      1.0000 0.74180  0.29770  0.29140  Biso   1.000  F
  F35      1.0000 0.70240  0.38530  0.22070  Biso   1.000  F
  F36      1.0000 0.66510  0.27400  0.19260  Biso   1.000  F
  Ag11     1.0000 0.48120  0.39543  0.48736  Biso   1.000  Ag
  Ag12     1.0000 0.32351  0.35330  0.46317  Biso   1.000  Ag
  Ag13     1.0000 0.45793  0.23428  0.50762  Biso   1.000  Ag
  Ag14     1.0000 0.36107  0.24622  0.59405  Biso   1.000  Ag
  Ag15     1.0000 0.47560  0.24110  0.75300  Biso   1.000  Ag
  C21      1.0000 0.43290  0.33770  0.56250  Biso   1.000  C
  C22      1.0000 0.45120  0.36560  0.62200  Biso   1.000  C
  C23      1.0000 0.47690  0.41080  0.68850  Biso   1.000  C
  C24      1.0000 0.47510  0.49340  0.68590  Biso   1.000  C
  H3       1.0000 0.45750  0.52020  0.64180  Biso   1.000  H
  O13      1.0000 0.54760  0.35240  0.42390  Biso   1.000  O
  O14      1.0000 0.53360  0.22330  0.44060  Biso   1.000  O
  C25      1.0000 0.55990  0.28180  0.42020  Biso   1.000  C
  C26      1.0000 0.61420  0.26180  0.38140  Biso   1.000  C
  F37      1.0000 0.60400  0.30800  0.32830  Biso   1.000  F
  F38      1.0000 0.68700  0.26600  0.42470  Biso   1.000  F
  F39      1.0000 0.60400  0.19150  0.35400  Biso   1.000  F
  O15      1.0000 0.41680  0.51240  0.43290  Biso   1.000  O
  O16      1.0000 0.29100  0.47580  0.40200  Biso   1.000  O
  C27      1.0000 0.34480  0.52190  0.40360  Biso   1.000  C
  C28      1.0000 0.31650  0.60000  0.36000  Biso   1.000  C
  F40      1.0000 0.35680  0.62530  0.32960  Biso   1.000  F
  F41      1.0000 0.24740  0.59740  0.31250  Biso   1.000  F
  F42      1.0000 0.31300  0.65550  0.40080  Biso   1.000  F
  O17      1.0000 0.14020  0.29650  0.24730  Biso   1.000  O
  O18      1.0000 0.22670  0.29150  0.36150  Biso   1.000  O
  C29      1.0000 0.20640  0.30020  0.29550  Biso   1.000  C
  C30      1.0000 0.27500  0.31540  0.27210  Biso   1.000  C
  F43      1.0000 0.33980  0.33490  0.32280  Biso   1.000  F
  F44      1.0000 0.28820  0.25410  0.24200  Biso   1.000  F
  F45      1.0000 0.25710  0.37300  0.22600  Biso   1.000  F
  F46      1.0000 0.65000  0.19590  0.40500  Biso   1.000  F
  F47      1.0000 0.56930  0.25500  0.31410  Biso   1.000  F
  F48      1.0000 0.66660  0.31620  0.39100  Biso   1.000  F
  F49      1.0000 0.35990  0.65930  0.39410  Biso   1.000  F
  F50      1.0000 0.24310  0.61720  0.34300  Biso   1.000  F
  F51      1.0000 0.32500  0.58980  0.29910  Biso   1.000  F
  F52      1.0000 0.24180  0.20230  0.79140  Biso   1.000  F
  F53      1.0000 0.20240  0.11470  0.72070  Biso   1.000  F
  F54      1.0000 0.16510  0.22600  0.69260  Biso   1.000  F
  Ag16     1.0000 0.51880  0.39543  0.01264  Biso   1.000  Ag
  Ag17     1.0000 0.67649  0.35330  0.03683  Biso   1.000  Ag
  Ag18     1.0000 0.54207  0.23428  0.99238  Biso   1.000  Ag
  Ag19     1.0000 0.63893  0.24622  0.90595  Biso   1.000  Ag
  Ag20     1.0000 0.52440  0.24110  0.74700  Biso   1.000  Ag
  C31      1.0000 0.56710  0.33770  0.93750  Biso   1.000  C
  C32      1.0000 0.54880  0.36560  0.87800  Biso   1.000  C
  C33      1.0000 0.52310  0.41080  0.81150  Biso   1.000  C
  C34      1.0000 0.52490  0.49340  0.81410  Biso   1.000  C
  H4       1.0000 0.54250  0.52020  0.85820  Biso   1.000  H
  O19      1.0000 0.45240  0.35240  0.07610  Biso   1.000  O
  O20      1.0000 0.46640  0.22330  0.05940  Biso   1.000  O
  C35      1.0000 0.44010  0.28180  0.07980  Biso   1.000  C
  C36      1.0000 0.38580  0.26180  0.11860  Biso   1.000  C
  F55      1.0000 0.39600  0.30800  0.17170  Biso   1.000  F
  F56      1.0000 0.31300  0.26600  0.07530  Biso   1.000  F
  F57      1.0000 0.39600  0.19150  0.14600  Biso   1.000  F
  O21      1.0000 0.58320  0.51240  0.06710  Biso   1.000  O
  O22      1.0000 0.70900  0.47580  0.09800  Biso   1.000  O
  C37      1.0000 0.65520  0.52190  0.09640  Biso   1.000  C
  C38      1.0000 0.68350  0.60000  0.14000  Biso   1.000  C
  F58      1.0000 0.64320  0.62530  0.17040  Biso   1.000  F
  F59      1.0000 0.75260  0.59740  0.18750  Biso   1.000  F
  F60      1.0000 0.68700  0.65550  0.09920  Biso   1.000  F
  O23      1.0000 0.85980  0.29650  0.25270  Biso   1.000  O
  O24      1.0000 0.77330  0.29150  0.13850  Biso   1.000  O
  C39      1.0000 0.79360  0.30020  0.20450  Biso   1.000  C
  C40      1.0000 0.72500  0.31540  0.22790  Biso   1.000  C
  F61      1.0000 0.66020  0.33490  0.17720  Biso   1.000  F
  F62      1.0000 0.71180  0.25410  0.25800  Biso   1.000  F
  F63      1.0000 0.74290  0.37300  0.27400  Biso   1.000  F
  F64      1.0000 0.35000  0.19590  0.09500  Biso   1.000  F
  F65      1.0000 0.43070  0.25500  0.18590  Biso   1.000  F
  F66      1.0000 0.33340  0.31620  0.10900  Biso   1.000  F
  F67      1.0000 0.64010  0.65930  0.10590  Biso   1.000  F
  F68      1.0000 0.75690  0.61720  0.15700  Biso   1.000  F
  F69      1.0000 0.67500  0.58980  0.20090  Biso   1.000  F
  F70      1.0000 0.75820  0.20230  0.70860  Biso   1.000  F
  F71      1.0000 0.79760  0.11470  0.77930  Biso   1.000  F
  F72      1.0000 0.83490  0.22600  0.80740  Biso   1.000  F
  Ag21     1.0000 0.00000  0.26500  0.25000  Biso   1.000  Ag
  N1       1.0000 0.00000  0.13080  0.25000  Biso   1.000  N
  C41      1.0000 0.00000  0.96530  0.25000  Biso   1.000  C
  H5       1.0000 0.00000  0.90980  0.25000  Biso   1.000  H
  Ag22     1.0000 0.50000  0.23500  0.75000  Biso   1.000  Ag
  N2       1.0000 0.50000  0.36920  0.75000  Biso   1.000  N
  C42      1.0000 0.50000  0.53470  0.75000  Biso   1.000  C
  H6       1.0000 0.50000  0.59020  0.75000  Biso   1.000  H
  Ag23     1.0000 0.51880  0.60457  0.51264  Biso   1.000  Ag
  Ag24     1.0000 0.67649  0.64670  0.53683  Biso   1.000  Ag
  Ag25     1.0000 0.54207  0.76572  0.49238  Biso   1.000  Ag
  Ag26     1.0000 0.63893  0.75378  0.40595  Biso   1.000  Ag
  Ag27     1.0000 0.52440  0.75890  0.24700  Biso   1.000  Ag
  C43      1.0000 0.56710  0.66230  0.43750  Biso   1.000  C
  C44      1.0000 0.54880  0.63440  0.37800  Biso   1.000  C
  C45      1.0000 0.52310  0.58920  0.31150  Biso   1.000  C
  C46      1.0000 0.52490  0.50660  0.31410  Biso   1.000  C
  H7       1.0000 0.54250  0.47980  0.35820  Biso   1.000  H
  O25      1.0000 0.45240  0.64760  0.57610  Biso   1.000  O
  O26      1.0000 0.46640  0.77670  0.55940  Biso   1.000  O
  C47      1.0000 0.44010  0.71820  0.57980  Biso   1.000  C
  C48      1.0000 0.38580  0.73820  0.61860  Biso   1.000  C
  F73      1.0000 0.39600  0.69200  0.67170  Biso   1.000  F
  F74      1.0000 0.31300  0.73400  0.57530  Biso   1.000  F
  F75      1.0000 0.39600  0.80850  0.64600  Biso   1.000  F
  O27      1.0000 0.58320  0.48760  0.56710  Biso   1.000  O
  O28      1.0000 0.70900  0.52420  0.59800  Biso   1.000  O
  C49      1.0000 0.65520  0.47810  0.59640  Biso   1.000  C
  C50      1.0000 0.68350  0.40000  0.64000  Biso   1.000  C
  F76      1.0000 0.64320  0.37470  0.67040  Biso   1.000  F
  F77      1.0000 0.75260  0.40260  0.68750  Biso   1.000  F
  F78      1.0000 0.68700  0.34450  0.59920  Biso   1.000  F
  O29      1.0000 0.85980  0.70350  0.75270  Biso   1.000  O
  O30      1.0000 0.77330  0.70850  0.63850  Biso   1.000  O
  C51      1.0000 0.79360  0.69980  0.70450  Biso   1.000  C
  C52      1.0000 0.72500  0.68460  0.72790  Biso   1.000  C
  F79      1.0000 0.66020  0.66510  0.67720  Biso   1.000  F
  F80      1.0000 0.71180  0.74590  0.75800  Biso   1.000  F
  F81      1.0000 0.74290  0.62700  0.77400  Biso   1.000  F
  F82      1.0000 0.35000  0.80410  0.59500  Biso   1.000  F
  F83      1.0000 0.43070  0.74500  0.68590  Biso   1.000  F
  F84      1.0000 0.33340  0.68380  0.60900  Biso   1.000  F
  F85      1.0000 0.64010  0.34070  0.60590  Biso   1.000  F
  F86      1.0000 0.75690  0.38280  0.65700  Biso   1.000  F
  F87      1.0000 0.67500  0.41020  0.70090  Biso   1.000  F
  F88      1.0000 0.75820  0.79770  0.20860  Biso   1.000  F
  F89      1.0000 0.79760  0.88530  0.27930  Biso   1.000  F
  F90      1.0000 0.83490  0.77400  0.30740  Biso   1.000  F
  Ag28     1.0000 0.48120  0.60457  0.98736  Biso   1.000  Ag
  Ag29     1.0000 0.32351  0.64670  0.96317  Biso   1.000  Ag
  Ag30     1.0000 0.45793  0.76572  0.00762  Biso   1.000  Ag
  Ag31     1.0000 0.36107  0.75378  0.09405  Biso   1.000  Ag
  Ag32     1.0000 0.47560  0.75890  0.25300  Biso   1.000  Ag
  C53      1.0000 0.43290  0.66230  0.06250  Biso   1.000  C
  C54      1.0000 0.45120  0.63440  0.12200  Biso   1.000  C
  C55      1.0000 0.47690  0.58920  0.18850  Biso   1.000  C
  C56      1.0000 0.47510  0.50660  0.18590  Biso   1.000  C
  H8       1.0000 0.45750  0.47980  0.14180  Biso   1.000  H
  O31      1.0000 0.54760  0.64760  0.92390  Biso   1.000  O
  O32      1.0000 0.53360  0.77670  0.94060  Biso   1.000  O
  C57      1.0000 0.55990  0.71820  0.92020  Biso   1.000  C
  C58      1.0000 0.61420  0.73820  0.88140  Biso   1.000  C
  F91      1.0000 0.60400  0.69200  0.82830  Biso   1.000  F
  F92      1.0000 0.68700  0.73400  0.92470  Biso   1.000  F
  F93      1.0000 0.60400  0.80850  0.85400  Biso   1.000  F
  O33      1.0000 0.41680  0.48760  0.93290  Biso   1.000  O
  O34      1.0000 0.29100  0.52420  0.90200  Biso   1.000  O
  C59      1.0000 0.34480  0.47810  0.90360  Biso   1.000  C
  C60      1.0000 0.31650  0.40000  0.86000  Biso   1.000  C
  F94      1.0000 0.35680  0.37470  0.82960  Biso   1.000  F
  F95      1.0000 0.24740  0.40260  0.81250  Biso   1.000  F
  F96      1.0000 0.31300  0.34450  0.90080  Biso   1.000  F
  O35      1.0000 0.14020  0.70350  0.74730  Biso   1.000  O
  O36      1.0000 0.22670  0.70850  0.86150  Biso   1.000  O
  C61      1.0000 0.20640  0.69980  0.79550  Biso   1.000  C
  C62      1.0000 0.27500  0.68460  0.77210  Biso   1.000  C
  F97      1.0000 0.33980  0.66510  0.82280  Biso   1.000  F
  F98      1.0000 0.28820  0.74590  0.74200  Biso   1.000  F
  F99      1.0000 0.25710  0.62700  0.72600  Biso   1.000  F
  F100     1.0000 0.65000  0.80410  0.90500  Biso   1.000  F
  F101     1.0000 0.56930  0.74500  0.81410  Biso   1.000  F
  F102     1.0000 0.66660  0.68380  0.89100  Biso   1.000  F
  F103     1.0000 0.35990  0.34070  0.89410  Biso   1.000  F
  F104     1.0000 0.24310  0.38280  0.84300  Biso   1.000  F
  F105     1.0000 0.32500  0.41020  0.79910  Biso   1.000  F
  F106     1.0000 0.24180  0.79770  0.29140  Biso   1.000  F
  F107     1.0000 0.20240  0.88530  0.22070  Biso   1.000  F
  F108     1.0000 0.16510  0.77400  0.19260  Biso   1.000  F
  Ag33     1.0000 0.98120  0.89543  0.48736  Biso   1.000  Ag
  Ag34     1.0000 0.82351  0.85330  0.46317  Biso   1.000  Ag
  Ag35     1.0000 0.95793  0.73428  0.50762  Biso   1.000  Ag
  Ag36     1.0000 0.86107  0.74622  0.59405  Biso   1.000  Ag
  Ag37     1.0000 0.97560  0.74110  0.75300  Biso   1.000  Ag
  C63      1.0000 0.93290  0.83770  0.56250  Biso   1.000  C
  C64      1.0000 0.95120  0.86560  0.62200  Biso   1.000  C
  C65      1.0000 0.97690  0.91080  0.68850  Biso   1.000  C
  C66      1.0000 0.97510  0.99340  0.68590  Biso   1.000  C
  H9       1.0000 0.95750  0.02020  0.64180  Biso   1.000  H
  O37      1.0000 0.04760  0.85240  0.42390  Biso   1.000  O
  O38      1.0000 0.03360  0.72330  0.44060  Biso   1.000  O
  C67      1.0000 0.05990  0.78180  0.42020  Biso   1.000  C
  C68      1.0000 0.11420  0.76180  0.38140  Biso   1.000  C
  F109     1.0000 0.10400  0.80800  0.32830  Biso   1.000  F
  F110     1.0000 0.18700  0.76600  0.42470  Biso   1.000  F
  F111     1.0000 0.10400  0.69150  0.35400  Biso   1.000  F
  O39      1.0000 0.91680  0.01240  0.43290  Biso   1.000  O
  O40      1.0000 0.79100  0.97580  0.40200  Biso   1.000  O
  C69      1.0000 0.84480  0.02190  0.40360  Biso   1.000  C
  C70      1.0000 0.81650  0.10000  0.36000  Biso   1.000  C
  F112     1.0000 0.85680  0.12530  0.32960  Biso   1.000  F
  F113     1.0000 0.74740  0.09740  0.31250  Biso   1.000  F
  F114     1.0000 0.81300  0.15550  0.40080  Biso   1.000  F
  O41      1.0000 0.64020  0.79650  0.24730  Biso   1.000  O
  O42      1.0000 0.72670  0.79150  0.36150  Biso   1.000  O
  C71      1.0000 0.70640  0.80020  0.29550  Biso   1.000  C
  C72      1.0000 0.77500  0.81540  0.27210  Biso   1.000  C
  F115     1.0000 0.83980  0.83490  0.32280  Biso   1.000  F
  F116     1.0000 0.78820  0.75410  0.24200  Biso   1.000  F
  F117     1.0000 0.75710  0.87300  0.22600  Biso   1.000  F
  F118     1.0000 0.15000  0.69590  0.40500  Biso   1.000  F
  F119     1.0000 0.06930  0.75500  0.31410  Biso   1.000  F
  F120     1.0000 0.16660  0.81620  0.39100  Biso   1.000  F
  F121     1.0000 0.85990  0.15930  0.39410  Biso   1.000  F
  F122     1.0000 0.74310  0.11720  0.34300  Biso   1.000  F
  F123     1.0000 0.82500  0.08980  0.29910  Biso   1.000  F
  F124     1.0000 0.74180  0.70230  0.79140  Biso   1.000  F
  F125     1.0000 0.70240  0.61470  0.72070  Biso   1.000  F
  F126     1.0000 0.66510  0.72600  0.69260  Biso   1.000  F
  Ag38     1.0000 0.01880  0.89543  0.01264  Biso   1.000  Ag
  Ag39     1.0000 0.17649  0.85330  0.03683  Biso   1.000  Ag
  Ag40     1.0000 0.04207  0.73428  0.99238  Biso   1.000  Ag
  Ag41     1.0000 0.13893  0.74622  0.90595  Biso   1.000  Ag
  Ag42     1.0000 0.02440  0.74110  0.74700  Biso   1.000  Ag
  C73      1.0000 0.06710  0.83770  0.93750  Biso   1.000  C
  C74      1.0000 0.04880  0.86560  0.87800  Biso   1.000  C
  C75      1.0000 0.02310  0.91080  0.81150  Biso   1.000  C
  C76      1.0000 0.02490  0.99340  0.81410  Biso   1.000  C
  H10      1.0000 0.04250  0.02020  0.85820  Biso   1.000  H
  O43      1.0000 0.95240  0.85240  0.07610  Biso   1.000  O
  O44      1.0000 0.96640  0.72330  0.05940  Biso   1.000  O
  C77      1.0000 0.94010  0.78180  0.07980  Biso   1.000  C
  C78      1.0000 0.88580  0.76180  0.11860  Biso   1.000  C
  F127     1.0000 0.89600  0.80800  0.17170  Biso   1.000  F
  F128     1.0000 0.81300  0.76600  0.07530  Biso   1.000  F
  F129     1.0000 0.89600  0.69150  0.14600  Biso   1.000  F
  O45      1.0000 0.08320  0.01240  0.06710  Biso   1.000  O
  O46      1.0000 0.20900  0.97580  0.09800  Biso   1.000  O
  C79      1.0000 0.15520  0.02190  0.09640  Biso   1.000  C
  C80      1.0000 0.18350  0.10000  0.14000  Biso   1.000  C
  F130     1.0000 0.14320  0.12530  0.17040  Biso   1.000  F
  F131     1.0000 0.25260  0.09740  0.18750  Biso   1.000  F
  F132     1.0000 0.18700  0.15550  0.09920  Biso   1.000  F
  O47      1.0000 0.35980  0.79650  0.25270  Biso   1.000  O
  O48      1.0000 0.27330  0.79150  0.13850  Biso   1.000  O
  C81      1.0000 0.29360  0.80020  0.20450  Biso   1.000  C
  C82      1.0000 0.22500  0.81540  0.22790  Biso   1.000  C
  F133     1.0000 0.16020  0.83490  0.17720  Biso   1.000  F
  F134     1.0000 0.21180  0.75410  0.25800  Biso   1.000  F
  F135     1.0000 0.24290  0.87300  0.27400  Biso   1.000  F
  F136     1.0000 0.85000  0.69590  0.09500  Biso   1.000  F
  F137     1.0000 0.93070  0.75500  0.18590  Biso   1.000  F
  F138     1.0000 0.83340  0.81620  0.10900  Biso   1.000  F
  F139     1.0000 0.14010  0.15930  0.10590  Biso   1.000  F
  F140     1.0000 0.25690  0.11720  0.15700  Biso   1.000  F
  F141     1.0000 0.17500  0.08980  0.20090  Biso   1.000  F
  F142     1.0000 0.25820  0.70230  0.70860  Biso   1.000  F
  F143     1.0000 0.29760  0.61470  0.77930  Biso   1.000  F
  F144     1.0000 0.33490  0.72600  0.80740  Biso   1.000  F
  Ag43     1.0000 0.50000  0.76500  0.25000  Biso   1.000  Ag
  N3       1.0000 0.50000  0.63080  0.25000  Biso   1.000  N
  C83      1.0000 0.50000  0.46530  0.25000  Biso   1.000  C
  H11      1.0000 0.50000  0.40980  0.25000  Biso   1.000  H
  Ag44     1.0000 0.00000  0.73500  0.75000  Biso   1.000  Ag
  N4       1.0000 0.00000  0.86920  0.75000  Biso   1.000  N
  C84      1.0000 0.00000  0.03470  0.75000  Biso   1.000  C
  H12      1.0000 0.00000  0.09020  0.75000  Biso   1.000  H
