data_image0
_cell_length_a       15.5338
_cell_length_b       16.0601
_cell_length_c       17.2227
_cell_angle_alpha    90
_cell_angle_beta     90
_cell_angle_gamma    90

_symmetry_space_group_name_H-M    "P 1"
_symmetry_int_tables_number       1

loop_
  _symmetry_equiv_pos_as_xyz
  'x, y, z'

loop_
  _atom_site_label
  _atom_site_occupancy
  _atom_site_fract_x
  _atom_site_fract_y
  _atom_site_fract_z
  _atom_site_thermal_displace_type
  _atom_site_B_iso_or_equiv
  _atom_site_type_symbol
  Ag1      1.0000 0.71893  0.29700  0.98184  Biso   1.000  Ag
  Ag2      1.0000 0.75869  0.45332  0.90260  Biso   1.000  Ag
  Ag3      1.0000 0.68826  0.31570  0.81691  Biso   1.000  Ag
  Ag4      1.0000 0.80979  0.17569  0.85841  Biso   1.000  Ag
  C1       1.0000 0.98170  0.29770  0.87100  Biso   1.000  C
  C2       1.0000 0.02590  0.31110  0.80340  Biso   1.000  C
  H1       1.0000 0.99600  0.33090  0.76050  Biso   1.000  H
  C3       1.0000 0.15010  0.26870  0.85950  Biso   1.000  C
  H2       1.0000 0.20880  0.25840  0.85540  Biso   1.000  H
  C4       1.0000 0.02990  0.26750  0.93460  Biso   1.000  C
  H3       1.0000 0.00220  0.25710  0.98150  Biso   1.000  H
  C5       1.0000 0.88940  0.31180  0.87790  Biso   1.000  C
  C6       1.0000 0.81380  0.32940  0.87930  Biso   1.000  C
  C7       1.0000 0.57240  0.49260  0.86500  Biso   1.000  C
  C8       1.0000 0.48950  0.54380  0.88440  Biso   1.000  C
  F1       1.0000 0.42180  0.49340  0.88090  Biso   1.000  F
  F2       1.0000 0.47760  0.60310  0.83010  Biso   1.000  F
  F3       1.0000 0.49240  0.58090  0.95360  Biso   1.000  F
  C9       1.0000 0.48630  0.53900  0.84620  Biso   1.000  C
  F4       1.0000 0.45110  0.55010  0.91630  Biso   1.000  F
  F5       1.0000 0.43380  0.49500  0.80100  Biso   1.000  F
  F6       1.0000 0.50100  0.61270  0.81340  Biso   1.000  F
  N1       1.0000 0.11370  0.25360  0.92870  Biso   1.000  N
  N2       1.0000 0.11090  0.29670  0.79660  Biso   1.000  N
  O1       1.0000 0.56610  0.41670  0.85710  Biso   1.000  O
  O2       1.0000 0.63790  0.53540  0.87130  Biso   1.000  O
  Ag5      1.0000 0.78107  0.70300  0.48184  Biso   1.000  Ag
  Ag6      1.0000 0.74131  0.54668  0.40260  Biso   1.000  Ag
  Ag7      1.0000 0.81174  0.68430  0.31691  Biso   1.000  Ag
  Ag8      1.0000 0.69021  0.82431  0.35841  Biso   1.000  Ag
  C10      1.0000 0.51830  0.70230  0.37100  Biso   1.000  C
  C11      1.0000 0.47410  0.68890  0.30340  Biso   1.000  C
  H4       1.0000 0.50400  0.66910  0.26050  Biso   1.000  H
  C12      1.0000 0.34990  0.73130  0.35950  Biso   1.000  C
  H5       1.0000 0.29120  0.74160  0.35540  Biso   1.000  H
  C13      1.0000 0.47010  0.73250  0.43460  Biso   1.000  C
  H6       1.0000 0.49780  0.74290  0.48150  Biso   1.000  H
  C14      1.0000 0.61060  0.68820  0.37790  Biso   1.000  C
  C15      1.0000 0.68620  0.67060  0.37930  Biso   1.000  C
  C16      1.0000 0.92760  0.50740  0.36500  Biso   1.000  C
  C17      1.0000 0.01050  0.45620  0.38440  Biso   1.000  C
  F7       1.0000 0.07820  0.50660  0.38090  Biso   1.000  F
  F8       1.0000 0.02240  0.39690  0.33010  Biso   1.000  F
  F9       1.0000 0.00760  0.41910  0.45360  Biso   1.000  F
  C18      1.0000 0.01370  0.46100  0.34620  Biso   1.000  C
  F10      1.0000 0.04890  0.44990  0.41630  Biso   1.000  F
  F11      1.0000 0.06620  0.50500  0.30100  Biso   1.000  F
  F12      1.0000 0.99900  0.38730  0.31340  Biso   1.000  F
  N3       1.0000 0.38630  0.74640  0.42870  Biso   1.000  N
  N4       1.0000 0.38910  0.70330  0.29660  Biso   1.000  N
  O3       1.0000 0.93390  0.58330  0.35710  Biso   1.000  O
  O4       1.0000 0.86210  0.46460  0.37130  Biso   1.000  O
  Ag9      1.0000 0.28107  0.79700  0.51816  Biso   1.000  Ag
  Ag10     1.0000 0.24131  0.95332  0.59740  Biso   1.000  Ag
  Ag11     1.0000 0.31174  0.81570  0.68309  Biso   1.000  Ag
  Ag12     1.0000 0.19021  0.67569  0.64159  Biso   1.000  Ag
  C19      1.0000 0.01830  0.79770  0.62900  Biso   1.000  C
  C20      1.0000 0.97410  0.81110  0.69660  Biso   1.000  C
  H7       1.0000 0.00400  0.83090  0.73950  Biso   1.000  H
  C21      1.0000 0.84990  0.76870  0.64050  Biso   1.000  C
  H8       1.0000 0.79120  0.75840  0.64460  Biso   1.000  H
  C22      1.0000 0.97010  0.76750  0.56540  Biso   1.000  C
  H9       1.0000 0.99780  0.75710  0.51850  Biso   1.000  H
  C23      1.0000 0.11060  0.81180  0.62210  Biso   1.000  C
  C24      1.0000 0.18620  0.82940  0.62070  Biso   1.000  C
  C25      1.0000 0.42760  0.99260  0.63500  Biso   1.000  C
  C26      1.0000 0.51050  0.04380  0.61560  Biso   1.000  C
  F13      1.0000 0.57820  0.99340  0.61910  Biso   1.000  F
  F14      1.0000 0.52240  0.10310  0.66990  Biso   1.000  F
  F15      1.0000 0.50760  0.08090  0.54640  Biso   1.000  F
  C27      1.0000 0.51370  0.03900  0.65380  Biso   1.000  C
  F16      1.0000 0.54890  0.05010  0.58370  Biso   1.000  F
  F17      1.0000 0.56620  0.99500  0.69900  Biso   1.000  F
  F18      1.0000 0.49900  0.11270  0.68660  Biso   1.000  F
  N5       1.0000 0.88630  0.75360  0.57130  Biso   1.000  N
  N6       1.0000 0.88910  0.79670  0.70340  Biso   1.000  N
  O5       1.0000 0.43390  0.91670  0.64290  Biso   1.000  O
  O6       1.0000 0.36210  0.03540  0.62870  Biso   1.000  O
  Ag13     1.0000 0.21893  0.20300  0.01816  Biso   1.000  Ag
  Ag14     1.0000 0.25869  0.04668  0.09740  Biso   1.000  Ag
  Ag15     1.0000 0.18826  0.18430  0.18309  Biso   1.000  Ag
  Ag16     1.0000 0.30979  0.32431  0.14159  Biso   1.000  Ag
  C28      1.0000 0.48170  0.20230  0.12900  Biso   1.000  C
  C29      1.0000 0.52590  0.18890  0.19660  Biso   1.000  C
  H10      1.0000 0.49600  0.16910  0.23950  Biso   1.000  H
  C30      1.0000 0.65010  0.23130  0.14050  Biso   1.000  C
  H11      1.0000 0.70880  0.24160  0.14460  Biso   1.000  H
  C31      1.0000 0.52990  0.23250  0.06540  Biso   1.000  C
  H12      1.0000 0.50220  0.24290  0.01850  Biso   1.000  H
  C32      1.0000 0.38940  0.18820  0.12210  Biso   1.000  C
  C33      1.0000 0.31380  0.17060  0.12070  Biso   1.000  C
  C34      1.0000 0.07240  0.00740  0.13500  Biso   1.000  C
  C35      1.0000 0.98950  0.95620  0.11560  Biso   1.000  C
  F19      1.0000 0.92180  0.00660  0.11910  Biso   1.000  F
  F20      1.0000 0.97760  0.89690  0.16990  Biso   1.000  F
  F21      1.0000 0.99240  0.91910  0.04640  Biso   1.000  F
  C36      1.0000 0.98630  0.96100  0.15380  Biso   1.000  C
  F22      1.0000 0.95110  0.94990  0.08370  Biso   1.000  F
  F23      1.0000 0.93380  0.00500  0.19900  Biso   1.000  F
  F24      1.0000 0.00100  0.88730  0.18660  Biso   1.000  F
  N7       1.0000 0.61370  0.24640  0.07130  Biso   1.000  N
  N8       1.0000 0.61090  0.20330  0.20340  Biso   1.000  N
  O7       1.0000 0.06610  0.08330  0.14290  Biso   1.000  O
  O8       1.0000 0.13790  0.96460  0.12870  Biso   1.000  O
  Ag17     1.0000 0.28107  0.70300  0.01816  Biso   1.000  Ag
  Ag18     1.0000 0.24131  0.54668  0.09740  Biso   1.000  Ag
  Ag19     1.0000 0.31174  0.68430  0.18309  Biso   1.000  Ag
  Ag20     1.0000 0.19021  0.82431  0.14159  Biso   1.000  Ag
  C37      1.0000 0.01830  0.70230  0.12900  Biso   1.000  C
  C38      1.0000 0.97410  0.68890  0.19660  Biso   1.000  C
  H13      1.0000 0.00400  0.66910  0.23950  Biso   1.000  H
  C39      1.0000 0.84990  0.73130  0.14050  Biso   1.000  C
  H14      1.0000 0.79120  0.74160  0.14460  Biso   1.000  H
  C40      1.0000 0.97010  0.73250  0.06540  Biso   1.000  C
  H15      1.0000 0.99780  0.74290  0.01850  Biso   1.000  H
  C41      1.0000 0.11060  0.68820  0.12210  Biso   1.000  C
  C42      1.0000 0.18620  0.67060  0.12070  Biso   1.000  C
  C43      1.0000 0.42760  0.50740  0.13500  Biso   1.000  C
  C44      1.0000 0.51050  0.45620  0.11560  Biso   1.000  C
  F25      1.0000 0.57820  0.50660  0.11910  Biso   1.000  F
  F26      1.0000 0.52240  0.39690  0.16990  Biso   1.000  F
  F27      1.0000 0.50760  0.41910  0.04640  Biso   1.000  F
  C45      1.0000 0.51370  0.46100  0.15380  Biso   1.000  C
  F28      1.0000 0.54890  0.44990  0.08370  Biso   1.000  F
  F29      1.0000 0.56620  0.50500  0.19900  Biso   1.000  F
  F30      1.0000 0.49900  0.38730  0.18660  Biso   1.000  F
  N9       1.0000 0.88630  0.74640  0.07130  Biso   1.000  N
  N10      1.0000 0.88910  0.70330  0.20340  Biso   1.000  N
  O9       1.0000 0.43390  0.58330  0.14290  Biso   1.000  O
  O10      1.0000 0.36210  0.46460  0.12870  Biso   1.000  O
  Ag21     1.0000 0.21893  0.29700  0.51816  Biso   1.000  Ag
  Ag22     1.0000 0.25869  0.45332  0.59740  Biso   1.000  Ag
  Ag23     1.0000 0.18826  0.31570  0.68309  Biso   1.000  Ag
  Ag24     1.0000 0.30979  0.17569  0.64159  Biso   1.000  Ag
  C46      1.0000 0.48170  0.29770  0.62900  Biso   1.000  C
  C47      1.0000 0.52590  0.31110  0.69660  Biso   1.000  C
  H16      1.0000 0.49600  0.33090  0.73950  Biso   1.000  H
  C48      1.0000 0.65010  0.26870  0.64050  Biso   1.000  C
  H17      1.0000 0.70880  0.25840  0.64460  Biso   1.000  H
  C49      1.0000 0.52990  0.26750  0.56540  Biso   1.000  C
  H18      1.0000 0.50220  0.25710  0.51850  Biso   1.000  H
  C50      1.0000 0.38940  0.31180  0.62210  Biso   1.000  C
  C51      1.0000 0.31380  0.32940  0.62070  Biso   1.000  C
  C52      1.0000 0.07240  0.49260  0.63500  Biso   1.000  C
  C53      1.0000 0.98950  0.54380  0.61560  Biso   1.000  C
  F31      1.0000 0.92180  0.49340  0.61910  Biso   1.000  F
  F32      1.0000 0.97760  0.60310  0.66990  Biso   1.000  F
  F33      1.0000 0.99240  0.58090  0.54640  Biso   1.000  F
  C54      1.0000 0.98630  0.53900  0.65380  Biso   1.000  C
  F34      1.0000 0.95110  0.55010  0.58370  Biso   1.000  F
  F35      1.0000 0.93380  0.49500  0.69900  Biso   1.000  F
  F36      1.0000 0.00100  0.61270  0.68660  Biso   1.000  F
  N11      1.0000 0.61370  0.25360  0.57130  Biso   1.000  N
  N12      1.0000 0.61090  0.29670  0.70340  Biso   1.000  N
  O11      1.0000 0.06610  0.41670  0.64290  Biso   1.000  O
  O12      1.0000 0.13790  0.53540  0.62870  Biso   1.000  O
  Ag25     1.0000 0.71893  0.20300  0.48184  Biso   1.000  Ag
  Ag26     1.0000 0.75869  0.04668  0.40260  Biso   1.000  Ag
  Ag27     1.0000 0.68826  0.18430  0.31691  Biso   1.000  Ag
  Ag28     1.0000 0.80979  0.32431  0.35841  Biso   1.000  Ag
  C55      1.0000 0.98170  0.20230  0.37100  Biso   1.000  C
  C56      1.0000 0.02590  0.18890  0.30340  Biso   1.000  C
  H19      1.0000 0.99600  0.16910  0.26050  Biso   1.000  H
  C57      1.0000 0.15010  0.23130  0.35950  Biso   1.000  C
  H20      1.0000 0.20880  0.24160  0.35540  Biso   1.000  H
  C58      1.0000 0.02990  0.23250  0.43460  Biso   1.000  C
  H21      1.0000 0.00220  0.24290  0.48150  Biso   1.000  H
  C59      1.0000 0.88940  0.18820  0.37790  Biso   1.000  C
  C60      1.0000 0.81380  0.17060  0.37930  Biso   1.000  C
  C61      1.0000 0.57240  0.00740  0.36500  Biso   1.000  C
  C62      1.0000 0.48950  0.95620  0.38440  Biso   1.000  C
  F37      1.0000 0.42180  0.00660  0.38090  Biso   1.000  F
  F38      1.0000 0.47760  0.89690  0.33010  Biso   1.000  F
  F39      1.0000 0.49240  0.91910  0.45360  Biso   1.000  F
  C63      1.0000 0.48630  0.96100  0.34620  Biso   1.000  C
  F40      1.0000 0.45110  0.94990  0.41630  Biso   1.000  F
  F41      1.0000 0.43380  0.00500  0.30100  Biso   1.000  F
  F42      1.0000 0.50100  0.88730  0.31340  Biso   1.000  F
  N13      1.0000 0.11370  0.24640  0.42870  Biso   1.000  N
  N14      1.0000 0.11090  0.20330  0.29660  Biso   1.000  N
  O13      1.0000 0.56610  0.08330  0.35710  Biso   1.000  O
  O14      1.0000 0.63790  0.96460  0.37130  Biso   1.000  O
  Ag29     1.0000 0.78107  0.79700  0.98184  Biso   1.000  Ag
  Ag30     1.0000 0.74131  0.95332  0.90260  Biso   1.000  Ag
  Ag31     1.0000 0.81174  0.81570  0.81691  Biso   1.000  Ag
  Ag32     1.0000 0.69021  0.67569  0.85841  Biso   1.000  Ag
  C64      1.0000 0.51830  0.79770  0.87100  Biso   1.000  C
  C65      1.0000 0.47410  0.81110  0.80340  Biso   1.000  C
  H22      1.0000 0.50400  0.83090  0.76050  Biso   1.000  H
  C66      1.0000 0.34990  0.76870  0.85950  Biso   1.000  C
  H23      1.0000 0.29120  0.75840  0.85540  Biso   1.000  H
  C67      1.0000 0.47010  0.76750  0.93460  Biso   1.000  C
  H24      1.0000 0.49780  0.75710  0.98150  Biso   1.000  H
  C68      1.0000 0.61060  0.81180  0.87790  Biso   1.000  C
  C69      1.0000 0.68620  0.82940  0.87930  Biso   1.000  C
  C70      1.0000 0.92760  0.99260  0.86500  Biso   1.000  C
  C71      1.0000 0.01050  0.04380  0.88440  Biso   1.000  C
  F43      1.0000 0.07820  0.99340  0.88090  Biso   1.000  F
  F44      1.0000 0.02240  0.10310  0.83010  Biso   1.000  F
  F45      1.0000 0.00760  0.08090  0.95360  Biso   1.000  F
  C72      1.0000 0.01370  0.03900  0.84620  Biso   1.000  C
  F46      1.0000 0.04890  0.05010  0.91630  Biso   1.000  F
  F47      1.0000 0.06620  0.99500  0.80100  Biso   1.000  F
  F48      1.0000 0.99900  0.11270  0.81340  Biso   1.000  F
  N15      1.0000 0.38630  0.75360  0.92870  Biso   1.000  N
  N16      1.0000 0.38910  0.79670  0.79660  Biso   1.000  N
  O15      1.0000 0.93390  0.91670  0.85710  Biso   1.000  O
  O16      1.0000 0.86210  0.03540  0.87130  Biso   1.000  O
