data_image0
_cell_length_a       10.7252
_cell_length_b       11.5185
_cell_length_c       17.748
_cell_angle_alpha    99.149
_cell_angle_beta     103.438
_cell_angle_gamma    104.697

_symmetry_space_group_name_H-M    "P 1"
_symmetry_int_tables_number       1

loop_
  _symmetry_equiv_pos_as_xyz
  'x, y, z'

loop_
  _atom_site_label
  _atom_site_occupancy
  _atom_site_fract_x
  _atom_site_fract_y
  _atom_site_fract_z
  _atom_site_thermal_displace_type
  _atom_site_B_iso_or_equiv
  _atom_site_type_symbol
  Ag1      1.0000 0.16853  0.67522  0.10130  Biso   1.000  Ag
  Ag2      1.0000 0.94928  0.58984  0.89674  Biso   1.000  Ag
  Ag3      1.0000 0.06308  0.59599  0.23247  Biso   1.000  Ag
  Ag4      1.0000 0.21110  0.41362  0.26674  Biso   1.000  Ag
  Ag5      1.0000 0.81087  0.47481  0.40340  Biso   1.000  Ag
  Ag6      1.0000 0.07928  0.64184  0.73778  Biso   1.000  Ag
  Ag7      1.0000 0.10089  0.55017  0.39164  Biso   1.000  Ag
  Ag8      1.0000 0.73879  0.03846  0.26579  Biso   1.000  Ag
  N1       1.0000 0.67540  0.83840  0.25870  Biso   1.000  N
  C1       1.0000 0.23090  0.54290  0.18380  Biso   1.000  C
  C2       1.0000 0.35080  0.59210  0.20380  Biso   1.000  C
  C3       1.0000 0.49410  0.65140  0.22870  Biso   1.000  C
  C4       1.0000 0.54320  0.77790  0.23500  Biso   1.000  C
  H1       1.0000 0.48240  0.82170  0.22230  Biso   1.000  H
  C5       1.0000 0.76360  0.77620  0.27760  Biso   1.000  C
  H2       1.0000 0.85510  0.81830  0.29390  Biso   1.000  H
  C6       1.0000 0.72170  0.65000  0.27360  Biso   1.000  C
  C7       1.0000 0.58500  0.58650  0.24760  Biso   1.000  C
  H3       1.0000 0.55500  0.50180  0.24290  Biso   1.000  H
  C8       1.0000 0.82100  0.58680  0.29460  Biso   1.000  C
  C9       1.0000 0.91220  0.54270  0.30790  Biso   1.000  C
  O1       1.0000 0.83510  0.22320  0.36150  Biso   1.000  O
  O2       1.0000 0.91820  0.35430  0.47790  Biso   1.000  O
  C10      1.0000 0.88960  0.25130  0.43330  Biso   1.000  C
  C11      1.0000 0.92590  0.14910  0.47060  Biso   1.000  C
  F1       1.0000 0.82900  0.04880  0.45180  Biso   1.000  F
  F2       1.0000 0.01900  0.12500  0.44100  Biso   1.000  F
  F3       1.0000 0.97300  0.18200  0.54630  Biso   1.000  F
  F4       1.0000 0.81700  0.07200  0.47110  Biso   1.000  F
  F5       1.0000 0.98200  0.08500  0.43140  Biso   1.000  F
  F6       1.0000 0.00200  0.18500  0.54130  Biso   1.000  F
  O3       1.0000 0.88870  0.64120  0.14480  Biso   1.000  O
  O4       1.0000 0.94400  0.63230  0.03160  Biso   1.000  O
  C12      1.0000 0.86630  0.63480  0.07370  Biso   1.000  C
  C13      1.0000 0.72350  0.62930  0.02930  Biso   1.000  C
  F7       1.0000 0.65400  0.53120  0.97870  Biso   1.000  F
  F8       1.0000 0.72800  0.70900  0.98700  Biso   1.000  F
  F9       1.0000 0.64600  0.65000  0.06850  Biso   1.000  F
  F10      1.0000 0.67020  0.68650  0.07760  Biso   1.000  F
  F11      1.0000 0.65300  0.51150  0.00700  Biso   1.000  F
  F12      1.0000 0.71700  0.67700  0.96630  Biso   1.000  F
  O5       1.0000 0.29490  0.35710  0.37500  Biso   1.000  O
  O6       1.0000 0.22560  0.45470  0.46820  Biso   1.000  O
  C14      1.0000 0.28520  0.38620  0.44280  Biso   1.000  C
  C15      1.0000 0.36550  0.33550  0.50580  Biso   1.000  C
  F13      1.0000 0.29600  0.28400  0.54750  Biso   1.000  F
  F14      1.0000 0.46300  0.42500  0.55530  Biso   1.000  F
  F15      1.0000 0.41500  0.25900  0.47540  Biso   1.000  F
  F16      1.0000 0.46200  0.30500  0.48660  Biso   1.000  F
  F17      1.0000 0.29100  0.24000  0.51590  Biso   1.000  F
  F18      1.0000 0.42000  0.41010  0.57270  Biso   1.000  F
  O7       1.0000 0.28920  0.72530  0.41700  Biso   1.000  O
  O8       1.0000 0.20700  0.79800  0.31640  Biso   1.000  O
  C16      1.0000 0.29010  0.81030  0.38160  Biso   1.000  C
  C17      1.0000 0.40900  0.93070  0.40710  Biso   1.000  C
  F19      1.0000 0.51700  0.91340  0.39990  Biso   1.000  F
  F20      1.0000 0.43590  0.98070  0.47960  Biso   1.000  F
  F21      1.0000 0.39400  0.01430  0.37090  Biso   1.000  F
  O9       1.0000 0.26280  0.87340  0.18580  Biso   1.000  O
  O10      1.0000 0.19230  0.79960  0.29610  Biso   1.000  O
  C18      1.0000 0.22640  0.87600  0.25090  Biso   1.000  C
  C19      1.0000 0.28600  0.00400  0.31910  Biso   1.000  C
  F22      1.0000 0.40400  0.05600  0.32040  Biso   1.000  F
  F23      1.0000 0.28400  0.00940  0.38920  Biso   1.000  F
  F24      1.0000 0.22000  0.07300  0.29370  Biso   1.000  F
  Ag9      1.0000 0.83147  0.32478  0.89870  Biso   1.000  Ag
  Ag10     1.0000 0.05072  0.41016  0.10326  Biso   1.000  Ag
  Ag11     1.0000 0.93692  0.40401  0.76753  Biso   1.000  Ag
  Ag12     1.0000 0.78890  0.58638  0.73326  Biso   1.000  Ag
  Ag13     1.0000 0.18913  0.52519  0.59660  Biso   1.000  Ag
  Ag14     1.0000 0.92072  0.35816  0.26222  Biso   1.000  Ag
  Ag15     1.0000 0.89911  0.44983  0.60836  Biso   1.000  Ag
  Ag16     1.0000 0.26121  0.96154  0.73421  Biso   1.000  Ag
  N2       1.0000 0.32460  0.16160  0.74130  Biso   1.000  N
  C20      1.0000 0.76910  0.45710  0.81620  Biso   1.000  C
  C21      1.0000 0.64920  0.40790  0.79620  Biso   1.000  C
  C22      1.0000 0.50590  0.34860  0.77130  Biso   1.000  C
  C23      1.0000 0.45680  0.22210  0.76500  Biso   1.000  C
  H4       1.0000 0.51760  0.17830  0.77770  Biso   1.000  H
  C24      1.0000 0.23640  0.22380  0.72240  Biso   1.000  C
  H5       1.0000 0.14490  0.18170  0.70610  Biso   1.000  H
  C25      1.0000 0.27830  0.35000  0.72640  Biso   1.000  C
  C26      1.0000 0.41500  0.41350  0.75240  Biso   1.000  C
  H6       1.0000 0.44500  0.49820  0.75710  Biso   1.000  H
  C27      1.0000 0.17900  0.41320  0.70540  Biso   1.000  C
  C28      1.0000 0.08780  0.45730  0.69210  Biso   1.000  C
  O11      1.0000 0.16490  0.77680  0.63850  Biso   1.000  O
  O12      1.0000 0.08180  0.64570  0.52210  Biso   1.000  O
  C29      1.0000 0.11040  0.74870  0.56670  Biso   1.000  C
  C30      1.0000 0.07410  0.85090  0.52940  Biso   1.000  C
  F25      1.0000 0.17100  0.95120  0.54820  Biso   1.000  F
  F26      1.0000 0.98100  0.87500  0.55900  Biso   1.000  F
  F27      1.0000 0.02700  0.81800  0.45370  Biso   1.000  F
  F28      1.0000 0.18300  0.92800  0.52890  Biso   1.000  F
  F29      1.0000 0.01800  0.91500  0.56860  Biso   1.000  F
  F30      1.0000 0.99800  0.81500  0.45870  Biso   1.000  F
  O13      1.0000 0.11130  0.35880  0.85520  Biso   1.000  O
  O14      1.0000 0.05600  0.36770  0.96840  Biso   1.000  O
  C31      1.0000 0.13370  0.36520  0.92630  Biso   1.000  C
  C32      1.0000 0.27650  0.37070  0.97070  Biso   1.000  C
  F31      1.0000 0.34600  0.46880  0.02130  Biso   1.000  F
  F32      1.0000 0.27200  0.29100  0.01300  Biso   1.000  F
  F33      1.0000 0.35400  0.35000  0.93150  Biso   1.000  F
  F34      1.0000 0.32980  0.31350  0.92240  Biso   1.000  F
  F35      1.0000 0.34700  0.48850  0.99300  Biso   1.000  F
  F36      1.0000 0.28300  0.32300  0.03370  Biso   1.000  F
  O15      1.0000 0.70510  0.64290  0.62500  Biso   1.000  O
  O16      1.0000 0.77440  0.54530  0.53180  Biso   1.000  O
  C33      1.0000 0.71480  0.61380  0.55720  Biso   1.000  C
  C34      1.0000 0.63450  0.66450  0.49420  Biso   1.000  C
  F37      1.0000 0.70400  0.71600  0.45250  Biso   1.000  F
  F38      1.0000 0.53700  0.57500  0.44470  Biso   1.000  F
  F39      1.0000 0.58500  0.74100  0.52460  Biso   1.000  F
  F40      1.0000 0.53800  0.69500  0.51340  Biso   1.000  F
  F41      1.0000 0.70900  0.76000  0.48410  Biso   1.000  F
  F42      1.0000 0.58000  0.58990  0.42730  Biso   1.000  F
  O17      1.0000 0.71080  0.27470  0.58300  Biso   1.000  O
  O18      1.0000 0.79300  0.20200  0.68360  Biso   1.000  O
  C35      1.0000 0.70990  0.18970  0.61840  Biso   1.000  C
  C36      1.0000 0.59100  0.06930  0.59290  Biso   1.000  C
  F43      1.0000 0.48300  0.08660  0.60010  Biso   1.000  F
  F44      1.0000 0.56410  0.01930  0.52040  Biso   1.000  F
  F45      1.0000 0.60600  0.98570  0.62910  Biso   1.000  F
  O19      1.0000 0.73720  0.12660  0.81420  Biso   1.000  O
  O20      1.0000 0.80770  0.20040  0.70390  Biso   1.000  O
  C37      1.0000 0.77360  0.12400  0.74910  Biso   1.000  C
  C38      1.0000 0.71400  0.99600  0.68090  Biso   1.000  C
  F46      1.0000 0.59600  0.94400  0.67960  Biso   1.000  F
  F47      1.0000 0.71600  0.99060  0.61080  Biso   1.000  F
  F48      1.0000 0.78000  0.92700  0.70630  Biso   1.000  F
