data_image0
_cell_length_a       8.6194
_cell_length_b       21.695
_cell_length_c       13.3534
_cell_angle_alpha    90
_cell_angle_beta     108.238
_cell_angle_gamma    90

_symmetry_space_group_name_H-M    "P 1"
_symmetry_int_tables_number       1

loop_
  _symmetry_equiv_pos_as_xyz
  'x, y, z'

loop_
  _atom_site_label
  _atom_site_occupancy
  _atom_site_fract_x
  _atom_site_fract_y
  _atom_site_fract_z
  _atom_site_thermal_displace_type
  _atom_site_B_iso_or_equiv
  _atom_site_type_symbol
  Ag1      1.0000 0.78561  0.52800  0.47393  Biso   1.000  Ag
  Ag2      1.0000 0.47713  0.55414  0.69872  Biso   1.000  Ag
  Ag3      1.0000 0.38729  0.53665  0.41144  Biso   1.000  Ag
  Ag4      1.0000 0.90200  0.53137  0.71179  Biso   1.000  Ag
  Ag5      1.0000 0.86337  0.67453  0.86010  Biso   1.000  Ag
  N1       1.0000 0.69160  0.71539  0.69830  Biso   1.000  N
  N2       1.0000 0.50510  0.77472  0.51230  Biso   1.000  N
  C1       1.0000 0.65540  0.56259  0.59340  Biso   1.000  C
  C2       1.0000 0.64360  0.61821  0.60500  Biso   1.000  C
  C3       1.0000 0.62450  0.68433  0.60690  Biso   1.000  C
  C4       1.0000 0.66090  0.77580  0.69400  Biso   1.000  C
  H1       1.0000 0.70340  0.79910  0.75490  Biso   1.000  H
  C5       1.0000 0.56920  0.80502  0.60330  Biso   1.000  C
  H2       1.0000 0.55110  0.84720  0.60530  Biso   1.000  H
  C6       1.0000 0.53360  0.71404  0.51470  Biso   1.000  C
  H3       1.0000 0.49180  0.69110  0.45330  Biso   1.000  H
  O1       1.0000 0.67840  0.56475  0.30100  Biso   1.000  O
  O2       1.0000 0.45780  0.61247  0.31840  Biso   1.000  O
  C7       1.0000 0.57390  0.60673  0.28360  Biso   1.000  C
  C8       1.0000 0.58640  0.65880  0.20770  Biso   1.000  C
  F1       1.0000 0.44980  0.66290  0.12770  Biso   1.000  F
  F2       1.0000 0.69400  0.65120  0.16400  Biso   1.000  F
  F3       1.0000 0.59600  0.71390  0.25140  Biso   1.000  F
  O3       1.0000 0.26170  0.61715  0.47230  Biso   1.000  O
  O4       1.0000 0.05320  0.56327  0.48970  Biso   1.000  O
  C9       1.0000 0.12540  0.61177  0.48140  Biso   1.000  C
  C10      1.0000 0.03660  0.67270  0.48390  Biso   1.000  C
  F4       1.0000 0.88110  0.66640  0.45030  Biso   1.000  F
  F5       1.0000 0.07500  0.71630  0.43200  Biso   1.000  F
  F6       1.0000 0.08300  0.69310  0.58100  Biso   1.000  F
  O5       1.0000 0.24620  0.57371  0.72950  Biso   1.000  O
  O6       1.0000 0.06180  0.62129  0.78550  Biso   1.000  O
  C11      1.0000 0.20070  0.61480  0.77950  Biso   1.000  C
  C12      1.0000 0.33080  0.66120  0.83870  Biso   1.000  C
  F7       1.0000 0.37830  0.69520  0.77070  Biso   1.000  F
  F8       1.0000 0.46300  0.63390  0.89980  Biso   1.000  F
  F9       1.0000 0.28140  0.69907  0.89950  Biso   1.000  F
  Ag6      1.0000 0.08900  0.45190  0.29630  Biso   1.000  Ag
  F10      1.0000 0.73700  0.66330  0.20300  Biso   1.000  F
  F11      1.0000 0.56100  0.71180  0.24850  Biso   1.000  F
  F12      1.0000 0.48900  0.65220  0.11740  Biso   1.000  F
  F13      1.0000 0.12010  0.71330  0.53800  Biso   1.000  F
  F14      1.0000 0.91000  0.66980  0.50900  Biso   1.000  F
  F15      1.0000 0.99800  0.69670  0.39090  Biso   1.000  F
  Ag7      1.0000 0.71439  0.02800  0.02607  Biso   1.000  Ag
  Ag8      1.0000 0.02287  0.05414  0.80128  Biso   1.000  Ag
  Ag9      1.0000 0.11271  0.03665  0.08856  Biso   1.000  Ag
  Ag10     1.0000 0.59800  0.03137  0.78821  Biso   1.000  Ag
  Ag11     1.0000 0.63663  0.17453  0.63990  Biso   1.000  Ag
  N3       1.0000 0.80840  0.21539  0.80170  Biso   1.000  N
  N4       1.0000 0.99490  0.27472  0.98770  Biso   1.000  N
  C13      1.0000 0.84460  0.06259  0.90660  Biso   1.000  C
  C14      1.0000 0.85640  0.11821  0.89500  Biso   1.000  C
  C15      1.0000 0.87550  0.18433  0.89310  Biso   1.000  C
  C16      1.0000 0.83910  0.27580  0.80600  Biso   1.000  C
  H4       1.0000 0.79660  0.29910  0.74510  Biso   1.000  H
  C17      1.0000 0.93080  0.30502  0.89670  Biso   1.000  C
  H5       1.0000 0.94890  0.34720  0.89470  Biso   1.000  H
  C18      1.0000 0.96640  0.21404  0.98530  Biso   1.000  C
  H6       1.0000 0.00820  0.19110  0.04670  Biso   1.000  H
  O7       1.0000 0.82160  0.06475  0.19900  Biso   1.000  O
  O8       1.0000 0.04220  0.11247  0.18160  Biso   1.000  O
  C19      1.0000 0.92610  0.10673  0.21640  Biso   1.000  C
  C20      1.0000 0.91360  0.15880  0.29230  Biso   1.000  C
  F16      1.0000 0.05020  0.16290  0.37230  Biso   1.000  F
  F17      1.0000 0.80600  0.15120  0.33600  Biso   1.000  F
  F18      1.0000 0.90400  0.21390  0.24860  Biso   1.000  F
  O9       1.0000 0.23830  0.11715  0.02770  Biso   1.000  O
  O10      1.0000 0.44680  0.06327  0.01030  Biso   1.000  O
  C21      1.0000 0.37460  0.11177  0.01860  Biso   1.000  C
  C22      1.0000 0.46340  0.17270  0.01610  Biso   1.000  C
  F19      1.0000 0.61890  0.16640  0.04970  Biso   1.000  F
  F20      1.0000 0.42500  0.21630  0.06800  Biso   1.000  F
  F21      1.0000 0.41700  0.19310  0.91900  Biso   1.000  F
  O11      1.0000 0.25380  0.07371  0.77050  Biso   1.000  O
  O12      1.0000 0.43820  0.12129  0.71450  Biso   1.000  O
  C23      1.0000 0.29930  0.11480  0.72050  Biso   1.000  C
  C24      1.0000 0.16920  0.16120  0.66130  Biso   1.000  C
  F22      1.0000 0.12170  0.19520  0.72930  Biso   1.000  F
  F23      1.0000 0.03700  0.13390  0.60020  Biso   1.000  F
  F24      1.0000 0.21860  0.19907  0.60050  Biso   1.000  F
  Ag12     1.0000 0.41100  0.95190  0.20370  Biso   1.000  Ag
  F25      1.0000 0.76300  0.16330  0.29700  Biso   1.000  F
  F26      1.0000 0.93900  0.21180  0.25150  Biso   1.000  F
  F27      1.0000 0.01100  0.15220  0.38260  Biso   1.000  F
  F28      1.0000 0.37990  0.21330  0.96200  Biso   1.000  F
  F29      1.0000 0.59000  0.16980  0.99100  Biso   1.000  F
  F30      1.0000 0.50200  0.19670  0.10910  Biso   1.000  F
  Ag13     1.0000 0.21439  0.47200  0.52607  Biso   1.000  Ag
  Ag14     1.0000 0.52287  0.44586  0.30128  Biso   1.000  Ag
  Ag15     1.0000 0.61271  0.46335  0.58856  Biso   1.000  Ag
  Ag16     1.0000 0.09800  0.46863  0.28821  Biso   1.000  Ag
  Ag17     1.0000 0.13663  0.32547  0.13990  Biso   1.000  Ag
  N5       1.0000 0.30840  0.28461  0.30170  Biso   1.000  N
  N6       1.0000 0.49490  0.22528  0.48770  Biso   1.000  N
  C25      1.0000 0.34460  0.43741  0.40660  Biso   1.000  C
  C26      1.0000 0.35640  0.38179  0.39500  Biso   1.000  C
  C27      1.0000 0.37550  0.31567  0.39310  Biso   1.000  C
  C28      1.0000 0.33910  0.22420  0.30600  Biso   1.000  C
  H7       1.0000 0.29660  0.20090  0.24510  Biso   1.000  H
  C29      1.0000 0.43080  0.19498  0.39670  Biso   1.000  C
  H8       1.0000 0.44890  0.15280  0.39470  Biso   1.000  H
  C30      1.0000 0.46640  0.28596  0.48530  Biso   1.000  C
  H9       1.0000 0.50820  0.30890  0.54670  Biso   1.000  H
  O13      1.0000 0.32160  0.43525  0.69900  Biso   1.000  O
  O14      1.0000 0.54220  0.38753  0.68160  Biso   1.000  O
  C31      1.0000 0.42610  0.39327  0.71640  Biso   1.000  C
  C32      1.0000 0.41360  0.34120  0.79230  Biso   1.000  C
  F31      1.0000 0.55020  0.33710  0.87230  Biso   1.000  F
  F32      1.0000 0.30600  0.34880  0.83600  Biso   1.000  F
  F33      1.0000 0.40400  0.28610  0.74860  Biso   1.000  F
  O15      1.0000 0.73830  0.38285  0.52770  Biso   1.000  O
  O16      1.0000 0.94680  0.43673  0.51030  Biso   1.000  O
  C33      1.0000 0.87460  0.38823  0.51860  Biso   1.000  C
  C34      1.0000 0.96340  0.32730  0.51610  Biso   1.000  C
  F34      1.0000 0.11890  0.33360  0.54970  Biso   1.000  F
  F35      1.0000 0.92500  0.28370  0.56800  Biso   1.000  F
  F36      1.0000 0.91700  0.30690  0.41900  Biso   1.000  F
  O17      1.0000 0.75380  0.42629  0.27050  Biso   1.000  O
  O18      1.0000 0.93820  0.37871  0.21450  Biso   1.000  O
  C35      1.0000 0.79930  0.38520  0.22050  Biso   1.000  C
  C36      1.0000 0.66920  0.33880  0.16130  Biso   1.000  C
  F37      1.0000 0.62170  0.30480  0.22930  Biso   1.000  F
  F38      1.0000 0.53700  0.36610  0.10020  Biso   1.000  F
  F39      1.0000 0.71860  0.30093  0.10050  Biso   1.000  F
  Ag18     1.0000 0.91100  0.54810  0.70370  Biso   1.000  Ag
  F40      1.0000 0.26300  0.33670  0.79700  Biso   1.000  F
  F41      1.0000 0.43900  0.28820  0.75150  Biso   1.000  F
  F42      1.0000 0.51100  0.34780  0.88260  Biso   1.000  F
  F43      1.0000 0.87990  0.28670  0.46200  Biso   1.000  F
  F44      1.0000 0.09000  0.33020  0.49100  Biso   1.000  F
  F45      1.0000 0.00200  0.30330  0.60910  Biso   1.000  F
  Ag19     1.0000 0.28561  0.97200  0.97393  Biso   1.000  Ag
  Ag20     1.0000 0.97713  0.94586  0.19872  Biso   1.000  Ag
  Ag21     1.0000 0.88729  0.96335  0.91144  Biso   1.000  Ag
  Ag22     1.0000 0.40200  0.96863  0.21179  Biso   1.000  Ag
  Ag23     1.0000 0.36337  0.82547  0.36010  Biso   1.000  Ag
  N7       1.0000 0.19160  0.78461  0.19830  Biso   1.000  N
  N8       1.0000 0.00510  0.72528  0.01230  Biso   1.000  N
  C37      1.0000 0.15540  0.93741  0.09340  Biso   1.000  C
  C38      1.0000 0.14360  0.88179  0.10500  Biso   1.000  C
  C39      1.0000 0.12450  0.81567  0.10690  Biso   1.000  C
  C40      1.0000 0.16090  0.72420  0.19400  Biso   1.000  C
  H10      1.0000 0.20340  0.70090  0.25490  Biso   1.000  H
  C41      1.0000 0.06920  0.69498  0.10330  Biso   1.000  C
  H11      1.0000 0.05110  0.65280  0.10530  Biso   1.000  H
  C42      1.0000 0.03360  0.78596  0.01470  Biso   1.000  C
  H12      1.0000 0.99180  0.80890  0.95330  Biso   1.000  H
  O19      1.0000 0.17840  0.93525  0.80100  Biso   1.000  O
  O20      1.0000 0.95780  0.88753  0.81840  Biso   1.000  O
  C43      1.0000 0.07390  0.89327  0.78360  Biso   1.000  C
  C44      1.0000 0.08640  0.84120  0.70770  Biso   1.000  C
  F46      1.0000 0.94980  0.83710  0.62770  Biso   1.000  F
  F47      1.0000 0.19400  0.84880  0.66400  Biso   1.000  F
  F48      1.0000 0.09600  0.78610  0.75140  Biso   1.000  F
  O21      1.0000 0.76170  0.88285  0.97230  Biso   1.000  O
  O22      1.0000 0.55320  0.93673  0.98970  Biso   1.000  O
  C45      1.0000 0.62540  0.88823  0.98140  Biso   1.000  C
  C46      1.0000 0.53660  0.82730  0.98390  Biso   1.000  C
  F49      1.0000 0.38110  0.83360  0.95030  Biso   1.000  F
  F50      1.0000 0.57500  0.78370  0.93200  Biso   1.000  F
  F51      1.0000 0.58300  0.80690  0.08100  Biso   1.000  F
  O23      1.0000 0.74620  0.92629  0.22950  Biso   1.000  O
  O24      1.0000 0.56180  0.87871  0.28550  Biso   1.000  O
  C47      1.0000 0.70070  0.88520  0.27950  Biso   1.000  C
  C48      1.0000 0.83080  0.83880  0.33870  Biso   1.000  C
  F52      1.0000 0.87830  0.80480  0.27070  Biso   1.000  F
  F53      1.0000 0.96300  0.86610  0.39980  Biso   1.000  F
  F54      1.0000 0.78140  0.80093  0.39950  Biso   1.000  F
  Ag24     1.0000 0.58900  0.04810  0.79630  Biso   1.000  Ag
  F55      1.0000 0.23700  0.83670  0.70300  Biso   1.000  F
  F56      1.0000 0.06100  0.78820  0.74850  Biso   1.000  F
  F57      1.0000 0.98900  0.84780  0.61740  Biso   1.000  F
  F58      1.0000 0.62010  0.78670  0.03800  Biso   1.000  F
  F59      1.0000 0.41000  0.83020  0.00900  Biso   1.000  F
  F60      1.0000 0.49800  0.80330  0.89090  Biso   1.000  F
