data_image0
_cell_length_a       28.973
_cell_length_b       28.973
_cell_length_c       28.973
_cell_angle_alpha    90
_cell_angle_beta     90
_cell_angle_gamma    90

_symmetry_space_group_name_H-M    "P 1"
_symmetry_int_tables_number       1

loop_
  _symmetry_equiv_pos_as_xyz
  'x, y, z'

loop_
  _atom_site_label
  _atom_site_occupancy
  _atom_site_fract_x
  _atom_site_fract_y
  _atom_site_fract_z
  _atom_site_thermal_displace_type
  _atom_site_B_iso_or_equiv
  _atom_site_type_symbol
  O1       1.0000 0.54790  0.71280  0.04719  Biso   1.000  O
  B1       1.0000 0.62740  0.75830  0.18660  Biso   1.000  B
  H1       1.0000 0.61360  0.76450  0.22180  Biso   1.000  H
  B2       1.0000 0.64600  0.76650  0.09280  Biso   1.000  B
  H2       1.0000 0.65830  0.77870  0.05870  Biso   1.000  H
  B3       1.0000 0.60850  0.78930  0.12940  Biso   1.000  B
  H3       1.0000 0.58990  0.82270  0.12740  Biso   1.000  H
  B4       1.0000 0.66530  0.79110  0.14750  Biso   1.000  B
  H4       1.0000 0.68180  0.82540  0.15190  Biso   1.000  H
  O2       1.0000 0.45210  0.28720  0.04719  Biso   1.000  O
  B5       1.0000 0.37260  0.24170  0.18660  Biso   1.000  B
  H5       1.0000 0.38640  0.23550  0.22180  Biso   1.000  H
  B6       1.0000 0.35400  0.23350  0.09280  Biso   1.000  B
  H6       1.0000 0.34170  0.22130  0.05870  Biso   1.000  H
  B7       1.0000 0.39150  0.21070  0.12940  Biso   1.000  B
  H7       1.0000 0.41010  0.17730  0.12740  Biso   1.000  H
  B8       1.0000 0.33470  0.20890  0.14750  Biso   1.000  B
  H8       1.0000 0.31820  0.17460  0.15190  Biso   1.000  H
  O3       1.0000 0.45210  0.71280  0.95281  Biso   1.000  O
  B9       1.0000 0.37260  0.75830  0.81340  Biso   1.000  B
  H9       1.0000 0.38640  0.76450  0.77820  Biso   1.000  H
  B10      1.0000 0.35400  0.76650  0.90720  Biso   1.000  B
  H10      1.0000 0.34170  0.77870  0.94130  Biso   1.000  H
  B11      1.0000 0.39150  0.78930  0.87060  Biso   1.000  B
  H11      1.0000 0.41010  0.82270  0.87260  Biso   1.000  H
  B12      1.0000 0.33470  0.79110  0.85250  Biso   1.000  B
  H12      1.0000 0.31820  0.82540  0.84810  Biso   1.000  H
  O4       1.0000 0.54790  0.28720  0.95281  Biso   1.000  O
  B13      1.0000 0.62740  0.24170  0.81340  Biso   1.000  B
  H13      1.0000 0.61360  0.23550  0.77820  Biso   1.000  H
  B14      1.0000 0.64600  0.23350  0.90720  Biso   1.000  B
  H14      1.0000 0.65830  0.22130  0.94130  Biso   1.000  H
  B15      1.0000 0.60850  0.21070  0.87060  Biso   1.000  B
  H15      1.0000 0.58990  0.17730  0.87260  Biso   1.000  H
  B16      1.0000 0.66530  0.20890  0.85250  Biso   1.000  B
  H16      1.0000 0.68180  0.17460  0.84810  Biso   1.000  H
  O5       1.0000 0.04719  0.54790  0.71280  Biso   1.000  O
  B17      1.0000 0.18660  0.62740  0.75830  Biso   1.000  B
  H17      1.0000 0.22180  0.61360  0.76450  Biso   1.000  H
  B18      1.0000 0.09280  0.64600  0.76650  Biso   1.000  B
  H18      1.0000 0.05870  0.65830  0.77870  Biso   1.000  H
  B19      1.0000 0.12940  0.60850  0.78930  Biso   1.000  B
  H19      1.0000 0.12740  0.58990  0.82270  Biso   1.000  H
  B20      1.0000 0.14750  0.66530  0.79110  Biso   1.000  B
  H20      1.0000 0.15190  0.68180  0.82540  Biso   1.000  H
  O6       1.0000 0.04719  0.45210  0.28720  Biso   1.000  O
  B21      1.0000 0.18660  0.37260  0.24170  Biso   1.000  B
  H21      1.0000 0.22180  0.38640  0.23550  Biso   1.000  H
  B22      1.0000 0.09280  0.35400  0.23350  Biso   1.000  B
  H22      1.0000 0.05870  0.34170  0.22130  Biso   1.000  H
  B23      1.0000 0.12940  0.39150  0.21070  Biso   1.000  B
  H23      1.0000 0.12740  0.41010  0.17730  Biso   1.000  H
  B24      1.0000 0.14750  0.33470  0.20890  Biso   1.000  B
  H24      1.0000 0.15190  0.31820  0.17460  Biso   1.000  H
  O7       1.0000 0.95281  0.45210  0.71280  Biso   1.000  O
  B25      1.0000 0.81340  0.37260  0.75830  Biso   1.000  B
  H25      1.0000 0.77820  0.38640  0.76450  Biso   1.000  H
  B26      1.0000 0.90720  0.35400  0.76650  Biso   1.000  B
  H26      1.0000 0.94130  0.34170  0.77870  Biso   1.000  H
  B27      1.0000 0.87060  0.39150  0.78930  Biso   1.000  B
  H27      1.0000 0.87260  0.41010  0.82270  Biso   1.000  H
  B28      1.0000 0.85250  0.33470  0.79110  Biso   1.000  B
  H28      1.0000 0.84810  0.31820  0.82540  Biso   1.000  H
  O8       1.0000 0.95281  0.54790  0.28720  Biso   1.000  O
  B29      1.0000 0.81340  0.62740  0.24170  Biso   1.000  B
  H29      1.0000 0.77820  0.61360  0.23550  Biso   1.000  H
  B30      1.0000 0.90720  0.64600  0.23350  Biso   1.000  B
  H30      1.0000 0.94130  0.65830  0.22130  Biso   1.000  H
  B31      1.0000 0.87060  0.60850  0.21070  Biso   1.000  B
  H31      1.0000 0.87260  0.58990  0.17730  Biso   1.000  H
  B32      1.0000 0.85250  0.66530  0.20890  Biso   1.000  B
  H32      1.0000 0.84810  0.68180  0.17460  Biso   1.000  H
  O9       1.0000 0.71280  0.04719  0.54790  Biso   1.000  O
  B33      1.0000 0.75830  0.18660  0.62740  Biso   1.000  B
  H33      1.0000 0.76450  0.22180  0.61360  Biso   1.000  H
  B34      1.0000 0.76650  0.09280  0.64600  Biso   1.000  B
  H34      1.0000 0.77870  0.05870  0.65830  Biso   1.000  H
  B35      1.0000 0.78930  0.12940  0.60850  Biso   1.000  B
  H35      1.0000 0.82270  0.12740  0.58990  Biso   1.000  H
  B36      1.0000 0.79110  0.14750  0.66530  Biso   1.000  B
  H36      1.0000 0.82540  0.15190  0.68180  Biso   1.000  H
  O10      1.0000 0.28720  0.04719  0.45210  Biso   1.000  O
  B37      1.0000 0.24170  0.18660  0.37260  Biso   1.000  B
  H37      1.0000 0.23550  0.22180  0.38640  Biso   1.000  H
  B38      1.0000 0.23350  0.09280  0.35400  Biso   1.000  B
  H38      1.0000 0.22130  0.05870  0.34170  Biso   1.000  H
  B39      1.0000 0.21070  0.12940  0.39150  Biso   1.000  B
  H39      1.0000 0.17730  0.12740  0.41010  Biso   1.000  H
  B40      1.0000 0.20890  0.14750  0.33470  Biso   1.000  B
  H40      1.0000 0.17460  0.15190  0.31820  Biso   1.000  H
  O11      1.0000 0.71280  0.95281  0.45210  Biso   1.000  O
  B41      1.0000 0.75830  0.81340  0.37260  Biso   1.000  B
  H41      1.0000 0.76450  0.77820  0.38640  Biso   1.000  H
  B42      1.0000 0.76650  0.90720  0.35400  Biso   1.000  B
  H42      1.0000 0.77870  0.94130  0.34170  Biso   1.000  H
  B43      1.0000 0.78930  0.87060  0.39150  Biso   1.000  B
  H43      1.0000 0.82270  0.87260  0.41010  Biso   1.000  H
  B44      1.0000 0.79110  0.85250  0.33470  Biso   1.000  B
  H44      1.0000 0.82540  0.84810  0.31820  Biso   1.000  H
  O12      1.0000 0.28720  0.95281  0.54790  Biso   1.000  O
  B45      1.0000 0.24170  0.81340  0.62740  Biso   1.000  B
  H45      1.0000 0.23550  0.77820  0.61360  Biso   1.000  H
  B46      1.0000 0.23350  0.90720  0.64600  Biso   1.000  B
  H46      1.0000 0.22130  0.94130  0.65830  Biso   1.000  H
  B47      1.0000 0.21070  0.87060  0.60850  Biso   1.000  B
  H47      1.0000 0.17730  0.87260  0.58990  Biso   1.000  H
  B48      1.0000 0.20890  0.85250  0.66530  Biso   1.000  B
  H48      1.0000 0.17460  0.84810  0.68180  Biso   1.000  H
  O13      1.0000 0.21280  0.04790  0.45281  Biso   1.000  O
  B49      1.0000 0.25830  0.12740  0.31340  Biso   1.000  B
  H49      1.0000 0.26450  0.11360  0.27820  Biso   1.000  H
  B50      1.0000 0.26650  0.14600  0.40720  Biso   1.000  B
  H50      1.0000 0.27870  0.15830  0.44130  Biso   1.000  H
  B51      1.0000 0.28930  0.10850  0.37060  Biso   1.000  B
  H51      1.0000 0.32270  0.08990  0.37260  Biso   1.000  H
  B52      1.0000 0.29110  0.16530  0.35250  Biso   1.000  B
  H52      1.0000 0.32540  0.18180  0.34810  Biso   1.000  H
  O14      1.0000 0.78720  0.95210  0.45281  Biso   1.000  O
  B53      1.0000 0.74170  0.87260  0.31340  Biso   1.000  B
  H53      1.0000 0.73550  0.88640  0.27820  Biso   1.000  H
  B54      1.0000 0.73350  0.85400  0.40720  Biso   1.000  B
  H54      1.0000 0.72130  0.84170  0.44130  Biso   1.000  H
  B55      1.0000 0.71070  0.89150  0.37060  Biso   1.000  B
  H55      1.0000 0.67730  0.91010  0.37260  Biso   1.000  H
  B56      1.0000 0.70890  0.83470  0.35250  Biso   1.000  B
  H56      1.0000 0.67460  0.81820  0.34810  Biso   1.000  H
  O15      1.0000 0.21280  0.95210  0.54719  Biso   1.000  O
  B57      1.0000 0.25830  0.87260  0.68660  Biso   1.000  B
  H57      1.0000 0.26450  0.88640  0.72180  Biso   1.000  H
  B58      1.0000 0.26650  0.85400  0.59280  Biso   1.000  B
  H58      1.0000 0.27870  0.84170  0.55870  Biso   1.000  H
  B59      1.0000 0.28930  0.89150  0.62940  Biso   1.000  B
  H59      1.0000 0.32270  0.91010  0.62740  Biso   1.000  H
  B60      1.0000 0.29110  0.83470  0.64750  Biso   1.000  B
  H60      1.0000 0.32540  0.81820  0.65190  Biso   1.000  H
  O16      1.0000 0.78720  0.04790  0.54719  Biso   1.000  O
  B61      1.0000 0.74170  0.12740  0.68660  Biso   1.000  B
  H61      1.0000 0.73550  0.11360  0.72180  Biso   1.000  H
  B62      1.0000 0.73350  0.14600  0.59280  Biso   1.000  B
  H62      1.0000 0.72130  0.15830  0.55870  Biso   1.000  H
  B63      1.0000 0.71070  0.10850  0.62940  Biso   1.000  B
  H63      1.0000 0.67730  0.08990  0.62740  Biso   1.000  H
  B64      1.0000 0.70890  0.16530  0.64750  Biso   1.000  B
  H64      1.0000 0.67460  0.18180  0.65190  Biso   1.000  H
  O17      1.0000 0.04790  0.54719  0.78720  Biso   1.000  O
  B65      1.0000 0.12740  0.68660  0.74170  Biso   1.000  B
  H65      1.0000 0.11360  0.72180  0.73550  Biso   1.000  H
  B66      1.0000 0.14600  0.59280  0.73350  Biso   1.000  B
  H66      1.0000 0.15830  0.55870  0.72130  Biso   1.000  H
  B67      1.0000 0.10850  0.62940  0.71070  Biso   1.000  B
  H67      1.0000 0.08990  0.62740  0.67730  Biso   1.000  H
  B68      1.0000 0.16530  0.64750  0.70890  Biso   1.000  B
  H68      1.0000 0.18180  0.65190  0.67460  Biso   1.000  H
  O18      1.0000 0.95210  0.54719  0.21280  Biso   1.000  O
  B69      1.0000 0.87260  0.68660  0.25830  Biso   1.000  B
  H69      1.0000 0.88640  0.72180  0.26450  Biso   1.000  H
  B70      1.0000 0.85400  0.59280  0.26650  Biso   1.000  B
  H70      1.0000 0.84170  0.55870  0.27870  Biso   1.000  H
  B71      1.0000 0.89150  0.62940  0.28930  Biso   1.000  B
  H71      1.0000 0.91010  0.62740  0.32270  Biso   1.000  H
  B72      1.0000 0.83470  0.64750  0.29110  Biso   1.000  B
  H72      1.0000 0.81820  0.65190  0.32540  Biso   1.000  H
  O19      1.0000 0.95210  0.45281  0.78720  Biso   1.000  O
  B73      1.0000 0.87260  0.31340  0.74170  Biso   1.000  B
  H73      1.0000 0.88640  0.27820  0.73550  Biso   1.000  H
  B74      1.0000 0.85400  0.40720  0.73350  Biso   1.000  B
  H74      1.0000 0.84170  0.44130  0.72130  Biso   1.000  H
  B75      1.0000 0.89150  0.37060  0.71070  Biso   1.000  B
  H75      1.0000 0.91010  0.37260  0.67730  Biso   1.000  H
  B76      1.0000 0.83470  0.35250  0.70890  Biso   1.000  B
  H76      1.0000 0.81820  0.34810  0.67460  Biso   1.000  H
  O20      1.0000 0.04790  0.45281  0.21280  Biso   1.000  O
  B77      1.0000 0.12740  0.31340  0.25830  Biso   1.000  B
  H77      1.0000 0.11360  0.27820  0.26450  Biso   1.000  H
  B78      1.0000 0.14600  0.40720  0.26650  Biso   1.000  B
  H78      1.0000 0.15830  0.44130  0.27870  Biso   1.000  H
  B79      1.0000 0.10850  0.37060  0.28930  Biso   1.000  B
  H79      1.0000 0.08990  0.37260  0.32270  Biso   1.000  H
  B80      1.0000 0.16530  0.35250  0.29110  Biso   1.000  B
  H80      1.0000 0.18180  0.34810  0.32540  Biso   1.000  H
  O21      1.0000 0.54719  0.21280  0.95210  Biso   1.000  O
  B81      1.0000 0.68660  0.25830  0.87260  Biso   1.000  B
  H81      1.0000 0.72180  0.26450  0.88640  Biso   1.000  H
  B82      1.0000 0.59280  0.26650  0.85400  Biso   1.000  B
  H82      1.0000 0.55870  0.27870  0.84170  Biso   1.000  H
  B83      1.0000 0.62940  0.28930  0.89150  Biso   1.000  B
  H83      1.0000 0.62740  0.32270  0.91010  Biso   1.000  H
  B84      1.0000 0.64750  0.29110  0.83470  Biso   1.000  B
  H84      1.0000 0.65190  0.32540  0.81820  Biso   1.000  H
  O22      1.0000 0.54719  0.78720  0.04790  Biso   1.000  O
  B85      1.0000 0.68660  0.74170  0.12740  Biso   1.000  B
  H85      1.0000 0.72180  0.73550  0.11360  Biso   1.000  H
  B86      1.0000 0.59280  0.73350  0.14600  Biso   1.000  B
  H86      1.0000 0.55870  0.72130  0.15830  Biso   1.000  H
  B87      1.0000 0.62940  0.71070  0.10850  Biso   1.000  B
  H87      1.0000 0.62740  0.67730  0.08990  Biso   1.000  H
  B88      1.0000 0.64750  0.70890  0.16530  Biso   1.000  B
  H88      1.0000 0.65190  0.67460  0.18180  Biso   1.000  H
  O23      1.0000 0.45281  0.21280  0.04790  Biso   1.000  O
  B89      1.0000 0.31340  0.25830  0.12740  Biso   1.000  B
  H89      1.0000 0.27820  0.26450  0.11360  Biso   1.000  H
  B90      1.0000 0.40720  0.26650  0.14600  Biso   1.000  B
  H90      1.0000 0.44130  0.27870  0.15830  Biso   1.000  H
  B91      1.0000 0.37060  0.28930  0.10850  Biso   1.000  B
  H91      1.0000 0.37260  0.32270  0.08990  Biso   1.000  H
  B92      1.0000 0.35250  0.29110  0.16530  Biso   1.000  B
  H92      1.0000 0.34810  0.32540  0.18180  Biso   1.000  H
  O24      1.0000 0.45281  0.78720  0.95210  Biso   1.000  O
  B93      1.0000 0.31340  0.74170  0.87260  Biso   1.000  B
  H93      1.0000 0.27820  0.73550  0.88640  Biso   1.000  H
  B94      1.0000 0.40720  0.73350  0.85400  Biso   1.000  B
  H94      1.0000 0.44130  0.72130  0.84170  Biso   1.000  H
  B95      1.0000 0.37060  0.71070  0.89150  Biso   1.000  B
  H95      1.0000 0.37260  0.67730  0.91010  Biso   1.000  H
  B96      1.0000 0.35250  0.70890  0.83470  Biso   1.000  B
  H96      1.0000 0.34810  0.67460  0.81820  Biso   1.000  H
  O25      1.0000 0.45210  0.28720  0.95281  Biso   1.000  O
  B97      1.0000 0.37260  0.24170  0.81340  Biso   1.000  B
  H97      1.0000 0.38640  0.23550  0.77820  Biso   1.000  H
  B98      1.0000 0.35400  0.23350  0.90720  Biso   1.000  B
  H98      1.0000 0.34170  0.22130  0.94130  Biso   1.000  H
  B99      1.0000 0.39150  0.21070  0.87060  Biso   1.000  B
  H99      1.0000 0.41010  0.17730  0.87260  Biso   1.000  H
  B100     1.0000 0.33470  0.20890  0.85250  Biso   1.000  B
  H100     1.0000 0.31820  0.17460  0.84810  Biso   1.000  H
  O26      1.0000 0.54790  0.71280  0.95281  Biso   1.000  O
  B101     1.0000 0.62740  0.75830  0.81340  Biso   1.000  B
  H101     1.0000 0.61360  0.76450  0.77820  Biso   1.000  H
  B102     1.0000 0.64600  0.76650  0.90720  Biso   1.000  B
  H102     1.0000 0.65830  0.77870  0.94130  Biso   1.000  H
  B103     1.0000 0.60850  0.78930  0.87060  Biso   1.000  B
  H103     1.0000 0.58990  0.82270  0.87260  Biso   1.000  H
  B104     1.0000 0.66530  0.79110  0.85250  Biso   1.000  B
  H104     1.0000 0.68180  0.82540  0.84810  Biso   1.000  H
  O27      1.0000 0.54790  0.28720  0.04719  Biso   1.000  O
  B105     1.0000 0.62740  0.24170  0.18660  Biso   1.000  B
  H105     1.0000 0.61360  0.23550  0.22180  Biso   1.000  H
  B106     1.0000 0.64600  0.23350  0.09280  Biso   1.000  B
  H106     1.0000 0.65830  0.22130  0.05870  Biso   1.000  H
  B107     1.0000 0.60850  0.21070  0.12940  Biso   1.000  B
  H107     1.0000 0.58990  0.17730  0.12740  Biso   1.000  H
  B108     1.0000 0.66530  0.20890  0.14750  Biso   1.000  B
  H108     1.0000 0.68180  0.17460  0.15190  Biso   1.000  H
  O28      1.0000 0.45210  0.71280  0.04719  Biso   1.000  O
  B109     1.0000 0.37260  0.75830  0.18660  Biso   1.000  B
  H109     1.0000 0.38640  0.76450  0.22180  Biso   1.000  H
  B110     1.0000 0.35400  0.76650  0.09280  Biso   1.000  B
  H110     1.0000 0.34170  0.77870  0.05870  Biso   1.000  H
  B111     1.0000 0.39150  0.78930  0.12940  Biso   1.000  B
  H111     1.0000 0.41010  0.82270  0.12740  Biso   1.000  H
  B112     1.0000 0.33470  0.79110  0.14750  Biso   1.000  B
  H112     1.0000 0.31820  0.82540  0.15190  Biso   1.000  H
  O29      1.0000 0.95281  0.45210  0.28720  Biso   1.000  O
  B113     1.0000 0.81340  0.37260  0.24170  Biso   1.000  B
  H113     1.0000 0.77820  0.38640  0.23550  Biso   1.000  H
  B114     1.0000 0.90720  0.35400  0.23350  Biso   1.000  B
  H114     1.0000 0.94130  0.34170  0.22130  Biso   1.000  H
  B115     1.0000 0.87060  0.39150  0.21070  Biso   1.000  B
  H115     1.0000 0.87260  0.41010  0.17730  Biso   1.000  H
  B116     1.0000 0.85250  0.33470  0.20890  Biso   1.000  B
  H116     1.0000 0.84810  0.31820  0.17460  Biso   1.000  H
  O30      1.0000 0.95281  0.54790  0.71280  Biso   1.000  O
  B117     1.0000 0.81340  0.62740  0.75830  Biso   1.000  B
  H117     1.0000 0.77820  0.61360  0.76450  Biso   1.000  H
  B118     1.0000 0.90720  0.64600  0.76650  Biso   1.000  B
  H118     1.0000 0.94130  0.65830  0.77870  Biso   1.000  H
  B119     1.0000 0.87060  0.60850  0.78930  Biso   1.000  B
  H119     1.0000 0.87260  0.58990  0.82270  Biso   1.000  H
  B120     1.0000 0.85250  0.66530  0.79110  Biso   1.000  B
  H120     1.0000 0.84810  0.68180  0.82540  Biso   1.000  H
  O31      1.0000 0.04719  0.54790  0.28720  Biso   1.000  O
  B121     1.0000 0.18660  0.62740  0.24170  Biso   1.000  B
  H121     1.0000 0.22180  0.61360  0.23550  Biso   1.000  H
  B122     1.0000 0.09280  0.64600  0.23350  Biso   1.000  B
  H122     1.0000 0.05870  0.65830  0.22130  Biso   1.000  H
  B123     1.0000 0.12940  0.60850  0.21070  Biso   1.000  B
  H123     1.0000 0.12740  0.58990  0.17730  Biso   1.000  H
  B124     1.0000 0.14750  0.66530  0.20890  Biso   1.000  B
  H124     1.0000 0.15190  0.68180  0.17460  Biso   1.000  H
  O32      1.0000 0.04719  0.45210  0.71280  Biso   1.000  O
  B125     1.0000 0.18660  0.37260  0.75830  Biso   1.000  B
  H125     1.0000 0.22180  0.38640  0.76450  Biso   1.000  H
  B126     1.0000 0.09280  0.35400  0.76650  Biso   1.000  B
  H126     1.0000 0.05870  0.34170  0.77870  Biso   1.000  H
  B127     1.0000 0.12940  0.39150  0.78930  Biso   1.000  B
  H127     1.0000 0.12740  0.41010  0.82270  Biso   1.000  H
  B128     1.0000 0.14750  0.33470  0.79110  Biso   1.000  B
  H128     1.0000 0.15190  0.31820  0.82540  Biso   1.000  H
  O33      1.0000 0.28720  0.95281  0.45210  Biso   1.000  O
  B129     1.0000 0.24170  0.81340  0.37260  Biso   1.000  B
  H129     1.0000 0.23550  0.77820  0.38640  Biso   1.000  H
  B130     1.0000 0.23350  0.90720  0.35400  Biso   1.000  B
  H130     1.0000 0.22130  0.94130  0.34170  Biso   1.000  H
  B131     1.0000 0.21070  0.87060  0.39150  Biso   1.000  B
  H131     1.0000 0.17730  0.87260  0.41010  Biso   1.000  H
  B132     1.0000 0.20890  0.85250  0.33470  Biso   1.000  B
  H132     1.0000 0.17460  0.84810  0.31820  Biso   1.000  H
  O34      1.0000 0.71280  0.95281  0.54790  Biso   1.000  O
  B133     1.0000 0.75830  0.81340  0.62740  Biso   1.000  B
  H133     1.0000 0.76450  0.77820  0.61360  Biso   1.000  H
  B134     1.0000 0.76650  0.90720  0.64600  Biso   1.000  B
  H134     1.0000 0.77870  0.94130  0.65830  Biso   1.000  H
  B135     1.0000 0.78930  0.87060  0.60850  Biso   1.000  B
  H135     1.0000 0.82270  0.87260  0.58990  Biso   1.000  H
  B136     1.0000 0.79110  0.85250  0.66530  Biso   1.000  B
  H136     1.0000 0.82540  0.84810  0.68180  Biso   1.000  H
  O35      1.0000 0.28720  0.04719  0.54790  Biso   1.000  O
  B137     1.0000 0.24170  0.18660  0.62740  Biso   1.000  B
  H137     1.0000 0.23550  0.22180  0.61360  Biso   1.000  H
  B138     1.0000 0.23350  0.09280  0.64600  Biso   1.000  B
  H138     1.0000 0.22130  0.05870  0.65830  Biso   1.000  H
  B139     1.0000 0.21070  0.12940  0.60850  Biso   1.000  B
  H139     1.0000 0.17730  0.12740  0.58990  Biso   1.000  H
  B140     1.0000 0.20890  0.14750  0.66530  Biso   1.000  B
  H140     1.0000 0.17460  0.15190  0.68180  Biso   1.000  H
  O36      1.0000 0.71280  0.04719  0.45210  Biso   1.000  O
  B141     1.0000 0.75830  0.18660  0.37260  Biso   1.000  B
  H141     1.0000 0.76450  0.22180  0.38640  Biso   1.000  H
  B142     1.0000 0.76650  0.09280  0.35400  Biso   1.000  B
  H142     1.0000 0.77870  0.05870  0.34170  Biso   1.000  H
  B143     1.0000 0.78930  0.12940  0.39150  Biso   1.000  B
  H143     1.0000 0.82270  0.12740  0.41010  Biso   1.000  H
  B144     1.0000 0.79110  0.14750  0.33470  Biso   1.000  B
  H144     1.0000 0.82540  0.15190  0.31820  Biso   1.000  H
  O37      1.0000 0.78720  0.95210  0.54719  Biso   1.000  O
  B145     1.0000 0.74170  0.87260  0.68660  Biso   1.000  B
  H145     1.0000 0.73550  0.88640  0.72180  Biso   1.000  H
  B146     1.0000 0.73350  0.85400  0.59280  Biso   1.000  B
  H146     1.0000 0.72130  0.84170  0.55870  Biso   1.000  H
  B147     1.0000 0.71070  0.89150  0.62940  Biso   1.000  B
  H147     1.0000 0.67730  0.91010  0.62740  Biso   1.000  H
  B148     1.0000 0.70890  0.83470  0.64750  Biso   1.000  B
  H148     1.0000 0.67460  0.81820  0.65190  Biso   1.000  H
  O38      1.0000 0.21280  0.04790  0.54719  Biso   1.000  O
  B149     1.0000 0.25830  0.12740  0.68660  Biso   1.000  B
  H149     1.0000 0.26450  0.11360  0.72180  Biso   1.000  H
  B150     1.0000 0.26650  0.14600  0.59280  Biso   1.000  B
  H150     1.0000 0.27870  0.15830  0.55870  Biso   1.000  H
  B151     1.0000 0.28930  0.10850  0.62940  Biso   1.000  B
  H151     1.0000 0.32270  0.08990  0.62740  Biso   1.000  H
  B152     1.0000 0.29110  0.16530  0.64750  Biso   1.000  B
  H152     1.0000 0.32540  0.18180  0.65190  Biso   1.000  H
  O39      1.0000 0.78720  0.04790  0.45281  Biso   1.000  O
  B153     1.0000 0.74170  0.12740  0.31340  Biso   1.000  B
  H153     1.0000 0.73550  0.11360  0.27820  Biso   1.000  H
  B154     1.0000 0.73350  0.14600  0.40720  Biso   1.000  B
  H154     1.0000 0.72130  0.15830  0.44130  Biso   1.000  H
  B155     1.0000 0.71070  0.10850  0.37060  Biso   1.000  B
  H155     1.0000 0.67730  0.08990  0.37260  Biso   1.000  H
  B156     1.0000 0.70890  0.16530  0.35250  Biso   1.000  B
  H156     1.0000 0.67460  0.18180  0.34810  Biso   1.000  H
  O40      1.0000 0.21280  0.95210  0.45281  Biso   1.000  O
  B157     1.0000 0.25830  0.87260  0.31340  Biso   1.000  B
  H157     1.0000 0.26450  0.88640  0.27820  Biso   1.000  H
  B158     1.0000 0.26650  0.85400  0.40720  Biso   1.000  B
  H158     1.0000 0.27870  0.84170  0.44130  Biso   1.000  H
  B159     1.0000 0.28930  0.89150  0.37060  Biso   1.000  B
  H159     1.0000 0.32270  0.91010  0.37260  Biso   1.000  H
  B160     1.0000 0.29110  0.83470  0.35250  Biso   1.000  B
  H160     1.0000 0.32540  0.81820  0.34810  Biso   1.000  H
  O41      1.0000 0.95210  0.45281  0.21280  Biso   1.000  O
  B161     1.0000 0.87260  0.31340  0.25830  Biso   1.000  B
  H161     1.0000 0.88640  0.27820  0.26450  Biso   1.000  H
  B162     1.0000 0.85400  0.40720  0.26650  Biso   1.000  B
  H162     1.0000 0.84170  0.44130  0.27870  Biso   1.000  H
  B163     1.0000 0.89150  0.37060  0.28930  Biso   1.000  B
  H163     1.0000 0.91010  0.37260  0.32270  Biso   1.000  H
  B164     1.0000 0.83470  0.35250  0.29110  Biso   1.000  B
  H164     1.0000 0.81820  0.34810  0.32540  Biso   1.000  H
  O42      1.0000 0.04790  0.45281  0.78720  Biso   1.000  O
  B165     1.0000 0.12740  0.31340  0.74170  Biso   1.000  B
  H165     1.0000 0.11360  0.27820  0.73550  Biso   1.000  H
  B166     1.0000 0.14600  0.40720  0.73350  Biso   1.000  B
  H166     1.0000 0.15830  0.44130  0.72130  Biso   1.000  H
  B167     1.0000 0.10850  0.37060  0.71070  Biso   1.000  B
  H167     1.0000 0.08990  0.37260  0.67730  Biso   1.000  H
  B168     1.0000 0.16530  0.35250  0.70890  Biso   1.000  B
  H168     1.0000 0.18180  0.34810  0.67460  Biso   1.000  H
  O43      1.0000 0.04790  0.54719  0.21280  Biso   1.000  O
  B169     1.0000 0.12740  0.68660  0.25830  Biso   1.000  B
  H169     1.0000 0.11360  0.72180  0.26450  Biso   1.000  H
  B170     1.0000 0.14600  0.59280  0.26650  Biso   1.000  B
  H170     1.0000 0.15830  0.55870  0.27870  Biso   1.000  H
  B171     1.0000 0.10850  0.62940  0.28930  Biso   1.000  B
  H171     1.0000 0.08990  0.62740  0.32270  Biso   1.000  H
  B172     1.0000 0.16530  0.64750  0.29110  Biso   1.000  B
  H172     1.0000 0.18180  0.65190  0.32540  Biso   1.000  H
  O44      1.0000 0.95210  0.54719  0.78720  Biso   1.000  O
  B173     1.0000 0.87260  0.68660  0.74170  Biso   1.000  B
  H173     1.0000 0.88640  0.72180  0.73550  Biso   1.000  H
  B174     1.0000 0.85400  0.59280  0.73350  Biso   1.000  B
  H174     1.0000 0.84170  0.55870  0.72130  Biso   1.000  H
  B175     1.0000 0.89150  0.62940  0.71070  Biso   1.000  B
  H175     1.0000 0.91010  0.62740  0.67730  Biso   1.000  H
  B176     1.0000 0.83470  0.64750  0.70890  Biso   1.000  B
  H176     1.0000 0.81820  0.65190  0.67460  Biso   1.000  H
  O45      1.0000 0.45281  0.78720  0.04790  Biso   1.000  O
  B177     1.0000 0.31340  0.74170  0.12740  Biso   1.000  B
  H177     1.0000 0.27820  0.73550  0.11360  Biso   1.000  H
  B178     1.0000 0.40720  0.73350  0.14600  Biso   1.000  B
  H178     1.0000 0.44130  0.72130  0.15830  Biso   1.000  H
  B179     1.0000 0.37060  0.71070  0.10850  Biso   1.000  B
  H179     1.0000 0.37260  0.67730  0.08990  Biso   1.000  H
  B180     1.0000 0.35250  0.70890  0.16530  Biso   1.000  B
  H180     1.0000 0.34810  0.67460  0.18180  Biso   1.000  H
  O46      1.0000 0.45281  0.21280  0.95210  Biso   1.000  O
  B181     1.0000 0.31340  0.25830  0.87260  Biso   1.000  B
  H181     1.0000 0.27820  0.26450  0.88640  Biso   1.000  H
  B182     1.0000 0.40720  0.26650  0.85400  Biso   1.000  B
  H182     1.0000 0.44130  0.27870  0.84170  Biso   1.000  H
  B183     1.0000 0.37060  0.28930  0.89150  Biso   1.000  B
  H183     1.0000 0.37260  0.32270  0.91010  Biso   1.000  H
  B184     1.0000 0.35250  0.29110  0.83470  Biso   1.000  B
  H184     1.0000 0.34810  0.32540  0.81820  Biso   1.000  H
  O47      1.0000 0.54719  0.78720  0.95210  Biso   1.000  O
  B185     1.0000 0.68660  0.74170  0.87260  Biso   1.000  B
  H185     1.0000 0.72180  0.73550  0.88640  Biso   1.000  H
  B186     1.0000 0.59280  0.73350  0.85400  Biso   1.000  B
  H186     1.0000 0.55870  0.72130  0.84170  Biso   1.000  H
  B187     1.0000 0.62940  0.71070  0.89150  Biso   1.000  B
  H187     1.0000 0.62740  0.67730  0.91010  Biso   1.000  H
  B188     1.0000 0.64750  0.70890  0.83470  Biso   1.000  B
  H188     1.0000 0.65190  0.67460  0.81820  Biso   1.000  H
  O48      1.0000 0.54719  0.21280  0.04790  Biso   1.000  O
  B189     1.0000 0.68660  0.25830  0.12740  Biso   1.000  B
  H189     1.0000 0.72180  0.26450  0.11360  Biso   1.000  H
  B190     1.0000 0.59280  0.26650  0.14600  Biso   1.000  B
  H190     1.0000 0.55870  0.27870  0.15830  Biso   1.000  H
  B191     1.0000 0.62940  0.28930  0.10850  Biso   1.000  B
  H191     1.0000 0.62740  0.32270  0.08990  Biso   1.000  H
  B192     1.0000 0.64750  0.29110  0.16530  Biso   1.000  B
  H192     1.0000 0.65190  0.32540  0.18180  Biso   1.000  H
  Cu1      1.0000 0.50000  0.70375  0.00000  Biso   1.000  Cu
  Cu2      1.0000 0.50000  0.29625  0.00000  Biso   1.000  Cu
  Cu3      1.0000 0.00000  0.50000  0.70375  Biso   1.000  Cu
  Cu4      1.0000 0.00000  0.50000  0.29625  Biso   1.000  Cu
  Cu5      1.0000 0.70375  0.00000  0.50000  Biso   1.000  Cu
  Cu6      1.0000 0.29625  0.00000  0.50000  Biso   1.000  Cu
  Cu7      1.0000 0.20375  0.00000  0.50000  Biso   1.000  Cu
  Cu8      1.0000 0.79625  0.00000  0.50000  Biso   1.000  Cu
  Cu9      1.0000 0.00000  0.50000  0.79625  Biso   1.000  Cu
  Cu10     1.0000 0.00000  0.50000  0.20375  Biso   1.000  Cu
  Cu11     1.0000 0.50000  0.20375  0.00000  Biso   1.000  Cu
  Cu12     1.0000 0.50000  0.79625  0.00000  Biso   1.000  Cu
  C1       1.0000 0.59660  0.75000  0.09660  Biso   1.000  C
  C2       1.0000 0.67800  0.75000  0.17800  Biso   1.000  C
  C3       1.0000 0.56170  0.75000  0.06170  Biso   1.000  C
  C4       1.0000 0.71670  0.75000  0.21670  Biso   1.000  C
  C5       1.0000 0.40340  0.25000  0.09660  Biso   1.000  C
  C6       1.0000 0.32200  0.25000  0.17800  Biso   1.000  C
  C7       1.0000 0.43830  0.25000  0.06170  Biso   1.000  C
  C8       1.0000 0.28330  0.25000  0.21670  Biso   1.000  C
  C9       1.0000 0.40340  0.75000  0.90340  Biso   1.000  C
  C10      1.0000 0.32200  0.75000  0.82200  Biso   1.000  C
  C11      1.0000 0.43830  0.75000  0.93830  Biso   1.000  C
  C12      1.0000 0.28330  0.75000  0.78330  Biso   1.000  C
  C13      1.0000 0.59660  0.25000  0.90340  Biso   1.000  C
  C14      1.0000 0.67800  0.25000  0.82200  Biso   1.000  C
  C15      1.0000 0.56170  0.25000  0.93830  Biso   1.000  C
  C16      1.0000 0.71670  0.25000  0.78330  Biso   1.000  C
  C17      1.0000 0.09660  0.59660  0.75000  Biso   1.000  C
  C18      1.0000 0.17800  0.67800  0.75000  Biso   1.000  C
  C19      1.0000 0.06170  0.56170  0.75000  Biso   1.000  C
  C20      1.0000 0.21670  0.71670  0.75000  Biso   1.000  C
  C21      1.0000 0.09660  0.40340  0.25000  Biso   1.000  C
  C22      1.0000 0.17800  0.32200  0.25000  Biso   1.000  C
  C23      1.0000 0.06170  0.43830  0.25000  Biso   1.000  C
  C24      1.0000 0.21670  0.28330  0.25000  Biso   1.000  C
  C25      1.0000 0.90340  0.40340  0.75000  Biso   1.000  C
  C26      1.0000 0.82200  0.32200  0.75000  Biso   1.000  C
  C27      1.0000 0.93830  0.43830  0.75000  Biso   1.000  C
  C28      1.0000 0.78330  0.28330  0.75000  Biso   1.000  C
  C29      1.0000 0.90340  0.59660  0.25000  Biso   1.000  C
  C30      1.0000 0.82200  0.67800  0.25000  Biso   1.000  C
  C31      1.0000 0.93830  0.56170  0.25000  Biso   1.000  C
  C32      1.0000 0.78330  0.71670  0.25000  Biso   1.000  C
  C33      1.0000 0.75000  0.09660  0.59660  Biso   1.000  C
  C34      1.0000 0.75000  0.17800  0.67800  Biso   1.000  C
  C35      1.0000 0.75000  0.06170  0.56170  Biso   1.000  C
  C36      1.0000 0.75000  0.21670  0.71670  Biso   1.000  C
  C37      1.0000 0.25000  0.09660  0.40340  Biso   1.000  C
  C38      1.0000 0.25000  0.17800  0.32200  Biso   1.000  C
  C39      1.0000 0.25000  0.06170  0.43830  Biso   1.000  C
  C40      1.0000 0.25000  0.21670  0.28330  Biso   1.000  C
  C41      1.0000 0.75000  0.90340  0.40340  Biso   1.000  C
  C42      1.0000 0.75000  0.82200  0.32200  Biso   1.000  C
  C43      1.0000 0.75000  0.93830  0.43830  Biso   1.000  C
  C44      1.0000 0.75000  0.78330  0.28330  Biso   1.000  C
  C45      1.0000 0.25000  0.90340  0.59660  Biso   1.000  C
  C46      1.0000 0.25000  0.82200  0.67800  Biso   1.000  C
  C47      1.0000 0.25000  0.93830  0.56170  Biso   1.000  C
  C48      1.0000 0.25000  0.78330  0.71670  Biso   1.000  C
  C49      1.0000 0.40340  0.25000  0.90340  Biso   1.000  C
  C50      1.0000 0.32200  0.25000  0.82200  Biso   1.000  C
  C51      1.0000 0.43830  0.25000  0.93830  Biso   1.000  C
  C52      1.0000 0.28330  0.25000  0.78330  Biso   1.000  C
  C53      1.0000 0.59660  0.75000  0.90340  Biso   1.000  C
  C54      1.0000 0.67800  0.75000  0.82200  Biso   1.000  C
  C55      1.0000 0.56170  0.75000  0.93830  Biso   1.000  C
  C56      1.0000 0.71670  0.75000  0.78330  Biso   1.000  C
  C57      1.0000 0.59660  0.25000  0.09660  Biso   1.000  C
  C58      1.0000 0.67800  0.25000  0.17800  Biso   1.000  C
  C59      1.0000 0.56170  0.25000  0.06170  Biso   1.000  C
  C60      1.0000 0.71670  0.25000  0.21670  Biso   1.000  C
  C61      1.0000 0.40340  0.75000  0.09660  Biso   1.000  C
  C62      1.0000 0.32200  0.75000  0.17800  Biso   1.000  C
  C63      1.0000 0.43830  0.75000  0.06170  Biso   1.000  C
  C64      1.0000 0.28330  0.75000  0.21670  Biso   1.000  C
  C65      1.0000 0.90340  0.40340  0.25000  Biso   1.000  C
  C66      1.0000 0.82200  0.32200  0.25000  Biso   1.000  C
  C67      1.0000 0.93830  0.43830  0.25000  Biso   1.000  C
  C68      1.0000 0.78330  0.28330  0.25000  Biso   1.000  C
  C69      1.0000 0.90340  0.59660  0.75000  Biso   1.000  C
  C70      1.0000 0.82200  0.67800  0.75000  Biso   1.000  C
  C71      1.0000 0.93830  0.56170  0.75000  Biso   1.000  C
  C72      1.0000 0.78330  0.71670  0.75000  Biso   1.000  C
  C73      1.0000 0.09660  0.59660  0.25000  Biso   1.000  C
  C74      1.0000 0.17800  0.67800  0.25000  Biso   1.000  C
  C75      1.0000 0.06170  0.56170  0.25000  Biso   1.000  C
  C76      1.0000 0.21670  0.71670  0.25000  Biso   1.000  C
  C77      1.0000 0.09660  0.40340  0.75000  Biso   1.000  C
  C78      1.0000 0.17800  0.32200  0.75000  Biso   1.000  C
  C79      1.0000 0.06170  0.43830  0.75000  Biso   1.000  C
  C80      1.0000 0.21670  0.28330  0.75000  Biso   1.000  C
  C81      1.0000 0.25000  0.90340  0.40340  Biso   1.000  C
  C82      1.0000 0.25000  0.82200  0.32200  Biso   1.000  C
  C83      1.0000 0.25000  0.93830  0.43830  Biso   1.000  C
  C84      1.0000 0.25000  0.78330  0.28330  Biso   1.000  C
  C85      1.0000 0.75000  0.90340  0.59660  Biso   1.000  C
  C86      1.0000 0.75000  0.82200  0.67800  Biso   1.000  C
  C87      1.0000 0.75000  0.93830  0.56170  Biso   1.000  C
  C88      1.0000 0.75000  0.78330  0.71670  Biso   1.000  C
  C89      1.0000 0.25000  0.09660  0.59660  Biso   1.000  C
  C90      1.0000 0.25000  0.17800  0.67800  Biso   1.000  C
  C91      1.0000 0.25000  0.06170  0.56170  Biso   1.000  C
  C92      1.0000 0.25000  0.21670  0.71670  Biso   1.000  C
  C93      1.0000 0.75000  0.09660  0.40340  Biso   1.000  C
  C94      1.0000 0.75000  0.17800  0.32200  Biso   1.000  C
  C95      1.0000 0.75000  0.06170  0.43830  Biso   1.000  C
  C96      1.0000 0.75000  0.21670  0.28330  Biso   1.000  C
  C97      1.0000 0.71620  0.78380  0.25000  Biso   1.000  C
  H193     1.0000 0.69320  0.80680  0.25000  Biso   1.000  H
  C98      1.0000 0.28380  0.21620  0.25000  Biso   1.000  C
  H194     1.0000 0.30680  0.19320  0.25000  Biso   1.000  H
  C99      1.0000 0.28380  0.78380  0.75000  Biso   1.000  C
  H195     1.0000 0.30680  0.80680  0.75000  Biso   1.000  H
  C100     1.0000 0.71620  0.21620  0.75000  Biso   1.000  C
  H196     1.0000 0.69320  0.19320  0.75000  Biso   1.000  H
  C101     1.0000 0.25000  0.71620  0.78380  Biso   1.000  C
  H197     1.0000 0.25000  0.69320  0.80680  Biso   1.000  H
  C102     1.0000 0.25000  0.28380  0.21620  Biso   1.000  C
  H198     1.0000 0.25000  0.30680  0.19320  Biso   1.000  H
  C103     1.0000 0.75000  0.28380  0.78380  Biso   1.000  C
  H199     1.0000 0.75000  0.30680  0.80680  Biso   1.000  H
  C104     1.0000 0.75000  0.71620  0.21620  Biso   1.000  C
  H200     1.0000 0.75000  0.69320  0.19320  Biso   1.000  H
  C105     1.0000 0.78380  0.25000  0.71620  Biso   1.000  C
  H201     1.0000 0.80680  0.25000  0.69320  Biso   1.000  H
  C106     1.0000 0.21620  0.25000  0.28380  Biso   1.000  C
  H202     1.0000 0.19320  0.25000  0.30680  Biso   1.000  H
  C107     1.0000 0.78380  0.75000  0.28380  Biso   1.000  C
  H203     1.0000 0.80680  0.75000  0.30680  Biso   1.000  H
  C108     1.0000 0.21620  0.75000  0.71620  Biso   1.000  C
  H204     1.0000 0.19320  0.75000  0.69320  Biso   1.000  H
  C109     1.0000 0.28380  0.21620  0.75000  Biso   1.000  C
  H205     1.0000 0.30680  0.19320  0.75000  Biso   1.000  H
  C110     1.0000 0.71620  0.78380  0.75000  Biso   1.000  C
  H206     1.0000 0.69320  0.80680  0.75000  Biso   1.000  H
  C111     1.0000 0.71620  0.21620  0.25000  Biso   1.000  C
  H207     1.0000 0.69320  0.19320  0.25000  Biso   1.000  H
  C112     1.0000 0.28380  0.78380  0.25000  Biso   1.000  C
  H208     1.0000 0.30680  0.80680  0.25000  Biso   1.000  H
  C113     1.0000 0.75000  0.28380  0.21620  Biso   1.000  C
  H209     1.0000 0.75000  0.30680  0.19320  Biso   1.000  H
  C114     1.0000 0.75000  0.71620  0.78380  Biso   1.000  C
  H210     1.0000 0.75000  0.69320  0.80680  Biso   1.000  H
  C115     1.0000 0.25000  0.71620  0.21620  Biso   1.000  C
  H211     1.0000 0.25000  0.69320  0.19320  Biso   1.000  H
  C116     1.0000 0.25000  0.28380  0.78380  Biso   1.000  C
  H212     1.0000 0.25000  0.30680  0.80680  Biso   1.000  H
  C117     1.0000 0.21620  0.75000  0.28380  Biso   1.000  C
  H213     1.0000 0.19320  0.75000  0.30680  Biso   1.000  H
  C118     1.0000 0.78380  0.75000  0.71620  Biso   1.000  C
  H214     1.0000 0.80680  0.75000  0.69320  Biso   1.000  H
  C119     1.0000 0.21620  0.25000  0.71620  Biso   1.000  C
  H215     1.0000 0.19320  0.25000  0.69320  Biso   1.000  H
  C120     1.0000 0.78380  0.25000  0.28380  Biso   1.000  C
  H216     1.0000 0.80680  0.25000  0.30680  Biso   1.000  H
