data_image0
_cell_length_a       22.741
_cell_length_b       22.741
_cell_length_c       30.38
_cell_angle_alpha    90
_cell_angle_beta     90
_cell_angle_gamma    120

_symmetry_space_group_name_H-M    "P 1"
_symmetry_int_tables_number       1

loop_
  _symmetry_equiv_pos_as_xyz
  'x, y, z'

loop_
  _atom_site_label
  _atom_site_occupancy
  _atom_site_fract_x
  _atom_site_fract_y
  _atom_site_fract_z
  _atom_site_thermal_displace_type
  _atom_site_B_iso_or_equiv
  _atom_site_type_symbol
  Cu1      1.0000 0.82630  0.29400  0.11940  Biso   1.000  Cu
  Cu2      1.0000 0.81998  0.43126  0.13015  Biso   1.000  Cu
  Cu3      1.0000 0.67635  0.27839  0.13264  Biso   1.000  Cu
  Cu4      1.0000 0.10599  0.51049  0.17683  Biso   1.000  Cu
  N1       1.0000 0.73080  0.42540  0.12930  Biso   1.000  N
  N2       1.0000 0.67330  0.36490  0.13180  Biso   1.000  N
  N3       1.0000 0.64440  0.44330  0.13770  Biso   1.000  N
  N4       1.0000 0.68530  0.19540  0.13420  Biso   1.000  N
  N5       1.0000 0.74920  0.20330  0.13270  Biso   1.000  N
  N6       1.0000 0.67820  0.09750  0.14830  Biso   1.000  N
  N7       1.0000 0.91080  0.37720  0.13630  Biso   1.000  N
  N8       1.0000 0.90840  0.43580  0.13660  Biso   1.000  N
  N9       1.0000 0.01100  0.46170  0.15690  Biso   1.000  N
  O1       1.0000 0.77550  0.33350  0.14980  Biso   1.000  O
  H1       1.0000 0.77950  0.33210  0.17830  Biso   1.000  H
  O2       1.0000 0.85880  0.51360  0.09500  Biso   1.000  O
  O3       1.0000 0.85730  0.45800  0.03620  Biso   1.000  O
  O4       1.0000 0.97670  0.68270  0.89020  Biso   1.000  O
  O5       1.0000 0.97130  0.58560  0.89980  Biso   1.000  O
  O6       1.0000 0.59540  0.23280  0.09590  Biso   1.000  O
  O7       1.0000 0.66800  0.26050  0.04110  Biso   1.000  O
  O8       1.0000 0.47670  0.13080  0.87590  Biso   1.000  O
  O9       1.0000 0.57810  0.14900  0.89600  Biso   1.000  O
  C1       1.0000 0.75990  0.54810  0.13230  Biso   1.000  C
  H2       1.0000 0.80160  0.55940  0.14700  Biso   1.000  H
  H3       1.0000 0.73860  0.57000  0.14690  Biso   1.000  H
  H4       1.0000 0.76920  0.56300  0.10230  Biso   1.000  H
  C2       1.0000 0.71340  0.47260  0.13350  Biso   1.000  C
  C3       1.0000 0.62160  0.37720  0.13560  Biso   1.000  C
  C4       1.0000 0.54650  0.32170  0.14070  Biso   1.000  C
  H5       1.0000 0.52310  0.33890  0.15800  Biso   1.000  H
  H6       1.0000 0.54390  0.28290  0.15520  Biso   1.000  H
  H7       1.0000 0.52580  0.30860  0.11220  Biso   1.000  H
  C5       1.0000 0.56880  0.10200  0.15370  Biso   1.000  C
  H8       1.0000 0.55880  0.13670  0.16220  Biso   1.000  H
  H9       1.0000 0.55530  0.06880  0.17670  Biso   1.000  H
  H10      1.0000 0.54430  0.08040  0.12720  Biso   1.000  H
  C6       1.0000 0.64300  0.13290  0.14560  Biso   1.000  C
  C7       1.0000 0.74190  0.14160  0.14110  Biso   1.000  C
  C8       1.0000 0.79780  0.12670  0.14210  Biso   1.000  C
  H11      1.0000 0.78770  0.09140  0.16320  Biso   1.000  H
  H12      1.0000 0.83910  0.16690  0.15030  Biso   1.000  H
  H13      1.0000 0.80300  0.11200  0.11350  Biso   1.000  H
  C9       1.0000 0.99670  0.34330  0.15560  Biso   1.000  C
  H14      1.0000 0.95830  0.29810  0.15670  Biso   1.000  H
  H15      1.0000 0.02160  0.35310  0.18270  Biso   1.000  H
  H16      1.0000 0.02560  0.34670  0.13150  Biso   1.000  H
  C10      1.0000 0.97230  0.39360  0.14910  Biso   1.000  C
  C11      1.0000 0.96920  0.48480  0.14790  Biso   1.000  C
  C12      1.0000 0.99020  0.55860  0.15160  Biso   1.000  C
  H17      1.0000 0.95190  0.56280  0.16040  Biso   1.000  H
  H18      1.0000 0.00660  0.58030  0.12360  Biso   1.000  H
  H19      1.0000 0.02550  0.57990  0.17320  Biso   1.000  H
  C13      1.0000 0.87090  0.50990  0.05490  Biso   1.000  C
  C14      1.0000 0.90190  0.57540  0.02980  Biso   1.000  C
  C15      1.0000 0.91610  0.63520  0.05030  Biso   1.000  C
  H20      1.0000 0.90790  0.63540  0.08030  Biso   1.000  H
  C16      1.0000 0.94300  0.69560  0.02610  Biso   1.000  C
  H21      1.0000 0.94910  0.73520  0.03930  Biso   1.000  H
  C17      1.0000 0.96040  0.69590  0.98160  Biso   1.000  C
  H22      1.0000 0.98000  0.73580  0.96530  Biso   1.000  H
  C18      1.0000 0.94770  0.63530  0.96270  Biso   1.000  C
  C19      1.0000 0.91980  0.57720  0.98520  Biso   1.000  C
  H23      1.0000 0.91190  0.53750  0.97140  Biso   1.000  H
  C20      1.0000 0.96440  0.62800  0.91270  Biso   1.000  C
  C21      1.0000 0.60900  0.23500  0.05480  Biso   1.000  C
  C22      1.0000 0.54920  0.20410  0.02270  Biso   1.000  C
  C23      1.0000 0.48680  0.19070  0.03530  Biso   1.000  C
  H24      1.0000 0.48010  0.20100  0.06390  Biso   1.000  H
  C24      1.0000 0.43250  0.16160  0.00600  Biso   1.000  C
  H25      1.0000 0.38880  0.15000  0.01480  Biso   1.000  H
  C25      1.0000 0.44650  0.15050  0.96240  Biso   1.000  C
  H26      1.0000 0.41190  0.13390  0.94160  Biso   1.000  H
  C26      1.0000 0.51020  0.16360  0.95000  Biso   1.000  C
  C27      1.0000 0.56190  0.19300  0.98000  Biso   1.000  C
  H27      1.0000 0.60600  0.20550  0.97150  Biso   1.000  H
  C28      1.0000 0.52420  0.14710  0.90440  Biso   1.000  C
  C29      1.0000 0.05320  0.49890  0.25790  Biso   1.000  C
  C30      1.0000 0.02580  0.51920  0.29730  Biso   1.000  C
  C31      1.0000 0.02340  0.57720  0.29560  Biso   1.000  C
  H28      1.0000 0.03690  0.60330  0.27010  Biso   1.000  H
  O10      1.0000 0.08000  0.54600  0.22800  Biso   1.000  O
  O11      1.0000 0.04720  0.44230  0.25540  Biso   1.000  O
  O12      1.0000 0.87570  0.25730  0.08690  Biso   1.000  O
  Cu5      1.0000 0.82870  0.28950  0.13600  Biso   1.000  Cu
  Cu6      1.0000 0.70600  0.53230  0.78607  Biso   1.000  Cu
  Cu7      1.0000 0.56874  0.38872  0.79682  Biso   1.000  Cu
  Cu8      1.0000 0.72161  0.39796  0.79931  Biso   1.000  Cu
  Cu9      1.0000 0.48951  0.59550  0.84350  Biso   1.000  Cu
  N10      1.0000 0.57460  0.30540  0.79597  Biso   1.000  N
  N11      1.0000 0.63510  0.30840  0.79847  Biso   1.000  N
  N12      1.0000 0.55670  0.20110  0.80437  Biso   1.000  N
  N13      1.0000 0.80460  0.48990  0.80087  Biso   1.000  N
  N14      1.0000 0.79670  0.54590  0.79937  Biso   1.000  N
  N15      1.0000 0.90250  0.58070  0.81497  Biso   1.000  N
  N16      1.0000 0.62280  0.53360  0.80297  Biso   1.000  N
  N17      1.0000 0.56420  0.47260  0.80327  Biso   1.000  N
  N18      1.0000 0.53830  0.54930  0.82357  Biso   1.000  N
  O13      1.0000 0.66650  0.44200  0.81647  Biso   1.000  O
  H29      1.0000 0.66790  0.44740  0.84497  Biso   1.000  H
  O14      1.0000 0.48640  0.34520  0.76167  Biso   1.000  O
  O15      1.0000 0.54200  0.39930  0.70287  Biso   1.000  O
  O16      1.0000 0.31730  0.29400  0.55687  Biso   1.000  O
  O17      1.0000 0.41440  0.38570  0.56647  Biso   1.000  O
  O18      1.0000 0.76720  0.36260  0.76257  Biso   1.000  O
  O19      1.0000 0.73950  0.40750  0.70777  Biso   1.000  O
  O20      1.0000 0.86920  0.34590  0.54257  Biso   1.000  O
  O21      1.0000 0.85100  0.42910  0.56267  Biso   1.000  O
  C32      1.0000 0.45190  0.21180  0.79897  Biso   1.000  C
  H30      1.0000 0.44060  0.24220  0.81367  Biso   1.000  H
  H31      1.0000 0.43000  0.16860  0.81357  Biso   1.000  H
  H32      1.0000 0.43700  0.20620  0.76897  Biso   1.000  H
  C33      1.0000 0.52740  0.24080  0.80017  Biso   1.000  C
  C34      1.0000 0.62280  0.24440  0.80227  Biso   1.000  C
  C35      1.0000 0.67830  0.22480  0.80737  Biso   1.000  C
  H33      1.0000 0.66110  0.18420  0.82467  Biso   1.000  H
  H34      1.0000 0.71710  0.26100  0.82187  Biso   1.000  H
  H35      1.0000 0.69140  0.21720  0.77887  Biso   1.000  H
  C36      1.0000 0.89800  0.46680  0.82037  Biso   1.000  C
  H36      1.0000 0.86330  0.42210  0.82887  Biso   1.000  H
  H37      1.0000 0.93120  0.48650  0.84337  Biso   1.000  H
  H38      1.0000 0.91960  0.46390  0.79387  Biso   1.000  H
  C37      1.0000 0.86710  0.51010  0.81227  Biso   1.000  C
  C38      1.0000 0.85840  0.60030  0.80777  Biso   1.000  C
  C39      1.0000 0.87330  0.67110  0.80877  Biso   1.000  C
  H39      1.0000 0.90860  0.69630  0.82987  Biso   1.000  H
  H40      1.0000 0.83310  0.67220  0.81697  Biso   1.000  H
  H41      1.0000 0.88800  0.69100  0.78017  Biso   1.000  H
  C40      1.0000 0.65670  0.65340  0.82227  Biso   1.000  C
  H42      1.0000 0.70190  0.66020  0.82337  Biso   1.000  H
  H43      1.0000 0.64690  0.66850  0.84937  Biso   1.000  H
  H44      1.0000 0.65330  0.67890  0.79817  Biso   1.000  H
  C41      1.0000 0.60640  0.57870  0.81577  Biso   1.000  C
  C42      1.0000 0.51520  0.48440  0.81457  Biso   1.000  C
  C43      1.0000 0.44140  0.43160  0.81827  Biso   1.000  C
  H45      1.0000 0.43720  0.38910  0.82707  Biso   1.000  H
  H46      1.0000 0.41970  0.42630  0.79027  Biso   1.000  H
  H47      1.0000 0.42010  0.44560  0.83987  Biso   1.000  H
  C44      1.0000 0.49010  0.36100  0.72157  Biso   1.000  C
  C45      1.0000 0.42460  0.32650  0.69647  Biso   1.000  C
  C46      1.0000 0.36480  0.28090  0.71697  Biso   1.000  C
  H48      1.0000 0.36460  0.27250  0.74697  Biso   1.000  H
  C47      1.0000 0.30440  0.24740  0.69277  Biso   1.000  C
  H49      1.0000 0.26480  0.21390  0.70597  Biso   1.000  H
  C48      1.0000 0.30410  0.26450  0.64827  Biso   1.000  C
  H50      1.0000 0.26420  0.24420  0.63197  Biso   1.000  H
  C49      1.0000 0.36470  0.31240  0.62937  Biso   1.000  C
  C50      1.0000 0.42280  0.34260  0.65187  Biso   1.000  C
  H51      1.0000 0.46250  0.37440  0.63807  Biso   1.000  H
  C51      1.0000 0.37200  0.33640  0.57937  Biso   1.000  C
  C52      1.0000 0.76500  0.37400  0.72147  Biso   1.000  C
  C53      1.0000 0.79590  0.34510  0.68937  Biso   1.000  C
  C54      1.0000 0.80930  0.29610  0.70197  Biso   1.000  C
  H52      1.0000 0.79900  0.27910  0.73057  Biso   1.000  H
  C55      1.0000 0.83840  0.27090  0.67267  Biso   1.000  C
  H53      1.0000 0.85000  0.23880  0.68147  Biso   1.000  H
  C56      1.0000 0.84950  0.29600  0.62907  Biso   1.000  C
  H54      1.0000 0.86610  0.27800  0.60827  Biso   1.000  H
  C57      1.0000 0.83640  0.34660  0.61667  Biso   1.000  C
  C58      1.0000 0.80700  0.36890  0.64667  Biso   1.000  C
  H55      1.0000 0.79450  0.40050  0.63817  Biso   1.000  H
  C59      1.0000 0.85290  0.37710  0.57107  Biso   1.000  C
  C60      1.0000 0.50110  0.55430  0.92457  Biso   1.000  C
  C61      1.0000 0.48080  0.50660  0.96397  Biso   1.000  C
  C62      1.0000 0.42280  0.44620  0.96227  Biso   1.000  C
  H56      1.0000 0.39670  0.43360  0.93677  Biso   1.000  H
  O22      1.0000 0.45400  0.53400  0.89467  Biso   1.000  O
  O23      1.0000 0.55770  0.60490  0.92207  Biso   1.000  O
  O24      1.0000 0.74270  0.61840  0.75357  Biso   1.000  O
  Cu10     1.0000 0.71050  0.53920  0.80267  Biso   1.000  Cu
  Cu11     1.0000 0.46770  0.17370  0.45273  Biso   1.000  Cu
  Cu12     1.0000 0.61128  0.18002  0.46348  Biso   1.000  Cu
  Cu13     1.0000 0.60204  0.32365  0.46597  Biso   1.000  Cu
  Cu14     1.0000 0.40450  0.89401  0.51016  Biso   1.000  Cu
  N19      1.0000 0.69460  0.26920  0.46263  Biso   1.000  N
  N20      1.0000 0.69160  0.32670  0.46513  Biso   1.000  N
  N21      1.0000 0.79890  0.35560  0.47103  Biso   1.000  N
  N22      1.0000 0.51010  0.31470  0.46753  Biso   1.000  N
  N23      1.0000 0.45410  0.25080  0.46603  Biso   1.000  N
  N24      1.0000 0.41930  0.32180  0.48163  Biso   1.000  N
  N25      1.0000 0.46640  0.08920  0.46963  Biso   1.000  N
  N26      1.0000 0.52740  0.09160  0.46993  Biso   1.000  N
  N27      1.0000 0.45070  0.98900  0.49023  Biso   1.000  N
  O25      1.0000 0.55800  0.22450  0.48313  Biso   1.000  O
  H57      1.0000 0.55260  0.22050  0.51163  Biso   1.000  H
  O26      1.0000 0.65480  0.14120  0.42833  Biso   1.000  O
  O27      1.0000 0.60070  0.14270  0.36953  Biso   1.000  O
  O28      1.0000 0.70600  0.02330  0.22353  Biso   1.000  O
  O29      1.0000 0.61430  0.02870  0.23313  Biso   1.000  O
  O30      1.0000 0.63740  0.40460  0.42923  Biso   1.000  O
  O31      1.0000 0.59250  0.33200  0.37443  Biso   1.000  O
  O32      1.0000 0.65410  0.52330  0.20923  Biso   1.000  O
  O33      1.0000 0.57090  0.42190  0.22933  Biso   1.000  O
  C63      1.0000 0.78820  0.24010  0.46563  Biso   1.000  C
  H58      1.0000 0.75780  0.19840  0.48033  Biso   1.000  H
  H59      1.0000 0.83140  0.26140  0.48023  Biso   1.000  H
  H60      1.0000 0.79380  0.23080  0.43563  Biso   1.000  H
  C64      1.0000 0.75920  0.28660  0.46683  Biso   1.000  C
  C65      1.0000 0.75560  0.37840  0.46893  Biso   1.000  C
  C66      1.0000 0.77520  0.45350  0.47403  Biso   1.000  C
  H61      1.0000 0.81580  0.47690  0.49133  Biso   1.000  H
  H62      1.0000 0.73900  0.45610  0.48853  Biso   1.000  H
  H63      1.0000 0.78280  0.47420  0.44553  Biso   1.000  H
  C67      1.0000 0.53320  0.43120  0.48703  Biso   1.000  C
  H64      1.0000 0.57790  0.44120  0.49553  Biso   1.000  H
  H65      1.0000 0.51350  0.44470  0.51003  Biso   1.000  H
  H66      1.0000 0.53610  0.45570  0.46053  Biso   1.000  H
  C68      1.0000 0.48990  0.35700  0.47893  Biso   1.000  C
  C69      1.0000 0.39970  0.25810  0.47443  Biso   1.000  C
  C70      1.0000 0.32890  0.20220  0.47543  Biso   1.000  C
  H67      1.0000 0.30370  0.21230  0.49653  Biso   1.000  H
  H68      1.0000 0.32780  0.16090  0.48363  Biso   1.000  H
  H69      1.0000 0.30900  0.19700  0.44683  Biso   1.000  H
  C71      1.0000 0.34660  0.00330  0.48893  Biso   1.000  C
  H70      1.0000 0.33980  0.04170  0.49003  Biso   1.000  H
  H71      1.0000 0.33150  0.97840  0.51603  Biso   1.000  H
  H72      1.0000 0.32110  0.97440  0.46483  Biso   1.000  H
  C72      1.0000 0.42130  0.02770  0.48243  Biso   1.000  C
  C73      1.0000 0.51560  0.03080  0.48123  Biso   1.000  C
  C74      1.0000 0.56840  0.00980  0.48493  Biso   1.000  C
  H73      1.0000 0.61090  0.04810  0.49373  Biso   1.000  H
  H74      1.0000 0.57370  0.99340  0.45693  Biso   1.000  H
  H75      1.0000 0.55440  0.97450  0.50653  Biso   1.000  H
  C75      1.0000 0.63900  0.12910  0.38823  Biso   1.000  C
  C76      1.0000 0.67350  0.09810  0.36313  Biso   1.000  C
  C77      1.0000 0.71910  0.08390  0.38363  Biso   1.000  C
  H76      1.0000 0.72750  0.09210  0.41363  Biso   1.000  H
  C78      1.0000 0.75260  0.05700  0.35943  Biso   1.000  C
  H77      1.0000 0.78610  0.05090  0.37263  Biso   1.000  H
  C79      1.0000 0.73550  0.03960  0.31493  Biso   1.000  C
  H78      1.0000 0.75580  0.02000  0.29863  Biso   1.000  H
  C80      1.0000 0.68760  0.05230  0.29603  Biso   1.000  C
  C81      1.0000 0.65740  0.08020  0.31853  Biso   1.000  C
  H79      1.0000 0.62560  0.08810  0.30473  Biso   1.000  H
  C82      1.0000 0.66360  0.03560  0.24603  Biso   1.000  C
  C83      1.0000 0.62600  0.39100  0.38813  Biso   1.000  C
  C84      1.0000 0.65490  0.45080  0.35603  Biso   1.000  C
  C85      1.0000 0.70390  0.51320  0.36863  Biso   1.000  C
  H80      1.0000 0.72090  0.51990  0.39723  Biso   1.000  H
  C86      1.0000 0.72910  0.56750  0.33933  Biso   1.000  C
  H81      1.0000 0.76120  0.61120  0.34813  Biso   1.000  H
  C87      1.0000 0.70400  0.55350  0.29573  Biso   1.000  C
  H82      1.0000 0.72200  0.58810  0.27493  Biso   1.000  H
  C88      1.0000 0.65340  0.48980  0.28333  Biso   1.000  C
  C89      1.0000 0.63110  0.43810  0.31333  Biso   1.000  C
  H83      1.0000 0.59950  0.39400  0.30483  Biso   1.000  H
  C90      1.0000 0.62290  0.47580  0.23773  Biso   1.000  C
  C91      1.0000 0.44570  0.94680  0.59123  Biso   1.000  C
  C92      1.0000 0.49340  0.97420  0.63063  Biso   1.000  C
  C93      1.0000 0.55380  0.97660  0.62893  Biso   1.000  C
  H84      1.0000 0.56640  0.96310  0.60343  Biso   1.000  H
  O34      1.0000 0.46600  0.92000  0.56133  Biso   1.000  O
  O35      1.0000 0.39510  0.95280  0.58873  Biso   1.000  O
  O36      1.0000 0.38160  0.12430  0.42023  Biso   1.000  O
  Cu15     1.0000 0.46080  0.17130  0.46933  Biso   1.000  Cu
  Cu16     1.0000 0.29400  0.82630  0.88060  Biso   1.000  Cu
  Cu17     1.0000 0.43126  0.81998  0.86985  Biso   1.000  Cu
  Cu18     1.0000 0.27839  0.67635  0.86736  Biso   1.000  Cu
  Cu19     1.0000 0.51049  0.10599  0.82317  Biso   1.000  Cu
  N28      1.0000 0.42540  0.73080  0.87070  Biso   1.000  N
  N29      1.0000 0.36490  0.67330  0.86820  Biso   1.000  N
  N30      1.0000 0.44330  0.64440  0.86230  Biso   1.000  N
  N31      1.0000 0.19540  0.68530  0.86580  Biso   1.000  N
  N32      1.0000 0.20330  0.74920  0.86730  Biso   1.000  N
  N33      1.0000 0.09750  0.67820  0.85170  Biso   1.000  N
  N34      1.0000 0.37720  0.91080  0.86370  Biso   1.000  N
  N35      1.0000 0.43580  0.90840  0.86340  Biso   1.000  N
  N36      1.0000 0.46170  0.01100  0.84310  Biso   1.000  N
  O37      1.0000 0.33350  0.77550  0.85020  Biso   1.000  O
  H85      1.0000 0.33210  0.77950  0.82170  Biso   1.000  H
  O38      1.0000 0.51360  0.85880  0.90500  Biso   1.000  O
  O39      1.0000 0.45800  0.85730  0.96380  Biso   1.000  O
  O40      1.0000 0.68270  0.97670  0.10980  Biso   1.000  O
  O41      1.0000 0.58560  0.97130  0.10020  Biso   1.000  O
  O42      1.0000 0.23280  0.59540  0.90410  Biso   1.000  O
  O43      1.0000 0.26050  0.66800  0.95890  Biso   1.000  O
  O44      1.0000 0.13080  0.47670  0.12410  Biso   1.000  O
  O45      1.0000 0.14900  0.57810  0.10400  Biso   1.000  O
  C94      1.0000 0.54810  0.75990  0.86770  Biso   1.000  C
  H86      1.0000 0.55940  0.80160  0.85300  Biso   1.000  H
  H87      1.0000 0.57000  0.73860  0.85310  Biso   1.000  H
  H88      1.0000 0.56300  0.76920  0.89770  Biso   1.000  H
  C95      1.0000 0.47260  0.71340  0.86650  Biso   1.000  C
  C96      1.0000 0.37720  0.62160  0.86440  Biso   1.000  C
  C97      1.0000 0.32170  0.54650  0.85930  Biso   1.000  C
  H89      1.0000 0.33890  0.52310  0.84200  Biso   1.000  H
  H90      1.0000 0.28290  0.54390  0.84480  Biso   1.000  H
  H91      1.0000 0.30860  0.52580  0.88780  Biso   1.000  H
  C98      1.0000 0.10200  0.56880  0.84630  Biso   1.000  C
  H92      1.0000 0.13670  0.55880  0.83780  Biso   1.000  H
  H93      1.0000 0.06880  0.55530  0.82330  Biso   1.000  H
  H94      1.0000 0.08040  0.54430  0.87280  Biso   1.000  H
  C99      1.0000 0.13290  0.64300  0.85440  Biso   1.000  C
  C100     1.0000 0.14160  0.74190  0.85890  Biso   1.000  C
  C101     1.0000 0.12670  0.79780  0.85790  Biso   1.000  C
  H95      1.0000 0.09140  0.78770  0.83680  Biso   1.000  H
  H96      1.0000 0.16690  0.83910  0.84970  Biso   1.000  H
  H97      1.0000 0.11200  0.80300  0.88650  Biso   1.000  H
  C102     1.0000 0.34330  0.99670  0.84440  Biso   1.000  C
  H98      1.0000 0.29810  0.95830  0.84330  Biso   1.000  H
  H99      1.0000 0.35310  0.02160  0.81730  Biso   1.000  H
  H100     1.0000 0.34670  0.02560  0.86850  Biso   1.000  H
  C103     1.0000 0.39360  0.97230  0.85090  Biso   1.000  C
  C104     1.0000 0.48480  0.96920  0.85210  Biso   1.000  C
  C105     1.0000 0.55860  0.99020  0.84840  Biso   1.000  C
  H101     1.0000 0.56280  0.95190  0.83960  Biso   1.000  H
  H102     1.0000 0.58030  0.00660  0.87640  Biso   1.000  H
  H103     1.0000 0.57990  0.02550  0.82680  Biso   1.000  H
  C106     1.0000 0.50990  0.87090  0.94510  Biso   1.000  C
  C107     1.0000 0.57540  0.90190  0.97020  Biso   1.000  C
  C108     1.0000 0.63520  0.91610  0.94970  Biso   1.000  C
  H104     1.0000 0.63540  0.90790  0.91970  Biso   1.000  H
  C109     1.0000 0.69560  0.94300  0.97390  Biso   1.000  C
  H105     1.0000 0.73520  0.94910  0.96070  Biso   1.000  H
  C110     1.0000 0.69590  0.96040  0.01840  Biso   1.000  C
  H106     1.0000 0.73580  0.98000  0.03470  Biso   1.000  H
  C111     1.0000 0.63530  0.94770  0.03730  Biso   1.000  C
  C112     1.0000 0.57720  0.91980  0.01480  Biso   1.000  C
  H107     1.0000 0.53750  0.91190  0.02860  Biso   1.000  H
  C113     1.0000 0.62800  0.96440  0.08730  Biso   1.000  C
  C114     1.0000 0.23500  0.60900  0.94520  Biso   1.000  C
  C115     1.0000 0.20410  0.54920  0.97730  Biso   1.000  C
  C116     1.0000 0.19070  0.48680  0.96470  Biso   1.000  C
  H108     1.0000 0.20100  0.48010  0.93610  Biso   1.000  H
  C117     1.0000 0.16160  0.43250  0.99400  Biso   1.000  C
  H109     1.0000 0.15000  0.38880  0.98520  Biso   1.000  H
  C118     1.0000 0.15050  0.44650  0.03760  Biso   1.000  C
  H110     1.0000 0.13390  0.41190  0.05840  Biso   1.000  H
  C119     1.0000 0.16360  0.51020  0.05000  Biso   1.000  C
  C120     1.0000 0.19300  0.56190  0.02000  Biso   1.000  C
  H111     1.0000 0.20550  0.60600  0.02850  Biso   1.000  H
  C121     1.0000 0.14710  0.52420  0.09560  Biso   1.000  C
  C122     1.0000 0.49890  0.05320  0.74210  Biso   1.000  C
  C123     1.0000 0.51920  0.02580  0.70270  Biso   1.000  C
  C124     1.0000 0.57720  0.02340  0.70440  Biso   1.000  C
  H112     1.0000 0.60330  0.03690  0.72990  Biso   1.000  H
  O46      1.0000 0.54600  0.08000  0.77200  Biso   1.000  O
  O47      1.0000 0.44230  0.04720  0.74460  Biso   1.000  O
  O48      1.0000 0.25730  0.87570  0.91310  Biso   1.000  O
  Cu20     1.0000 0.28950  0.82870  0.86400  Biso   1.000  Cu
  Cu21     1.0000 0.53230  0.70600  0.21393  Biso   1.000  Cu
  Cu22     1.0000 0.38872  0.56874  0.20318  Biso   1.000  Cu
  Cu23     1.0000 0.39796  0.72161  0.20069  Biso   1.000  Cu
  Cu24     1.0000 0.59550  0.48951  0.15650  Biso   1.000  Cu
  N37      1.0000 0.30540  0.57460  0.20403  Biso   1.000  N
  N38      1.0000 0.30840  0.63510  0.20153  Biso   1.000  N
  N39      1.0000 0.20110  0.55670  0.19563  Biso   1.000  N
  N40      1.0000 0.48990  0.80460  0.19913  Biso   1.000  N
  N41      1.0000 0.54590  0.79670  0.20063  Biso   1.000  N
  N42      1.0000 0.58070  0.90250  0.18503  Biso   1.000  N
  N43      1.0000 0.53360  0.62280  0.19703  Biso   1.000  N
  N44      1.0000 0.47260  0.56420  0.19673  Biso   1.000  N
  N45      1.0000 0.54930  0.53830  0.17643  Biso   1.000  N
  O49      1.0000 0.44200  0.66650  0.18353  Biso   1.000  O
  H113     1.0000 0.44740  0.66790  0.15503  Biso   1.000  H
  O50      1.0000 0.34520  0.48640  0.23833  Biso   1.000  O
  O51      1.0000 0.39930  0.54200  0.29713  Biso   1.000  O
  O52      1.0000 0.29400  0.31730  0.44313  Biso   1.000  O
  O53      1.0000 0.38570  0.41440  0.43353  Biso   1.000  O
  O54      1.0000 0.36260  0.76720  0.23743  Biso   1.000  O
  O55      1.0000 0.40750  0.73950  0.29223  Biso   1.000  O
  O56      1.0000 0.34590  0.86920  0.45743  Biso   1.000  O
  O57      1.0000 0.42910  0.85100  0.43733  Biso   1.000  O
  C125     1.0000 0.21180  0.45190  0.20103  Biso   1.000  C
  H114     1.0000 0.24220  0.44060  0.18633  Biso   1.000  H
  H115     1.0000 0.16860  0.43000  0.18643  Biso   1.000  H
  H116     1.0000 0.20620  0.43700  0.23103  Biso   1.000  H
  C126     1.0000 0.24080  0.52740  0.19983  Biso   1.000  C
  C127     1.0000 0.24440  0.62280  0.19773  Biso   1.000  C
  C128     1.0000 0.22480  0.67830  0.19263  Biso   1.000  C
  H117     1.0000 0.18420  0.66110  0.17533  Biso   1.000  H
  H118     1.0000 0.26100  0.71710  0.17813  Biso   1.000  H
  H119     1.0000 0.21720  0.69140  0.22113  Biso   1.000  H
  C129     1.0000 0.46680  0.89800  0.17963  Biso   1.000  C
  H120     1.0000 0.42210  0.86330  0.17113  Biso   1.000  H
  H121     1.0000 0.48650  0.93120  0.15663  Biso   1.000  H
  H122     1.0000 0.46390  0.91960  0.20613  Biso   1.000  H
  C130     1.0000 0.51010  0.86710  0.18773  Biso   1.000  C
  C131     1.0000 0.60030  0.85840  0.19223  Biso   1.000  C
  C132     1.0000 0.67110  0.87330  0.19123  Biso   1.000  C
  H123     1.0000 0.69630  0.90860  0.17013  Biso   1.000  H
  H124     1.0000 0.67220  0.83310  0.18303  Biso   1.000  H
  H125     1.0000 0.69100  0.88800  0.21983  Biso   1.000  H
  C133     1.0000 0.65340  0.65670  0.17773  Biso   1.000  C
  H126     1.0000 0.66020  0.70190  0.17663  Biso   1.000  H
  H127     1.0000 0.66850  0.64690  0.15063  Biso   1.000  H
  H128     1.0000 0.67890  0.65330  0.20183  Biso   1.000  H
  C134     1.0000 0.57870  0.60640  0.18423  Biso   1.000  C
  C135     1.0000 0.48440  0.51520  0.18543  Biso   1.000  C
  C136     1.0000 0.43160  0.44140  0.18173  Biso   1.000  C
  H129     1.0000 0.38910  0.43720  0.17293  Biso   1.000  H
  H130     1.0000 0.42630  0.41970  0.20973  Biso   1.000  H
  H131     1.0000 0.44560  0.42010  0.16013  Biso   1.000  H
  C137     1.0000 0.36100  0.49010  0.27843  Biso   1.000  C
  C138     1.0000 0.32650  0.42460  0.30353  Biso   1.000  C
  C139     1.0000 0.28090  0.36480  0.28303  Biso   1.000  C
  H132     1.0000 0.27250  0.36460  0.25303  Biso   1.000  H
  C140     1.0000 0.24740  0.30440  0.30723  Biso   1.000  C
  H133     1.0000 0.21390  0.26480  0.29403  Biso   1.000  H
  C141     1.0000 0.26450  0.30410  0.35173  Biso   1.000  C
  H134     1.0000 0.24420  0.26420  0.36803  Biso   1.000  H
  C142     1.0000 0.31240  0.36470  0.37063  Biso   1.000  C
  C143     1.0000 0.34260  0.42280  0.34813  Biso   1.000  C
  H135     1.0000 0.37440  0.46250  0.36193  Biso   1.000  H
  C144     1.0000 0.33640  0.37200  0.42063  Biso   1.000  C
  C145     1.0000 0.37400  0.76500  0.27853  Biso   1.000  C
  C146     1.0000 0.34510  0.79590  0.31063  Biso   1.000  C
  C147     1.0000 0.29610  0.80930  0.29803  Biso   1.000  C
  H136     1.0000 0.27910  0.79900  0.26943  Biso   1.000  H
  C148     1.0000 0.27090  0.83840  0.32733  Biso   1.000  C
  H137     1.0000 0.23880  0.85000  0.31853  Biso   1.000  H
  C149     1.0000 0.29600  0.84950  0.37093  Biso   1.000  C
  H138     1.0000 0.27800  0.86610  0.39173  Biso   1.000  H
  C150     1.0000 0.34660  0.83640  0.38333  Biso   1.000  C
  C151     1.0000 0.36890  0.80700  0.35333  Biso   1.000  C
  H139     1.0000 0.40050  0.79450  0.36183  Biso   1.000  H
  C152     1.0000 0.37710  0.85290  0.42893  Biso   1.000  C
  C153     1.0000 0.55430  0.50110  0.07543  Biso   1.000  C
  C154     1.0000 0.50660  0.48080  0.03603  Biso   1.000  C
  C155     1.0000 0.44620  0.42280  0.03773  Biso   1.000  C
  H140     1.0000 0.43360  0.39670  0.06323  Biso   1.000  H
  O58      1.0000 0.53400  0.45400  0.10533  Biso   1.000  O
  O59      1.0000 0.60490  0.55770  0.07793  Biso   1.000  O
  O60      1.0000 0.61840  0.74270  0.24643  Biso   1.000  O
  Cu25     1.0000 0.53920  0.71050  0.19733  Biso   1.000  Cu
  Cu26     1.0000 0.17370  0.46770  0.54727  Biso   1.000  Cu
  Cu27     1.0000 0.18002  0.61128  0.53652  Biso   1.000  Cu
  Cu28     1.0000 0.32365  0.60204  0.53403  Biso   1.000  Cu
  Cu29     1.0000 0.89401  0.40450  0.48984  Biso   1.000  Cu
  N46      1.0000 0.26920  0.69460  0.53737  Biso   1.000  N
  N47      1.0000 0.32670  0.69160  0.53487  Biso   1.000  N
  N48      1.0000 0.35560  0.79890  0.52897  Biso   1.000  N
  N49      1.0000 0.31470  0.51010  0.53247  Biso   1.000  N
  N50      1.0000 0.25080  0.45410  0.53397  Biso   1.000  N
  N51      1.0000 0.32180  0.41930  0.51837  Biso   1.000  N
  N52      1.0000 0.08920  0.46640  0.53037  Biso   1.000  N
  N53      1.0000 0.09160  0.52740  0.53007  Biso   1.000  N
  N54      1.0000 0.98900  0.45070  0.50977  Biso   1.000  N
  O61      1.0000 0.22450  0.55800  0.51687  Biso   1.000  O
  H141     1.0000 0.22050  0.55260  0.48837  Biso   1.000  H
  O62      1.0000 0.14120  0.65480  0.57167  Biso   1.000  O
  O63      1.0000 0.14270  0.60070  0.63047  Biso   1.000  O
  O64      1.0000 0.02330  0.70600  0.77647  Biso   1.000  O
  O65      1.0000 0.02870  0.61430  0.76687  Biso   1.000  O
  O66      1.0000 0.40460  0.63740  0.57077  Biso   1.000  O
  O67      1.0000 0.33200  0.59250  0.62557  Biso   1.000  O
  O68      1.0000 0.52330  0.65410  0.79077  Biso   1.000  O
  O69      1.0000 0.42190  0.57090  0.77067  Biso   1.000  O
  C156     1.0000 0.24010  0.78820  0.53437  Biso   1.000  C
  H142     1.0000 0.19840  0.75780  0.51967  Biso   1.000  H
  H143     1.0000 0.26140  0.83140  0.51977  Biso   1.000  H
  H144     1.0000 0.23080  0.79380  0.56437  Biso   1.000  H
  C157     1.0000 0.28660  0.75920  0.53317  Biso   1.000  C
  C158     1.0000 0.37840  0.75560  0.53107  Biso   1.000  C
  C159     1.0000 0.45350  0.77520  0.52597  Biso   1.000  C
  H145     1.0000 0.47690  0.81580  0.50867  Biso   1.000  H
  H146     1.0000 0.45610  0.73900  0.51147  Biso   1.000  H
  H147     1.0000 0.47420  0.78280  0.55447  Biso   1.000  H
  C160     1.0000 0.43120  0.53320  0.51297  Biso   1.000  C
  H148     1.0000 0.44120  0.57790  0.50447  Biso   1.000  H
  H149     1.0000 0.44470  0.51350  0.48997  Biso   1.000  H
  H150     1.0000 0.45570  0.53610  0.53947  Biso   1.000  H
  C161     1.0000 0.35700  0.48990  0.52107  Biso   1.000  C
  C162     1.0000 0.25810  0.39970  0.52557  Biso   1.000  C
  C163     1.0000 0.20220  0.32890  0.52457  Biso   1.000  C
  H151     1.0000 0.21230  0.30370  0.50347  Biso   1.000  H
  H152     1.0000 0.16090  0.32780  0.51637  Biso   1.000  H
  H153     1.0000 0.19700  0.30900  0.55317  Biso   1.000  H
  C164     1.0000 0.00330  0.34660  0.51107  Biso   1.000  C
  H154     1.0000 0.04170  0.33980  0.50997  Biso   1.000  H
  H155     1.0000 0.97840  0.33150  0.48397  Biso   1.000  H
  H156     1.0000 0.97440  0.32110  0.53517  Biso   1.000  H
  C165     1.0000 0.02770  0.42130  0.51757  Biso   1.000  C
  C166     1.0000 0.03080  0.51560  0.51877  Biso   1.000  C
  C167     1.0000 0.00980  0.56840  0.51507  Biso   1.000  C
  H157     1.0000 0.04810  0.61090  0.50627  Biso   1.000  H
  H158     1.0000 0.99340  0.57370  0.54307  Biso   1.000  H
  H159     1.0000 0.97450  0.55440  0.49347  Biso   1.000  H
  C168     1.0000 0.12910  0.63900  0.61177  Biso   1.000  C
  C169     1.0000 0.09810  0.67350  0.63687  Biso   1.000  C
  C170     1.0000 0.08390  0.71910  0.61637  Biso   1.000  C
  H160     1.0000 0.09210  0.72750  0.58637  Biso   1.000  H
  C171     1.0000 0.05700  0.75260  0.64057  Biso   1.000  C
  H161     1.0000 0.05090  0.78610  0.62737  Biso   1.000  H
  C172     1.0000 0.03960  0.73550  0.68507  Biso   1.000  C
  H162     1.0000 0.02000  0.75580  0.70137  Biso   1.000  H
  C173     1.0000 0.05230  0.68760  0.70397  Biso   1.000  C
  C174     1.0000 0.08020  0.65740  0.68147  Biso   1.000  C
  H163     1.0000 0.08810  0.62560  0.69527  Biso   1.000  H
  C175     1.0000 0.03560  0.66360  0.75397  Biso   1.000  C
  C176     1.0000 0.39100  0.62600  0.61187  Biso   1.000  C
  C177     1.0000 0.45080  0.65490  0.64397  Biso   1.000  C
  C178     1.0000 0.51320  0.70390  0.63137  Biso   1.000  C
  H164     1.0000 0.51990  0.72090  0.60277  Biso   1.000  H
  C179     1.0000 0.56750  0.72910  0.66067  Biso   1.000  C
  H165     1.0000 0.61120  0.76120  0.65187  Biso   1.000  H
  C180     1.0000 0.55350  0.70400  0.70427  Biso   1.000  C
  H166     1.0000 0.58810  0.72200  0.72507  Biso   1.000  H
  C181     1.0000 0.48980  0.65340  0.71667  Biso   1.000  C
  C182     1.0000 0.43810  0.63110  0.68667  Biso   1.000  C
  H167     1.0000 0.39400  0.59950  0.69517  Biso   1.000  H
  C183     1.0000 0.47580  0.62290  0.76227  Biso   1.000  C
  C184     1.0000 0.94680  0.44570  0.40877  Biso   1.000  C
  C185     1.0000 0.97420  0.49340  0.36937  Biso   1.000  C
  C186     1.0000 0.97660  0.55380  0.37107  Biso   1.000  C
  H168     1.0000 0.96310  0.56640  0.39657  Biso   1.000  H
  O70      1.0000 0.92000  0.46600  0.43867  Biso   1.000  O
  O71      1.0000 0.95280  0.39510  0.41127  Biso   1.000  O
  O72      1.0000 0.12430  0.38160  0.57977  Biso   1.000  O
  Cu30     1.0000 0.17130  0.46080  0.53067  Biso   1.000  Cu
  Cu31     1.0000 0.63663  0.00000  0.16667  Biso   1.000  Cu
  Cu32     1.0000 0.00000  0.63663  0.83333  Biso   1.000  Cu
  Cu33     1.0000 0.36337  0.36337  0.50000  Biso   1.000  Cu
  C187     1.0000 0.00000  0.59910  0.33333  Biso   1.000  C
  H169     1.0000 0.00000  0.64000  0.33333  Biso   1.000  H
  C188     1.0000 0.00000  0.47600  0.33333  Biso   1.000  C
  H170     1.0000 0.00000  0.43510  0.33333  Biso   1.000  H
  C189     1.0000 0.40090  0.40090  0.00000  Biso   1.000  C
  H171     1.0000 0.36000  0.36000  0.00000  Biso   1.000  H
  C190     1.0000 0.52400  0.52400  0.00000  Biso   1.000  C
  H172     1.0000 0.56490  0.56490  0.00000  Biso   1.000  H
  C191     1.0000 0.59910  0.00000  0.66667  Biso   1.000  C
  H173     1.0000 0.64000  0.00000  0.66667  Biso   1.000  H
  C192     1.0000 0.47600  0.00000  0.66667  Biso   1.000  C
  H174     1.0000 0.43510  0.00000  0.66667  Biso   1.000  H
