data_image0
_cell_length_a       16.1682
_cell_length_b       15.102
_cell_length_c       7.9846
_cell_angle_alpha    90
_cell_angle_beta     92.845
_cell_angle_gamma    90

_symmetry_space_group_name_H-M    "P 1"
_symmetry_int_tables_number       1

loop_
  _symmetry_equiv_pos_as_xyz
  'x, y, z'

loop_
  _atom_site_label
  _atom_site_occupancy
  _atom_site_fract_x
  _atom_site_fract_y
  _atom_site_fract_z
  _atom_site_thermal_displace_type
  _atom_site_B_iso_or_equiv
  _atom_site_type_symbol
  Dy1      1.0000 0.45454  0.61618  0.04948  Biso   1.000  Dy
  Ag1      1.0000 0.97316  0.73989  0.60071  Biso   1.000  Ag
  O1       1.0000 0.35829  0.81592  0.71900  Biso   1.000  O
  O2       1.0000 0.38143  0.68117  0.82810  Biso   1.000  O
  O3       1.0000 0.57620  0.63300  0.90800  Biso   1.000  O
  O4       1.0000 0.63060  0.49745  0.86320  Biso   1.000  O
  O5       1.0000 0.53470  0.61490  0.31470  Biso   1.000  O
  O6       1.0000 0.54781  0.49700  0.16070  Biso   1.000  O
  N1       1.0000 0.09430  0.75270  0.99810  Biso   1.000  N
  N2       1.0000 0.85760  0.69670  0.69910  Biso   1.000  N
  C1       1.0000 0.25160  0.74940  0.86950  Biso   1.000  C
  C2       1.0000 0.21160  0.67100  0.91120  Biso   1.000  C
  H1       1.0000 0.23720  0.61650  0.89670  Biso   1.000  H
  C3       1.0000 0.13360  0.67530  0.97410  Biso   1.000  C
  H2       1.0000 0.10720  0.62290  0.00080  Biso   1.000  H
  C4       1.0000 0.13330  0.82840  0.95890  Biso   1.000  C
  H3       1.0000 0.10680  0.88210  0.97600  Biso   1.000  H
  C5       1.0000 0.21090  0.82940  0.89450  Biso   1.000  C
  H4       1.0000 0.23580  0.88280  0.86800  Biso   1.000  H
  C6       1.0000 0.33670  0.74950  0.80080  Biso   1.000  C
  C7       1.0000 0.63320  0.58090  0.86370  Biso   1.000  C
  C8       1.0000 0.71130  0.62310  0.80580  Biso   1.000  C
  C9       1.0000 0.71560  0.71230  0.76130  Biso   1.000  C
  H5       1.0000 0.66930  0.74860  0.76680  Biso   1.000  H
  C10      1.0000 0.78940  0.74580  0.70880  Biso   1.000  C
  H6       1.0000 0.79170  0.80530  0.67910  Biso   1.000  H
  C11      1.0000 0.85330  0.61080  0.74570  Biso   1.000  C
  H7       1.0000 0.90090  0.57630  0.74270  Biso   1.000  H
  C12      1.0000 0.78180  0.57190  0.79750  Biso   1.000  C
  H8       1.0000 0.78100  0.51230  0.82640  Biso   1.000  H
  C13      1.0000 0.56970  0.54110  0.28980  Biso   1.000  C
  C14      1.0000 0.62710  0.50150  0.42100  Biso   1.000  C
  H9       1.0000 0.67190  0.54180  0.44670  Biso   1.000  H
  H10      1.0000 0.64870  0.44680  0.38040  Biso   1.000  H
  H11      1.0000 0.59760  0.49050  0.52030  Biso   1.000  H
  C15      1.0000 0.64440  0.51270  0.39300  Biso   1.000  C
  H12      1.0000 0.65030  0.54880  0.49150  Biso   1.000  H
  H13      1.0000 0.69260  0.51910  0.32820  Biso   1.000  H
  H14      1.0000 0.63850  0.45180  0.42460  Biso   1.000  H
  Dy2      1.0000 0.54546  0.11618  0.45052  Biso   1.000  Dy
  Ag2      1.0000 0.02684  0.23989  0.89929  Biso   1.000  Ag
  O7       1.0000 0.64171  0.31592  0.78100  Biso   1.000  O
  O8       1.0000 0.61857  0.18117  0.67190  Biso   1.000  O
  O9       1.0000 0.42380  0.13300  0.59200  Biso   1.000  O
  O10      1.0000 0.36940  0.99745  0.63680  Biso   1.000  O
  O11      1.0000 0.46530  0.11490  0.18530  Biso   1.000  O
  O12      1.0000 0.45219  0.99700  0.33930  Biso   1.000  O
  N3       1.0000 0.90570  0.25270  0.50190  Biso   1.000  N
  N4       1.0000 0.14240  0.19670  0.80090  Biso   1.000  N
  C16      1.0000 0.74840  0.24940  0.63050  Biso   1.000  C
  C17      1.0000 0.78840  0.17100  0.58880  Biso   1.000  C
  H15      1.0000 0.76280  0.11650  0.60330  Biso   1.000  H
  C18      1.0000 0.86640  0.17530  0.52590  Biso   1.000  C
  H16      1.0000 0.89280  0.12290  0.49920  Biso   1.000  H
  C19      1.0000 0.86670  0.32840  0.54110  Biso   1.000  C
  H17      1.0000 0.89320  0.38210  0.52400  Biso   1.000  H
  C20      1.0000 0.78910  0.32940  0.60550  Biso   1.000  C
  H18      1.0000 0.76420  0.38280  0.63200  Biso   1.000  H
  C21      1.0000 0.66330  0.24950  0.69920  Biso   1.000  C
  C22      1.0000 0.36680  0.08090  0.63630  Biso   1.000  C
  C23      1.0000 0.28870  0.12310  0.69420  Biso   1.000  C
  C24      1.0000 0.28440  0.21230  0.73870  Biso   1.000  C
  H19      1.0000 0.33070  0.24860  0.73320  Biso   1.000  H
  C25      1.0000 0.21060  0.24580  0.79120  Biso   1.000  C
  H20      1.0000 0.20830  0.30530  0.82090  Biso   1.000  H
  C26      1.0000 0.14670  0.11080  0.75430  Biso   1.000  C
  H21      1.0000 0.09910  0.07630  0.75730  Biso   1.000  H
  C27      1.0000 0.21820  0.07190  0.70250  Biso   1.000  C
  H22      1.0000 0.21900  0.01230  0.67360  Biso   1.000  H
  C28      1.0000 0.43030  0.04110  0.21020  Biso   1.000  C
  C29      1.0000 0.37290  0.00150  0.07900  Biso   1.000  C
  H23      1.0000 0.32810  0.04180  0.05330  Biso   1.000  H
  H24      1.0000 0.35130  0.94680  0.11960  Biso   1.000  H
  H25      1.0000 0.40240  0.99050  0.97970  Biso   1.000  H
  C30      1.0000 0.35560  0.01270  0.10700  Biso   1.000  C
  H26      1.0000 0.34970  0.04880  0.00850  Biso   1.000  H
  H27      1.0000 0.30740  0.01910  0.17180  Biso   1.000  H
  H28      1.0000 0.36150  0.95180  0.07540  Biso   1.000  H
  Dy3      1.0000 0.54546  0.38382  0.95052  Biso   1.000  Dy
  Ag3      1.0000 0.02684  0.26011  0.39929  Biso   1.000  Ag
  O13      1.0000 0.64171  0.18408  0.28100  Biso   1.000  O
  O14      1.0000 0.61857  0.31883  0.17190  Biso   1.000  O
  O15      1.0000 0.42380  0.36700  0.09200  Biso   1.000  O
  O16      1.0000 0.36940  0.50255  0.13680  Biso   1.000  O
  O17      1.0000 0.46530  0.38510  0.68530  Biso   1.000  O
  O18      1.0000 0.45219  0.50300  0.83930  Biso   1.000  O
  N5       1.0000 0.90570  0.24730  0.00190  Biso   1.000  N
  N6       1.0000 0.14240  0.30330  0.30090  Biso   1.000  N
  C31      1.0000 0.74840  0.25060  0.13050  Biso   1.000  C
  C32      1.0000 0.78840  0.32900  0.08880  Biso   1.000  C
  H29      1.0000 0.76280  0.38350  0.10330  Biso   1.000  H
  C33      1.0000 0.86640  0.32470  0.02590  Biso   1.000  C
  H30      1.0000 0.89280  0.37710  0.99920  Biso   1.000  H
  C34      1.0000 0.86670  0.17160  0.04110  Biso   1.000  C
  H31      1.0000 0.89320  0.11790  0.02400  Biso   1.000  H
  C35      1.0000 0.78910  0.17060  0.10550  Biso   1.000  C
  H32      1.0000 0.76420  0.11720  0.13200  Biso   1.000  H
  C36      1.0000 0.66330  0.25050  0.19920  Biso   1.000  C
  C37      1.0000 0.36680  0.41910  0.13630  Biso   1.000  C
  C38      1.0000 0.28870  0.37690  0.19420  Biso   1.000  C
  C39      1.0000 0.28440  0.28770  0.23870  Biso   1.000  C
  H33      1.0000 0.33070  0.25140  0.23320  Biso   1.000  H
  C40      1.0000 0.21060  0.25420  0.29120  Biso   1.000  C
  H34      1.0000 0.20830  0.19470  0.32090  Biso   1.000  H
  C41      1.0000 0.14670  0.38920  0.25430  Biso   1.000  C
  H35      1.0000 0.09910  0.42370  0.25730  Biso   1.000  H
  C42      1.0000 0.21820  0.42810  0.20250  Biso   1.000  C
  H36      1.0000 0.21900  0.48770  0.17360  Biso   1.000  H
  C43      1.0000 0.43030  0.45890  0.71020  Biso   1.000  C
  C44      1.0000 0.37290  0.49850  0.57900  Biso   1.000  C
  H37      1.0000 0.32810  0.45820  0.55330  Biso   1.000  H
  H38      1.0000 0.35130  0.55320  0.61960  Biso   1.000  H
  H39      1.0000 0.40240  0.50950  0.47970  Biso   1.000  H
  C45      1.0000 0.35560  0.48730  0.60700  Biso   1.000  C
  H40      1.0000 0.34970  0.45120  0.50850  Biso   1.000  H
  H41      1.0000 0.30740  0.48090  0.67180  Biso   1.000  H
  H42      1.0000 0.36150  0.54820  0.57540  Biso   1.000  H
  Dy4      1.0000 0.45454  0.88382  0.54948  Biso   1.000  Dy
  Ag4      1.0000 0.97316  0.76011  0.10071  Biso   1.000  Ag
  O19      1.0000 0.35829  0.68408  0.21900  Biso   1.000  O
  O20      1.0000 0.38143  0.81883  0.32810  Biso   1.000  O
  O21      1.0000 0.57620  0.86700  0.40800  Biso   1.000  O
  O22      1.0000 0.63060  0.00255  0.36320  Biso   1.000  O
  O23      1.0000 0.53470  0.88510  0.81470  Biso   1.000  O
  O24      1.0000 0.54781  0.00300  0.66070  Biso   1.000  O
  N7       1.0000 0.09430  0.74730  0.49810  Biso   1.000  N
  N8       1.0000 0.85760  0.80330  0.19910  Biso   1.000  N
  C46      1.0000 0.25160  0.75060  0.36950  Biso   1.000  C
  C47      1.0000 0.21160  0.82900  0.41120  Biso   1.000  C
  H43      1.0000 0.23720  0.88350  0.39670  Biso   1.000  H
  C48      1.0000 0.13360  0.82470  0.47410  Biso   1.000  C
  H44      1.0000 0.10720  0.87710  0.50080  Biso   1.000  H
  C49      1.0000 0.13330  0.67160  0.45890  Biso   1.000  C
  H45      1.0000 0.10680  0.61790  0.47600  Biso   1.000  H
  C50      1.0000 0.21090  0.67060  0.39450  Biso   1.000  C
  H46      1.0000 0.23580  0.61720  0.36800  Biso   1.000  H
  C51      1.0000 0.33670  0.75050  0.30080  Biso   1.000  C
  C52      1.0000 0.63320  0.91910  0.36370  Biso   1.000  C
  C53      1.0000 0.71130  0.87690  0.30580  Biso   1.000  C
  C54      1.0000 0.71560  0.78770  0.26130  Biso   1.000  C
  H47      1.0000 0.66930  0.75140  0.26680  Biso   1.000  H
  C55      1.0000 0.78940  0.75420  0.20880  Biso   1.000  C
  H48      1.0000 0.79170  0.69470  0.17910  Biso   1.000  H
  C56      1.0000 0.85330  0.88920  0.24570  Biso   1.000  C
  H49      1.0000 0.90090  0.92370  0.24270  Biso   1.000  H
  C57      1.0000 0.78180  0.92810  0.29750  Biso   1.000  C
  H50      1.0000 0.78100  0.98770  0.32640  Biso   1.000  H
  C58      1.0000 0.56970  0.95890  0.78980  Biso   1.000  C
  C59      1.0000 0.62710  0.99850  0.92100  Biso   1.000  C
  H51      1.0000 0.67190  0.95820  0.94670  Biso   1.000  H
  H52      1.0000 0.64870  0.05320  0.88040  Biso   1.000  H
  H53      1.0000 0.59760  0.00950  0.02030  Biso   1.000  H
  C60      1.0000 0.64440  0.98730  0.89300  Biso   1.000  C
  H54      1.0000 0.65030  0.95120  0.99150  Biso   1.000  H
  H55      1.0000 0.69260  0.98090  0.82820  Biso   1.000  H
  H56      1.0000 0.63850  0.04820  0.92460  Biso   1.000  H
