data_image0
_cell_length_a       23.6519
_cell_length_b       13.0546
_cell_length_c       26.462
_cell_angle_alpha    90
_cell_angle_beta     115.424
_cell_angle_gamma    90

_symmetry_space_group_name_H-M    "P 1"
_symmetry_int_tables_number       1

loop_
  _symmetry_equiv_pos_as_xyz
  'x, y, z'

loop_
  _atom_site_label
  _atom_site_occupancy
  _atom_site_fract_x
  _atom_site_fract_y
  _atom_site_fract_z
  _atom_site_thermal_displace_type
  _atom_site_B_iso_or_equiv
  _atom_site_type_symbol
  O1       1.0000 0.00680  0.59400  0.18630  Biso   1.000  O
  C1       1.0000 0.06840  0.61990  0.20260  Biso   1.000  C
  C2       1.0000 0.11160  0.57140  0.25030  Biso   1.000  C
  H1       1.0000 0.09790  0.52170  0.26890  Biso   1.000  H
  C3       1.0000 0.17480  0.59600  0.27090  Biso   1.000  C
  C4       1.0000 0.19480  0.66800  0.24370  Biso   1.000  C
  H2       1.0000 0.23800  0.68480  0.25780  Biso   1.000  H
  C5       1.0000 0.15150  0.71700  0.19600  Biso   1.000  C
  C6       1.0000 0.08830  0.69260  0.17550  Biso   1.000  C
  H3       1.0000 0.05880  0.72570  0.14290  Biso   1.000  H
  C7       1.0000 0.22500  0.54880  0.31850  Biso   1.000  C
  C8       1.0000 0.17050  0.80790  0.16780  Biso   1.000  C
  Zn1      1.0000 0.25241  0.36531  0.38626  Biso   1.000  Zn
  Zn2      1.0000 0.35934  0.51385  0.39631  Biso   1.000  Zn
  O2       1.0000 0.32760  0.43390  0.44300  Biso   1.000  O
  O3       1.0000 0.54930  0.48190  0.57770  Biso   1.000  O
  O4       1.0000 0.28670  0.22210  0.58040  Biso   1.000  O
  O5       1.0000 0.22050  0.78830  0.16300  Biso   1.000  O
  C9       1.0000 0.52970  0.42020  0.60390  Biso   1.000  C
  O6       1.0000 0.56670  0.37870  0.65000  Biso   1.000  O
  C10      1.0000 0.46230  0.39580  0.57770  Biso   1.000  C
  O7       1.0000 0.28100  0.56410  0.33220  Biso   1.000  O
  C11      1.0000 0.34150  0.24950  0.60590  Biso   1.000  C
  C12      1.0000 0.36240  0.40150  0.49640  Biso   1.000  C
  O8       1.0000 0.37220  0.22240  0.65760  Biso   1.000  O
  O9       1.0000 0.13700  0.88580  0.14870  Biso   1.000  O
  C13      1.0000 0.43470  0.33800  0.60590  Biso   1.000  C
  H4       1.0000 0.45950  0.31690  0.64330  Biso   1.000  H
  C14      1.0000 0.42610  0.42570  0.52410  Biso   1.000  C
  H5       1.0000 0.44480  0.46440  0.50490  Biso   1.000  H
  O10      1.0000 0.20510  0.48190  0.34360  Biso   1.000  O
  C15      1.0000 0.33510  0.34380  0.52580  Biso   1.000  C
  H6       1.0000 0.29180  0.32730  0.50830  Biso   1.000  H
  C16      1.0000 0.37210  0.31140  0.58020  Biso   1.000  C
  O11      1.0000 0.02010  0.71200  0.23290  Biso   1.000  O
  C17      1.0000 0.07610  0.69480  0.23730  Biso   1.000  C
  C18      1.0000 0.12150  0.63240  0.27630  Biso   1.000  C
  H7       1.0000 0.11210  0.59400  0.30220  Biso   1.000  H
  C19      1.0000 0.18080  0.62600  0.27750  Biso   1.000  C
  C20      1.0000 0.19460  0.68200  0.23970  Biso   1.000  C
  H8       1.0000 0.23510  0.67830  0.24050  Biso   1.000  H
  C21      1.0000 0.14920  0.74500  0.20060  Biso   1.000  C
  C22      1.0000 0.09000  0.75100  0.19940  Biso   1.000  C
  H9       1.0000 0.05890  0.79360  0.17270  Biso   1.000  H
  O12      1.0000 0.50680  0.09400  0.18630  Biso   1.000  O
  C23      1.0000 0.56840  0.11990  0.20260  Biso   1.000  C
  C24      1.0000 0.61160  0.07140  0.25030  Biso   1.000  C
  H10      1.0000 0.59790  0.02170  0.26890  Biso   1.000  H
  C25      1.0000 0.67480  0.09600  0.27090  Biso   1.000  C
  C26      1.0000 0.69480  0.16800  0.24370  Biso   1.000  C
  H11      1.0000 0.73800  0.18480  0.25780  Biso   1.000  H
  C27      1.0000 0.65150  0.21700  0.19600  Biso   1.000  C
  C28      1.0000 0.58830  0.19260  0.17550  Biso   1.000  C
  H12      1.0000 0.55880  0.22570  0.14290  Biso   1.000  H
  C29      1.0000 0.72500  0.04880  0.31850  Biso   1.000  C
  C30      1.0000 0.67050  0.30790  0.16780  Biso   1.000  C
  Zn3      1.0000 0.75241  0.86531  0.38626  Biso   1.000  Zn
  Zn4      1.0000 0.85934  0.01385  0.39631  Biso   1.000  Zn
  O13      1.0000 0.82760  0.93390  0.44300  Biso   1.000  O
  O14      1.0000 0.04930  0.98190  0.57770  Biso   1.000  O
  O15      1.0000 0.78670  0.72210  0.58040  Biso   1.000  O
  O16      1.0000 0.72050  0.28830  0.16300  Biso   1.000  O
  C31      1.0000 0.02970  0.92020  0.60390  Biso   1.000  C
  O17      1.0000 0.06670  0.87870  0.65000  Biso   1.000  O
  C32      1.0000 0.96230  0.89580  0.57770  Biso   1.000  C
  O18      1.0000 0.78100  0.06410  0.33220  Biso   1.000  O
  C33      1.0000 0.84150  0.74950  0.60590  Biso   1.000  C
  C34      1.0000 0.86240  0.90150  0.49640  Biso   1.000  C
  O19      1.0000 0.87220  0.72240  0.65760  Biso   1.000  O
  O20      1.0000 0.63700  0.38580  0.14870  Biso   1.000  O
  C35      1.0000 0.93470  0.83800  0.60590  Biso   1.000  C
  H13      1.0000 0.95950  0.81690  0.64330  Biso   1.000  H
  C36      1.0000 0.92610  0.92570  0.52410  Biso   1.000  C
  H14      1.0000 0.94480  0.96440  0.50490  Biso   1.000  H
  O21      1.0000 0.70510  0.98190  0.34360  Biso   1.000  O
  C37      1.0000 0.83510  0.84380  0.52580  Biso   1.000  C
  H15      1.0000 0.79180  0.82730  0.50830  Biso   1.000  H
  C38      1.0000 0.87210  0.81140  0.58020  Biso   1.000  C
  O22      1.0000 0.52010  0.21200  0.23290  Biso   1.000  O
  C39      1.0000 0.57610  0.19480  0.23730  Biso   1.000  C
  C40      1.0000 0.62150  0.13240  0.27630  Biso   1.000  C
  H16      1.0000 0.61210  0.09400  0.30220  Biso   1.000  H
  C41      1.0000 0.68080  0.12600  0.27750  Biso   1.000  C
  C42      1.0000 0.69460  0.18200  0.23970  Biso   1.000  C
  H17      1.0000 0.73510  0.17830  0.24050  Biso   1.000  H
  C43      1.0000 0.64920  0.24500  0.20060  Biso   1.000  C
  C44      1.0000 0.59000  0.25100  0.19940  Biso   1.000  C
  H18      1.0000 0.55890  0.29360  0.17270  Biso   1.000  H
  O23      1.0000 0.99320  0.59400  0.31370  Biso   1.000  O
  C45      1.0000 0.93160  0.61990  0.29740  Biso   1.000  C
  C46      1.0000 0.88840  0.57140  0.24970  Biso   1.000  C
  H19      1.0000 0.90210  0.52170  0.23110  Biso   1.000  H
  C47      1.0000 0.82520  0.59600  0.22910  Biso   1.000  C
  C48      1.0000 0.80520  0.66800  0.25630  Biso   1.000  C
  H20      1.0000 0.76200  0.68480  0.24220  Biso   1.000  H
  C49      1.0000 0.84850  0.71700  0.30400  Biso   1.000  C
  C50      1.0000 0.91170  0.69260  0.32450  Biso   1.000  C
  H21      1.0000 0.94120  0.72570  0.35710  Biso   1.000  H
  C51      1.0000 0.77500  0.54880  0.18150  Biso   1.000  C
  C52      1.0000 0.82950  0.80790  0.33220  Biso   1.000  C
  Zn5      1.0000 0.74759  0.36531  0.11374  Biso   1.000  Zn
  Zn6      1.0000 0.64066  0.51385  0.10369  Biso   1.000  Zn
  O24      1.0000 0.67240  0.43390  0.05700  Biso   1.000  O
  O25      1.0000 0.45070  0.48190  0.92230  Biso   1.000  O
  O26      1.0000 0.71330  0.22210  0.91960  Biso   1.000  O
  O27      1.0000 0.77950  0.78830  0.33700  Biso   1.000  O
  C53      1.0000 0.47030  0.42020  0.89610  Biso   1.000  C
  O28      1.0000 0.43330  0.37870  0.85000  Biso   1.000  O
  C54      1.0000 0.53770  0.39580  0.92230  Biso   1.000  C
  O29      1.0000 0.71900  0.56410  0.16780  Biso   1.000  O
  C55      1.0000 0.65850  0.24950  0.89410  Biso   1.000  C
  C56      1.0000 0.63760  0.40150  0.00360  Biso   1.000  C
  O30      1.0000 0.62780  0.22240  0.84240  Biso   1.000  O
  O31      1.0000 0.86300  0.88580  0.35130  Biso   1.000  O
  C57      1.0000 0.56530  0.33800  0.89410  Biso   1.000  C
  H22      1.0000 0.54050  0.31690  0.85670  Biso   1.000  H
  C58      1.0000 0.57390  0.42570  0.97590  Biso   1.000  C
  H23      1.0000 0.55520  0.46440  0.99510  Biso   1.000  H
  O32      1.0000 0.79490  0.48190  0.15640  Biso   1.000  O
  C59      1.0000 0.66490  0.34380  0.97420  Biso   1.000  C
  H24      1.0000 0.70820  0.32730  0.99170  Biso   1.000  H
  C60      1.0000 0.62790  0.31140  0.91980  Biso   1.000  C
  O33      1.0000 0.97990  0.71200  0.26710  Biso   1.000  O
  C61      1.0000 0.92390  0.69480  0.26270  Biso   1.000  C
  C62      1.0000 0.87850  0.63240  0.22370  Biso   1.000  C
  H25      1.0000 0.88790  0.59400  0.19780  Biso   1.000  H
  C63      1.0000 0.81920  0.62600  0.22250  Biso   1.000  C
  C64      1.0000 0.80540  0.68200  0.26030  Biso   1.000  C
  H26      1.0000 0.76490  0.67830  0.25950  Biso   1.000  H
  C65      1.0000 0.85080  0.74500  0.29940  Biso   1.000  C
  C66      1.0000 0.91000  0.75100  0.30060  Biso   1.000  C
  H27      1.0000 0.94110  0.79360  0.32730  Biso   1.000  H
  O34      1.0000 0.49320  0.09400  0.31370  Biso   1.000  O
  C67      1.0000 0.43160  0.11990  0.29740  Biso   1.000  C
  C68      1.0000 0.38840  0.07140  0.24970  Biso   1.000  C
  H28      1.0000 0.40210  0.02170  0.23110  Biso   1.000  H
  C69      1.0000 0.32520  0.09600  0.22910  Biso   1.000  C
  C70      1.0000 0.30520  0.16800  0.25630  Biso   1.000  C
  H29      1.0000 0.26200  0.18480  0.24220  Biso   1.000  H
  C71      1.0000 0.34850  0.21700  0.30400  Biso   1.000  C
  C72      1.0000 0.41170  0.19260  0.32450  Biso   1.000  C
  H30      1.0000 0.44120  0.22570  0.35710  Biso   1.000  H
  C73      1.0000 0.27500  0.04880  0.18150  Biso   1.000  C
  C74      1.0000 0.32950  0.30790  0.33220  Biso   1.000  C
  Zn7      1.0000 0.24759  0.86531  0.11374  Biso   1.000  Zn
  Zn8      1.0000 0.14066  0.01385  0.10369  Biso   1.000  Zn
  O35      1.0000 0.17240  0.93390  0.05700  Biso   1.000  O
  O36      1.0000 0.95070  0.98190  0.92230  Biso   1.000  O
  O37      1.0000 0.21330  0.72210  0.91960  Biso   1.000  O
  O38      1.0000 0.27950  0.28830  0.33700  Biso   1.000  O
  C75      1.0000 0.97030  0.92020  0.89610  Biso   1.000  C
  O39      1.0000 0.93330  0.87870  0.85000  Biso   1.000  O
  C76      1.0000 0.03770  0.89580  0.92230  Biso   1.000  C
  O40      1.0000 0.21900  0.06410  0.16780  Biso   1.000  O
  C77      1.0000 0.15850  0.74950  0.89410  Biso   1.000  C
  C78      1.0000 0.13760  0.90150  0.00360  Biso   1.000  C
  O41      1.0000 0.12780  0.72240  0.84240  Biso   1.000  O
  O42      1.0000 0.36300  0.38580  0.35130  Biso   1.000  O
  C79      1.0000 0.06530  0.83800  0.89410  Biso   1.000  C
  H31      1.0000 0.04050  0.81690  0.85670  Biso   1.000  H
  C80      1.0000 0.07390  0.92570  0.97590  Biso   1.000  C
  H32      1.0000 0.05520  0.96440  0.99510  Biso   1.000  H
  O43      1.0000 0.29490  0.98190  0.15640  Biso   1.000  O
  C81      1.0000 0.16490  0.84380  0.97420  Biso   1.000  C
  H33      1.0000 0.20820  0.82730  0.99170  Biso   1.000  H
  C82      1.0000 0.12790  0.81140  0.91980  Biso   1.000  C
  O44      1.0000 0.47990  0.21200  0.26710  Biso   1.000  O
  C83      1.0000 0.42390  0.19480  0.26270  Biso   1.000  C
  C84      1.0000 0.37850  0.13240  0.22370  Biso   1.000  C
  H34      1.0000 0.38790  0.09400  0.19780  Biso   1.000  H
  C85      1.0000 0.31920  0.12600  0.22250  Biso   1.000  C
  C86      1.0000 0.30540  0.18200  0.26030  Biso   1.000  C
  H35      1.0000 0.26490  0.17830  0.25950  Biso   1.000  H
  C87      1.0000 0.35080  0.24500  0.29940  Biso   1.000  C
  C88      1.0000 0.41000  0.25100  0.30060  Biso   1.000  C
  H36      1.0000 0.44110  0.29360  0.32730  Biso   1.000  H
  O45      1.0000 0.99320  0.40600  0.81370  Biso   1.000  O
  C89      1.0000 0.93160  0.38010  0.79740  Biso   1.000  C
  C90      1.0000 0.88840  0.42860  0.74970  Biso   1.000  C
  H37      1.0000 0.90210  0.47830  0.73110  Biso   1.000  H
  C91      1.0000 0.82520  0.40400  0.72910  Biso   1.000  C
  C92      1.0000 0.80520  0.33200  0.75630  Biso   1.000  C
  H38      1.0000 0.76200  0.31520  0.74220  Biso   1.000  H
  C93      1.0000 0.84850  0.28300  0.80400  Biso   1.000  C
  C94      1.0000 0.91170  0.30740  0.82450  Biso   1.000  C
  H39      1.0000 0.94120  0.27430  0.85710  Biso   1.000  H
  C95      1.0000 0.77500  0.45120  0.68150  Biso   1.000  C
  C96      1.0000 0.82950  0.19210  0.83220  Biso   1.000  C
  Zn9      1.0000 0.74759  0.63469  0.61374  Biso   1.000  Zn
  Zn10     1.0000 0.64066  0.48615  0.60369  Biso   1.000  Zn
  O46      1.0000 0.67240  0.56610  0.55700  Biso   1.000  O
  O47      1.0000 0.45070  0.51810  0.42230  Biso   1.000  O
  O48      1.0000 0.71330  0.77790  0.41960  Biso   1.000  O
  O49      1.0000 0.77950  0.21170  0.83700  Biso   1.000  O
  C97      1.0000 0.47030  0.57980  0.39610  Biso   1.000  C
  O50      1.0000 0.43330  0.62130  0.35000  Biso   1.000  O
  C98      1.0000 0.53770  0.60420  0.42230  Biso   1.000  C
  O51      1.0000 0.71900  0.43590  0.66780  Biso   1.000  O
  C99      1.0000 0.65850  0.75050  0.39410  Biso   1.000  C
  C100     1.0000 0.63760  0.59850  0.50360  Biso   1.000  C
  O52      1.0000 0.62780  0.77760  0.34240  Biso   1.000  O
  O53      1.0000 0.86300  0.11420  0.85130  Biso   1.000  O
  C101     1.0000 0.56530  0.66200  0.39410  Biso   1.000  C
  H40      1.0000 0.54050  0.68310  0.35670  Biso   1.000  H
  C102     1.0000 0.57390  0.57430  0.47590  Biso   1.000  C
  H41      1.0000 0.55520  0.53560  0.49510  Biso   1.000  H
  O54      1.0000 0.79490  0.51810  0.65640  Biso   1.000  O
  C103     1.0000 0.66490  0.65620  0.47420  Biso   1.000  C
  H42      1.0000 0.70820  0.67270  0.49170  Biso   1.000  H
  C104     1.0000 0.62790  0.68860  0.41980  Biso   1.000  C
  O55      1.0000 0.97990  0.28800  0.76710  Biso   1.000  O
  C105     1.0000 0.92390  0.30520  0.76270  Biso   1.000  C
  C106     1.0000 0.87850  0.36760  0.72370  Biso   1.000  C
  H43      1.0000 0.88790  0.40600  0.69780  Biso   1.000  H
  C107     1.0000 0.81920  0.37400  0.72250  Biso   1.000  C
  C108     1.0000 0.80540  0.31800  0.76030  Biso   1.000  C
  H44      1.0000 0.76490  0.32170  0.75950  Biso   1.000  H
  C109     1.0000 0.85080  0.25500  0.79940  Biso   1.000  C
  C110     1.0000 0.91000  0.24900  0.80060  Biso   1.000  C
  H45      1.0000 0.94110  0.20640  0.82730  Biso   1.000  H
  O56      1.0000 0.49320  0.90600  0.81370  Biso   1.000  O
  C111     1.0000 0.43160  0.88010  0.79740  Biso   1.000  C
  C112     1.0000 0.38840  0.92860  0.74970  Biso   1.000  C
  H46      1.0000 0.40210  0.97830  0.73110  Biso   1.000  H
  C113     1.0000 0.32520  0.90400  0.72910  Biso   1.000  C
  C114     1.0000 0.30520  0.83200  0.75630  Biso   1.000  C
  H47      1.0000 0.26200  0.81520  0.74220  Biso   1.000  H
  C115     1.0000 0.34850  0.78300  0.80400  Biso   1.000  C
  C116     1.0000 0.41170  0.80740  0.82450  Biso   1.000  C
  H48      1.0000 0.44120  0.77430  0.85710  Biso   1.000  H
  C117     1.0000 0.27500  0.95120  0.68150  Biso   1.000  C
  C118     1.0000 0.32950  0.69210  0.83220  Biso   1.000  C
  Zn11     1.0000 0.24759  0.13469  0.61374  Biso   1.000  Zn
  Zn12     1.0000 0.14066  0.98615  0.60369  Biso   1.000  Zn
  O57      1.0000 0.17240  0.06610  0.55700  Biso   1.000  O
  O58      1.0000 0.95070  0.01810  0.42230  Biso   1.000  O
  O59      1.0000 0.21330  0.27790  0.41960  Biso   1.000  O
  O60      1.0000 0.27950  0.71170  0.83700  Biso   1.000  O
  C119     1.0000 0.97030  0.07980  0.39610  Biso   1.000  C
  O61      1.0000 0.93330  0.12130  0.35000  Biso   1.000  O
  C120     1.0000 0.03770  0.10420  0.42230  Biso   1.000  C
  O62      1.0000 0.21900  0.93590  0.66780  Biso   1.000  O
  C121     1.0000 0.15850  0.25050  0.39410  Biso   1.000  C
  C122     1.0000 0.13760  0.09850  0.50360  Biso   1.000  C
  O63      1.0000 0.12780  0.27760  0.34240  Biso   1.000  O
  O64      1.0000 0.36300  0.61420  0.85130  Biso   1.000  O
  C123     1.0000 0.06530  0.16200  0.39410  Biso   1.000  C
  H49      1.0000 0.04050  0.18310  0.35670  Biso   1.000  H
  C124     1.0000 0.07390  0.07430  0.47590  Biso   1.000  C
  H50      1.0000 0.05520  0.03560  0.49510  Biso   1.000  H
  O65      1.0000 0.29490  0.01810  0.65640  Biso   1.000  O
  C125     1.0000 0.16490  0.15620  0.47420  Biso   1.000  C
  H51      1.0000 0.20820  0.17270  0.49170  Biso   1.000  H
  C126     1.0000 0.12790  0.18860  0.41980  Biso   1.000  C
  O66      1.0000 0.47990  0.78800  0.76710  Biso   1.000  O
  C127     1.0000 0.42390  0.80520  0.76270  Biso   1.000  C
  C128     1.0000 0.37850  0.86760  0.72370  Biso   1.000  C
  H52      1.0000 0.38790  0.90600  0.69780  Biso   1.000  H
  C129     1.0000 0.31920  0.87400  0.72250  Biso   1.000  C
  C130     1.0000 0.30540  0.81800  0.76030  Biso   1.000  C
  H53      1.0000 0.26490  0.82170  0.75950  Biso   1.000  H
  C131     1.0000 0.35080  0.75500  0.79940  Biso   1.000  C
  C132     1.0000 0.41000  0.74900  0.80060  Biso   1.000  C
  H54      1.0000 0.44110  0.70640  0.82730  Biso   1.000  H
  O67      1.0000 0.00680  0.40600  0.68630  Biso   1.000  O
  C133     1.0000 0.06840  0.38010  0.70260  Biso   1.000  C
  C134     1.0000 0.11160  0.42860  0.75030  Biso   1.000  C
  H55      1.0000 0.09790  0.47830  0.76890  Biso   1.000  H
  C135     1.0000 0.17480  0.40400  0.77090  Biso   1.000  C
  C136     1.0000 0.19480  0.33200  0.74370  Biso   1.000  C
  H56      1.0000 0.23800  0.31520  0.75780  Biso   1.000  H
  C137     1.0000 0.15150  0.28300  0.69600  Biso   1.000  C
  C138     1.0000 0.08830  0.30740  0.67550  Biso   1.000  C
  H57      1.0000 0.05880  0.27430  0.64290  Biso   1.000  H
  C139     1.0000 0.22500  0.45120  0.81850  Biso   1.000  C
  C140     1.0000 0.17050  0.19210  0.66780  Biso   1.000  C
  Zn13     1.0000 0.25241  0.63469  0.88626  Biso   1.000  Zn
  Zn14     1.0000 0.35934  0.48615  0.89631  Biso   1.000  Zn
  O68      1.0000 0.32760  0.56610  0.94300  Biso   1.000  O
  O69      1.0000 0.54930  0.51810  0.07770  Biso   1.000  O
  O70      1.0000 0.28670  0.77790  0.08040  Biso   1.000  O
  O71      1.0000 0.22050  0.21170  0.66300  Biso   1.000  O
  C141     1.0000 0.52970  0.57980  0.10390  Biso   1.000  C
  O72      1.0000 0.56670  0.62130  0.15000  Biso   1.000  O
  C142     1.0000 0.46230  0.60420  0.07770  Biso   1.000  C
  O73      1.0000 0.28100  0.43590  0.83220  Biso   1.000  O
  C143     1.0000 0.34150  0.75050  0.10590  Biso   1.000  C
  C144     1.0000 0.36240  0.59850  0.99640  Biso   1.000  C
  O74      1.0000 0.37220  0.77760  0.15760  Biso   1.000  O
  O75      1.0000 0.13700  0.11420  0.64870  Biso   1.000  O
  C145     1.0000 0.43470  0.66200  0.10590  Biso   1.000  C
  H58      1.0000 0.45950  0.68310  0.14330  Biso   1.000  H
  C146     1.0000 0.42610  0.57430  0.02410  Biso   1.000  C
  H59      1.0000 0.44480  0.53560  0.00490  Biso   1.000  H
  O76      1.0000 0.20510  0.51810  0.84360  Biso   1.000  O
  C147     1.0000 0.33510  0.65620  0.02580  Biso   1.000  C
  H60      1.0000 0.29180  0.67270  0.00830  Biso   1.000  H
  C148     1.0000 0.37210  0.68860  0.08020  Biso   1.000  C
  O77      1.0000 0.02010  0.28800  0.73290  Biso   1.000  O
  C149     1.0000 0.07610  0.30520  0.73730  Biso   1.000  C
  C150     1.0000 0.12150  0.36760  0.77630  Biso   1.000  C
  H61      1.0000 0.11210  0.40600  0.80220  Biso   1.000  H
  C151     1.0000 0.18080  0.37400  0.77750  Biso   1.000  C
  C152     1.0000 0.19460  0.31800  0.73970  Biso   1.000  C
  H62      1.0000 0.23510  0.32170  0.74050  Biso   1.000  H
  C153     1.0000 0.14920  0.25500  0.70060  Biso   1.000  C
  C154     1.0000 0.09000  0.24900  0.69940  Biso   1.000  C
  H63      1.0000 0.05890  0.20640  0.67270  Biso   1.000  H
  O78      1.0000 0.50680  0.90600  0.68630  Biso   1.000  O
  C155     1.0000 0.56840  0.88010  0.70260  Biso   1.000  C
  C156     1.0000 0.61160  0.92860  0.75030  Biso   1.000  C
  H64      1.0000 0.59790  0.97830  0.76890  Biso   1.000  H
  C157     1.0000 0.67480  0.90400  0.77090  Biso   1.000  C
  C158     1.0000 0.69480  0.83200  0.74370  Biso   1.000  C
  H65      1.0000 0.73800  0.81520  0.75780  Biso   1.000  H
  C159     1.0000 0.65150  0.78300  0.69600  Biso   1.000  C
  C160     1.0000 0.58830  0.80740  0.67550  Biso   1.000  C
  H66      1.0000 0.55880  0.77430  0.64290  Biso   1.000  H
  C161     1.0000 0.72500  0.95120  0.81850  Biso   1.000  C
  C162     1.0000 0.67050  0.69210  0.66780  Biso   1.000  C
  Zn15     1.0000 0.75241  0.13469  0.88626  Biso   1.000  Zn
  Zn16     1.0000 0.85934  0.98615  0.89631  Biso   1.000  Zn
  O79      1.0000 0.82760  0.06610  0.94300  Biso   1.000  O
  O80      1.0000 0.04930  0.01810  0.07770  Biso   1.000  O
  O81      1.0000 0.78670  0.27790  0.08040  Biso   1.000  O
  O82      1.0000 0.72050  0.71170  0.66300  Biso   1.000  O
  C163     1.0000 0.02970  0.07980  0.10390  Biso   1.000  C
  O83      1.0000 0.06670  0.12130  0.15000  Biso   1.000  O
  C164     1.0000 0.96230  0.10420  0.07770  Biso   1.000  C
  O84      1.0000 0.78100  0.93590  0.83220  Biso   1.000  O
  C165     1.0000 0.84150  0.25050  0.10590  Biso   1.000  C
  C166     1.0000 0.86240  0.09850  0.99640  Biso   1.000  C
  O85      1.0000 0.87220  0.27760  0.15760  Biso   1.000  O
  O86      1.0000 0.63700  0.61420  0.64870  Biso   1.000  O
  C167     1.0000 0.93470  0.16200  0.10590  Biso   1.000  C
  H67      1.0000 0.95950  0.18310  0.14330  Biso   1.000  H
  C168     1.0000 0.92610  0.07430  0.02410  Biso   1.000  C
  H68      1.0000 0.94480  0.03560  0.00490  Biso   1.000  H
  O87      1.0000 0.70510  0.01810  0.84360  Biso   1.000  O
  C169     1.0000 0.83510  0.15620  0.02580  Biso   1.000  C
  H69      1.0000 0.79180  0.17270  0.00830  Biso   1.000  H
  C170     1.0000 0.87210  0.18860  0.08020  Biso   1.000  C
  O88      1.0000 0.52010  0.78800  0.73290  Biso   1.000  O
  C171     1.0000 0.57610  0.80520  0.73730  Biso   1.000  C
  C172     1.0000 0.62150  0.86760  0.77630  Biso   1.000  C
  H70      1.0000 0.61210  0.90600  0.80220  Biso   1.000  H
  C173     1.0000 0.68080  0.87400  0.77750  Biso   1.000  C
  C174     1.0000 0.69460  0.81800  0.73970  Biso   1.000  C
  H71      1.0000 0.73510  0.82170  0.74050  Biso   1.000  H
  C175     1.0000 0.64920  0.75500  0.70060  Biso   1.000  C
  C176     1.0000 0.59000  0.74900  0.69940  Biso   1.000  C
  H72      1.0000 0.55890  0.70640  0.67270  Biso   1.000  H
