data_image0
_cell_length_a       16.3261
_cell_length_b       16.3261
_cell_length_c       6.5495
_cell_angle_alpha    90
_cell_angle_beta     90
_cell_angle_gamma    90

_symmetry_space_group_name_H-M    "P 1"
_symmetry_int_tables_number       1

loop_
  _symmetry_equiv_pos_as_xyz
  'x, y, z'

loop_
  _atom_site_label
  _atom_site_occupancy
  _atom_site_fract_x
  _atom_site_fract_y
  _atom_site_fract_z
  _atom_site_thermal_displace_type
  _atom_site_B_iso_or_equiv
  _atom_site_type_symbol
  N1       1.0000 0.96420  0.18170  0.21070  Biso   1.000  N
  H1       1.0000 0.88320  0.30540  0.54380  Biso   1.000  H
  H2       1.0000 0.92320  0.22170  0.60560  Biso   1.000  H
  H3       1.0000 0.84160  0.22280  0.47940  Biso   1.000  H
  C1       1.0000 0.00480  0.20760  0.03950  Biso   1.000  C
  C2       1.0000 0.03620  0.14740  0.89120  Biso   1.000  C
  O1       1.0000 0.01763  0.07389  0.92300  Biso   1.000  O
  O2       1.0000 0.07680  0.17100  0.73860  Biso   1.000  O
  N2       1.0000 0.53580  0.31830  0.21070  Biso   1.000  N
  H4       1.0000 0.61680  0.19460  0.54380  Biso   1.000  H
  H5       1.0000 0.57680  0.27830  0.60560  Biso   1.000  H
  H6       1.0000 0.65840  0.27720  0.47940  Biso   1.000  H
  C3       1.0000 0.49520  0.29240  0.03950  Biso   1.000  C
  C4       1.0000 0.46380  0.35260  0.89120  Biso   1.000  C
  O3       1.0000 0.48237  0.42611  0.92300  Biso   1.000  O
  O4       1.0000 0.42320  0.32900  0.73860  Biso   1.000  O
  N3       1.0000 0.31830  0.96420  0.71070  Biso   1.000  N
  H7       1.0000 0.19460  0.88320  0.04380  Biso   1.000  H
  H8       1.0000 0.27830  0.92320  0.10560  Biso   1.000  H
  H9       1.0000 0.27720  0.84160  0.97940  Biso   1.000  H
  C5       1.0000 0.29240  0.00480  0.53950  Biso   1.000  C
  C6       1.0000 0.35260  0.03620  0.39120  Biso   1.000  C
  O5       1.0000 0.42611  0.01763  0.42300  Biso   1.000  O
  O6       1.0000 0.32900  0.07680  0.23860  Biso   1.000  O
  N4       1.0000 0.18170  0.53580  0.71070  Biso   1.000  N
  H10      1.0000 0.30540  0.61680  0.04380  Biso   1.000  H
  H11      1.0000 0.22170  0.57680  0.10560  Biso   1.000  H
  H12      1.0000 0.22280  0.65840  0.97940  Biso   1.000  H
  C7       1.0000 0.20760  0.49520  0.53950  Biso   1.000  C
  C8       1.0000 0.14740  0.46380  0.39120  Biso   1.000  C
  O7       1.0000 0.07389  0.48237  0.42300  Biso   1.000  O
  O8       1.0000 0.17100  0.42320  0.23860  Biso   1.000  O
  N5       1.0000 0.03580  0.68170  0.78930  Biso   1.000  N
  H13      1.0000 0.11680  0.80540  0.45620  Biso   1.000  H
  H14      1.0000 0.07680  0.72170  0.39440  Biso   1.000  H
  H15      1.0000 0.15840  0.72280  0.52060  Biso   1.000  H
  C9       1.0000 0.99520  0.70760  0.96050  Biso   1.000  C
  C10      1.0000 0.96380  0.64740  0.10880  Biso   1.000  C
  O9       1.0000 0.98237  0.57389  0.07700  Biso   1.000  O
  O10      1.0000 0.92320  0.67100  0.26140  Biso   1.000  O
  N6       1.0000 0.46420  0.81830  0.78930  Biso   1.000  N
  H16      1.0000 0.38320  0.69460  0.45620  Biso   1.000  H
  H17      1.0000 0.42320  0.77830  0.39440  Biso   1.000  H
  H18      1.0000 0.34160  0.77720  0.52060  Biso   1.000  H
  C11      1.0000 0.50480  0.79240  0.96050  Biso   1.000  C
  C12      1.0000 0.53620  0.85260  0.10880  Biso   1.000  C
  O11      1.0000 0.51763  0.92611  0.07700  Biso   1.000  O
  O12      1.0000 0.57680  0.82900  0.26140  Biso   1.000  O
  N7       1.0000 0.68170  0.46420  0.28930  Biso   1.000  N
  H19      1.0000 0.80540  0.38320  0.95620  Biso   1.000  H
  H20      1.0000 0.72170  0.42320  0.89440  Biso   1.000  H
  H21      1.0000 0.72280  0.34160  0.02060  Biso   1.000  H
  C13      1.0000 0.70760  0.50480  0.46050  Biso   1.000  C
  C14      1.0000 0.64740  0.53620  0.60880  Biso   1.000  C
  O13      1.0000 0.57389  0.51763  0.57700  Biso   1.000  O
  O14      1.0000 0.67100  0.57680  0.76140  Biso   1.000  O
  N8       1.0000 0.81830  0.03580  0.28930  Biso   1.000  N
  H22      1.0000 0.69460  0.11680  0.95620  Biso   1.000  H
  H23      1.0000 0.77830  0.07680  0.89440  Biso   1.000  H
  H24      1.0000 0.77720  0.15840  0.02060  Biso   1.000  H
  C15      1.0000 0.79240  0.99520  0.46050  Biso   1.000  C
  C16      1.0000 0.85260  0.96380  0.60880  Biso   1.000  C
  O15      1.0000 0.92611  0.98237  0.57700  Biso   1.000  O
  O16      1.0000 0.82900  0.92320  0.76140  Biso   1.000  O
  N9       1.0000 0.03580  0.81830  0.78930  Biso   1.000  N
  H25      1.0000 0.11680  0.69460  0.45620  Biso   1.000  H
  H26      1.0000 0.07680  0.77830  0.39440  Biso   1.000  H
  H27      1.0000 0.15840  0.77720  0.52060  Biso   1.000  H
  C17      1.0000 0.99520  0.79240  0.96050  Biso   1.000  C
  C18      1.0000 0.96380  0.85260  0.10880  Biso   1.000  C
  O17      1.0000 0.98237  0.92611  0.07700  Biso   1.000  O
  O18      1.0000 0.92320  0.82900  0.26140  Biso   1.000  O
  N10      1.0000 0.46420  0.68170  0.78930  Biso   1.000  N
  H28      1.0000 0.38320  0.80540  0.45620  Biso   1.000  H
  H29      1.0000 0.42320  0.72170  0.39440  Biso   1.000  H
  H30      1.0000 0.34160  0.72280  0.52060  Biso   1.000  H
  C19      1.0000 0.50480  0.70760  0.96050  Biso   1.000  C
  C20      1.0000 0.53620  0.64740  0.10880  Biso   1.000  C
  O19      1.0000 0.51763  0.57389  0.07700  Biso   1.000  O
  O20      1.0000 0.57680  0.67100  0.26140  Biso   1.000  O
  N11      1.0000 0.68170  0.03580  0.28930  Biso   1.000  N
  H31      1.0000 0.80540  0.11680  0.95620  Biso   1.000  H
  H32      1.0000 0.72170  0.07680  0.89440  Biso   1.000  H
  H33      1.0000 0.72280  0.15840  0.02060  Biso   1.000  H
  C21      1.0000 0.70760  0.99520  0.46050  Biso   1.000  C
  C22      1.0000 0.64740  0.96380  0.60880  Biso   1.000  C
  O21      1.0000 0.57389  0.98237  0.57700  Biso   1.000  O
  O22      1.0000 0.67100  0.92320  0.76140  Biso   1.000  O
  N12      1.0000 0.81830  0.46420  0.28930  Biso   1.000  N
  H34      1.0000 0.69460  0.38320  0.95620  Biso   1.000  H
  H35      1.0000 0.77830  0.42320  0.89440  Biso   1.000  H
  H36      1.0000 0.77720  0.34160  0.02060  Biso   1.000  H
  C23      1.0000 0.79240  0.50480  0.46050  Biso   1.000  C
  C24      1.0000 0.85260  0.53620  0.60880  Biso   1.000  C
  O23      1.0000 0.92611  0.51763  0.57700  Biso   1.000  O
  O24      1.0000 0.82900  0.57680  0.76140  Biso   1.000  O
  N13      1.0000 0.96420  0.31830  0.21070  Biso   1.000  N
  H37      1.0000 0.88320  0.19460  0.54380  Biso   1.000  H
  H38      1.0000 0.92320  0.27830  0.60560  Biso   1.000  H
  H39      1.0000 0.84160  0.27720  0.47940  Biso   1.000  H
  C25      1.0000 0.00480  0.29240  0.03950  Biso   1.000  C
  C26      1.0000 0.03620  0.35260  0.89120  Biso   1.000  C
  O25      1.0000 0.01763  0.42611  0.92300  Biso   1.000  O
  O26      1.0000 0.07680  0.32900  0.73860  Biso   1.000  O
  N14      1.0000 0.53580  0.18170  0.21070  Biso   1.000  N
  H40      1.0000 0.61680  0.30540  0.54380  Biso   1.000  H
  H41      1.0000 0.57680  0.22170  0.60560  Biso   1.000  H
  H42      1.0000 0.65840  0.22280  0.47940  Biso   1.000  H
  C27      1.0000 0.49520  0.20760  0.03950  Biso   1.000  C
  C28      1.0000 0.46380  0.14740  0.89120  Biso   1.000  C
  O27      1.0000 0.48237  0.07389  0.92300  Biso   1.000  O
  O28      1.0000 0.42320  0.17100  0.73860  Biso   1.000  O
  N15      1.0000 0.31830  0.53580  0.71070  Biso   1.000  N
  H43      1.0000 0.19460  0.61680  0.04380  Biso   1.000  H
  H44      1.0000 0.27830  0.57680  0.10560  Biso   1.000  H
  H45      1.0000 0.27720  0.65840  0.97940  Biso   1.000  H
  C29      1.0000 0.29240  0.49520  0.53950  Biso   1.000  C
  C30      1.0000 0.35260  0.46380  0.39120  Biso   1.000  C
  O29      1.0000 0.42611  0.48237  0.42300  Biso   1.000  O
  O30      1.0000 0.32900  0.42320  0.23860  Biso   1.000  O
  N16      1.0000 0.18170  0.96420  0.71070  Biso   1.000  N
  H46      1.0000 0.30540  0.88320  0.04380  Biso   1.000  H
  H47      1.0000 0.22170  0.92320  0.10560  Biso   1.000  H
  H48      1.0000 0.22280  0.84160  0.97940  Biso   1.000  H
  C31      1.0000 0.20760  0.00480  0.53950  Biso   1.000  C
  C32      1.0000 0.14740  0.03620  0.39120  Biso   1.000  C
  O31      1.0000 0.07389  0.01763  0.42300  Biso   1.000  O
  O32      1.0000 0.17100  0.07680  0.23860  Biso   1.000  O
  Cd1      1.0000 0.95540  0.04460  0.25000  Biso   1.000  Cd
  Cd2      1.0000 0.54460  0.45540  0.25000  Biso   1.000  Cd
  Cd3      1.0000 0.45540  0.95540  0.75000  Biso   1.000  Cd
  Cd4      1.0000 0.04460  0.54460  0.75000  Biso   1.000  Cd
  Cd5      1.0000 0.04460  0.95540  0.75000  Biso   1.000  Cd
  Cd6      1.0000 0.45540  0.54460  0.75000  Biso   1.000  Cd
  Cd7      1.0000 0.54460  0.04460  0.25000  Biso   1.000  Cd
  Cd8      1.0000 0.95540  0.45540  0.25000  Biso   1.000  Cd
  C33      1.0000 0.94090  0.25000  0.30870  Biso   1.000  C
  C34      1.0000 0.89300  0.25000  0.50140  Biso   1.000  C
  C35      1.0000 0.55910  0.25000  0.30870  Biso   1.000  C
  C36      1.0000 0.60700  0.25000  0.50140  Biso   1.000  C
  C37      1.0000 0.25000  0.94090  0.80870  Biso   1.000  C
  C38      1.0000 0.25000  0.89300  0.00140  Biso   1.000  C
  C39      1.0000 0.25000  0.55910  0.80870  Biso   1.000  C
  C40      1.0000 0.25000  0.60700  0.00140  Biso   1.000  C
  C41      1.0000 0.05910  0.75000  0.69130  Biso   1.000  C
  C42      1.0000 0.10700  0.75000  0.49860  Biso   1.000  C
  C43      1.0000 0.44090  0.75000  0.69130  Biso   1.000  C
  C44      1.0000 0.39300  0.75000  0.49860  Biso   1.000  C
  C45      1.0000 0.75000  0.44090  0.19130  Biso   1.000  C
  C46      1.0000 0.75000  0.39300  0.99860  Biso   1.000  C
  C47      1.0000 0.75000  0.05910  0.19130  Biso   1.000  C
  C48      1.0000 0.75000  0.10700  0.99860  Biso   1.000  C
