data_image0
_cell_length_a       10.952
_cell_length_b       10.952
_cell_length_c       9.627
_cell_angle_alpha    90
_cell_angle_beta     90
_cell_angle_gamma    90

_symmetry_space_group_name_H-M    "P 1"
_symmetry_int_tables_number       1

loop_
  _symmetry_equiv_pos_as_xyz
  'x, y, z'

loop_
  _atom_site_label
  _atom_site_occupancy
  _atom_site_fract_x
  _atom_site_fract_y
  _atom_site_fract_z
  _atom_site_thermal_displace_type
  _atom_site_B_iso_or_equiv
  _atom_site_type_symbol
  C1       1.0000 0.95270  0.88320  0.41860  Biso   1.000  C
  H1       1.0000 0.00420  0.81540  0.38420  Biso   1.000  H
  C2       1.0000 0.04730  0.11680  0.41860  Biso   1.000  C
  H2       1.0000 0.99580  0.18460  0.38420  Biso   1.000  H
  C3       1.0000 0.11680  0.95270  0.41860  Biso   1.000  C
  H3       1.0000 0.18460  0.00420  0.38420  Biso   1.000  H
  C4       1.0000 0.88320  0.04730  0.41860  Biso   1.000  C
  H4       1.0000 0.81540  0.99580  0.38420  Biso   1.000  H
  C5       1.0000 0.04730  0.88320  0.58140  Biso   1.000  C
  H5       1.0000 0.99580  0.81540  0.61580  Biso   1.000  H
  C6       1.0000 0.95270  0.11680  0.58140  Biso   1.000  C
  H6       1.0000 0.00420  0.18460  0.61580  Biso   1.000  H
  C7       1.0000 0.88320  0.95270  0.58140  Biso   1.000  C
  H7       1.0000 0.81540  0.00420  0.61580  Biso   1.000  H
  C8       1.0000 0.11680  0.04730  0.58140  Biso   1.000  C
  H8       1.0000 0.18460  0.99580  0.61580  Biso   1.000  H
  C9       1.0000 0.04730  0.11680  0.58140  Biso   1.000  C
  H9       1.0000 0.99580  0.18460  0.61580  Biso   1.000  H
  C10      1.0000 0.95270  0.88320  0.58140  Biso   1.000  C
  H10      1.0000 0.00420  0.81540  0.61580  Biso   1.000  H
  C11      1.0000 0.88320  0.04730  0.58140  Biso   1.000  C
  H11      1.0000 0.81540  0.99580  0.61580  Biso   1.000  H
  C12      1.0000 0.11680  0.95270  0.58140  Biso   1.000  C
  H12      1.0000 0.18460  0.00420  0.61580  Biso   1.000  H
  C13      1.0000 0.95270  0.11680  0.41860  Biso   1.000  C
  H13      1.0000 0.00420  0.18460  0.38420  Biso   1.000  H
  C14      1.0000 0.04730  0.88320  0.41860  Biso   1.000  C
  H14      1.0000 0.99580  0.81540  0.38420  Biso   1.000  H
  C15      1.0000 0.11680  0.04730  0.41860  Biso   1.000  C
  H15      1.0000 0.18460  0.99580  0.38420  Biso   1.000  H
  C16      1.0000 0.88320  0.95270  0.41860  Biso   1.000  C
  H16      1.0000 0.81540  0.00420  0.38420  Biso   1.000  H
  Zn1      1.0000 0.00000  0.00000  0.15090  Biso   1.000  Zn
  N1       1.0000 0.00000  0.00000  0.36550  Biso   1.000  N
  Zn2      1.0000 0.00000  0.00000  0.84910  Biso   1.000  Zn
  N2       1.0000 0.00000  0.00000  0.63450  Biso   1.000  N
  O1       1.0000 0.81740  0.00000  0.11700  Biso   1.000  O
  C17      1.0000 0.56430  0.00000  0.12510  Biso   1.000  C
  H17      1.0000 0.60730  0.00000  0.21090  Biso   1.000  H
  O2       1.0000 0.18260  0.00000  0.11700  Biso   1.000  O
  C18      1.0000 0.43570  0.00000  0.12510  Biso   1.000  C
  H18      1.0000 0.39270  0.00000  0.21090  Biso   1.000  H
  O3       1.0000 0.00000  0.81740  0.11700  Biso   1.000  O
  C19      1.0000 0.00000  0.56430  0.12510  Biso   1.000  C
  H19      1.0000 0.00000  0.60730  0.21090  Biso   1.000  H
  O4       1.0000 0.00000  0.18260  0.11700  Biso   1.000  O
  C20      1.0000 0.00000  0.43570  0.12510  Biso   1.000  C
  H20      1.0000 0.00000  0.39270  0.21090  Biso   1.000  H
  O5       1.0000 0.18260  0.00000  0.88300  Biso   1.000  O
  C21      1.0000 0.43570  0.00000  0.87490  Biso   1.000  C
  H21      1.0000 0.39270  0.00000  0.78910  Biso   1.000  H
  O6       1.0000 0.81740  0.00000  0.88300  Biso   1.000  O
  C22      1.0000 0.56430  0.00000  0.87490  Biso   1.000  C
  H22      1.0000 0.60730  0.00000  0.78910  Biso   1.000  H
  O7       1.0000 0.00000  0.81740  0.88300  Biso   1.000  O
  C23      1.0000 0.00000  0.56430  0.87490  Biso   1.000  C
  H23      1.0000 0.00000  0.60730  0.78910  Biso   1.000  H
  O8       1.0000 0.00000  0.18260  0.88300  Biso   1.000  O
  C24      1.0000 0.00000  0.43570  0.87490  Biso   1.000  C
  H24      1.0000 0.00000  0.39270  0.78910  Biso   1.000  H
  C25      1.0000 0.76310  0.00000  0.00000  Biso   1.000  C
  C26      1.0000 0.62940  0.00000  0.00000  Biso   1.000  C
  C27      1.0000 0.23690  0.00000  0.00000  Biso   1.000  C
  C28      1.0000 0.37060  0.00000  0.00000  Biso   1.000  C
  C29      1.0000 0.00000  0.76310  0.00000  Biso   1.000  C
  C30      1.0000 0.00000  0.62940  0.00000  Biso   1.000  C
  C31      1.0000 0.00000  0.23690  0.00000  Biso   1.000  C
  C32      1.0000 0.00000  0.37060  0.00000  Biso   1.000  C
  H25      1.0000 0.86945  0.86945  0.38420  Biso   1.000  H
  H26      1.0000 0.13055  0.13055  0.38420  Biso   1.000  H
  H27      1.0000 0.13055  0.86945  0.38420  Biso   1.000  H
  H28      1.0000 0.86945  0.13055  0.38420  Biso   1.000  H
  H29      1.0000 0.13055  0.86945  0.61580  Biso   1.000  H
  H30      1.0000 0.86945  0.13055  0.61580  Biso   1.000  H
  H31      1.0000 0.86945  0.86945  0.61580  Biso   1.000  H
  H32      1.0000 0.13055  0.13055  0.61580  Biso   1.000  H
