data_image0
_cell_length_a       22.4577
_cell_length_b       11.3406
_cell_length_c       12.0773
_cell_angle_alpha    90
_cell_angle_beta     113.556
_cell_angle_gamma    90

_symmetry_space_group_name_H-M    "P 1"
_symmetry_int_tables_number       1

loop_
  _symmetry_equiv_pos_as_xyz
  'x, y, z'

loop_
  _atom_site_label
  _atom_site_occupancy
  _atom_site_fract_x
  _atom_site_fract_y
  _atom_site_fract_z
  _atom_site_thermal_displace_type
  _atom_site_B_iso_or_equiv
  _atom_site_type_symbol
  C1       1.0000 0.21308  0.21700  0.65389  Biso   1.000  C
  C2       1.0000 0.20904  0.18281  0.77136  Biso   1.000  C
  C3       1.0000 0.24512  0.08700  0.83570  Biso   1.000  C
  H1       1.0000 0.27040  0.04580  0.80370  Biso   1.000  H
  C4       1.0000 0.20668  0.10940  0.98460  Biso   1.000  C
  H2       1.0000 0.20530  0.08400  0.05670  Biso   1.000  H
  C5       1.0000 0.16908  0.20490  0.92610  Biso   1.000  C
  H3       1.0000 0.14290  0.24240  0.95840  Biso   1.000  H
  C6       1.0000 0.17079  0.24443  0.81833  Biso   1.000  C
  C7       1.0000 0.13040  0.35110  0.75689  Biso   1.000  C
  C8       1.0000 0.38154  0.34080  0.68020  Biso   1.000  C
  H4       1.0000 0.35810  0.36640  0.60150  Biso   1.000  H
  C9       1.0000 0.41760  0.42170  0.76480  Biso   1.000  C
  H5       1.0000 0.41780  0.50050  0.74360  Biso   1.000  H
  C10      1.0000 0.45360  0.38510  0.88210  Biso   1.000  C
  C11      1.0000 0.44921  0.26880  0.90880  Biso   1.000  C
  H6       1.0000 0.47140  0.24120  0.98710  Biso   1.000  H
  C12      1.0000 0.41191  0.19370  0.81940  Biso   1.000  C
  H7       1.0000 0.40970  0.11510  0.83910  Biso   1.000  H
  C13      1.0000 0.51580  0.45600  0.97230  Biso   1.000  C
  N1       1.0000 0.24524  0.05153  0.94136  Biso   1.000  N
  N2       1.0000 0.37852  0.22740  0.70542  Biso   1.000  N
  O1       1.0000 0.22977  0.13915  0.59937  Biso   1.000  O
  O2       1.0000 0.19818  0.32015  0.61969  Biso   1.000  O
  O3       1.0000 0.15313  0.44999  0.79510  Biso   1.000  O
  O4       1.0000 0.07585  0.33164  0.67447  Biso   1.000  O
  Cd1      1.0000 0.31681  0.09418  0.55701  Biso   1.000  Cd
  C14      1.0000 0.46370  0.48990  0.98100  Biso   1.000  C
  C15      1.0000 0.71308  0.71700  0.65389  Biso   1.000  C
  C16      1.0000 0.70904  0.68281  0.77136  Biso   1.000  C
  C17      1.0000 0.74512  0.58700  0.83570  Biso   1.000  C
  H8       1.0000 0.77040  0.54580  0.80370  Biso   1.000  H
  C18      1.0000 0.70668  0.60940  0.98460  Biso   1.000  C
  H9       1.0000 0.70530  0.58400  0.05670  Biso   1.000  H
  C19      1.0000 0.66908  0.70490  0.92610  Biso   1.000  C
  H10      1.0000 0.64290  0.74240  0.95840  Biso   1.000  H
  C20      1.0000 0.67079  0.74443  0.81833  Biso   1.000  C
  C21      1.0000 0.63040  0.85110  0.75689  Biso   1.000  C
  C22      1.0000 0.88154  0.84080  0.68020  Biso   1.000  C
  H11      1.0000 0.85810  0.86640  0.60150  Biso   1.000  H
  C23      1.0000 0.91760  0.92170  0.76480  Biso   1.000  C
  H12      1.0000 0.91780  0.00050  0.74360  Biso   1.000  H
  C24      1.0000 0.95360  0.88510  0.88210  Biso   1.000  C
  C25      1.0000 0.94921  0.76880  0.90880  Biso   1.000  C
  H13      1.0000 0.97140  0.74120  0.98710  Biso   1.000  H
  C26      1.0000 0.91191  0.69370  0.81940  Biso   1.000  C
  H14      1.0000 0.90970  0.61510  0.83910  Biso   1.000  H
  C27      1.0000 0.01580  0.95600  0.97230  Biso   1.000  C
  N3       1.0000 0.74524  0.55153  0.94136  Biso   1.000  N
  N4       1.0000 0.87852  0.72740  0.70542  Biso   1.000  N
  O5       1.0000 0.72977  0.63915  0.59937  Biso   1.000  O
  O6       1.0000 0.69818  0.82015  0.61969  Biso   1.000  O
  O7       1.0000 0.65313  0.94999  0.79510  Biso   1.000  O
  O8       1.0000 0.57585  0.83164  0.67447  Biso   1.000  O
  Cd2      1.0000 0.81681  0.59418  0.55701  Biso   1.000  Cd
  C28      1.0000 0.96370  0.98990  0.98100  Biso   1.000  C
  C29      1.0000 0.78692  0.21700  0.84611  Biso   1.000  C
  C30      1.0000 0.79096  0.18281  0.72864  Biso   1.000  C
  C31      1.0000 0.75488  0.08700  0.66430  Biso   1.000  C
  H15      1.0000 0.72960  0.04580  0.69630  Biso   1.000  H
  C32      1.0000 0.79332  0.10940  0.51540  Biso   1.000  C
  H16      1.0000 0.79470  0.08400  0.44330  Biso   1.000  H
  C33      1.0000 0.83092  0.20490  0.57390  Biso   1.000  C
  H17      1.0000 0.85710  0.24240  0.54160  Biso   1.000  H
  C34      1.0000 0.82921  0.24443  0.68167  Biso   1.000  C
  C35      1.0000 0.86960  0.35110  0.74311  Biso   1.000  C
  C36      1.0000 0.61846  0.34080  0.81980  Biso   1.000  C
  H18      1.0000 0.64190  0.36640  0.89850  Biso   1.000  H
  C37      1.0000 0.58240  0.42170  0.73520  Biso   1.000  C
  H19      1.0000 0.58220  0.50050  0.75640  Biso   1.000  H
  C38      1.0000 0.54640  0.38510  0.61790  Biso   1.000  C
  C39      1.0000 0.55079  0.26880  0.59120  Biso   1.000  C
  H20      1.0000 0.52860  0.24120  0.51290  Biso   1.000  H
  C40      1.0000 0.58809  0.19370  0.68060  Biso   1.000  C
  H21      1.0000 0.59030  0.11510  0.66090  Biso   1.000  H
  C41      1.0000 0.48420  0.45600  0.52770  Biso   1.000  C
  N5       1.0000 0.75476  0.05153  0.55864  Biso   1.000  N
  N6       1.0000 0.62148  0.22740  0.79458  Biso   1.000  N
  O9       1.0000 0.77023  0.13915  0.90063  Biso   1.000  O
  O10      1.0000 0.80182  0.32015  0.88031  Biso   1.000  O
  O11      1.0000 0.84687  0.44999  0.70490  Biso   1.000  O
  O12      1.0000 0.92415  0.33164  0.82553  Biso   1.000  O
  Cd3      1.0000 0.68319  0.09418  0.94299  Biso   1.000  Cd
  C42      1.0000 0.53630  0.48990  0.51900  Biso   1.000  C
  C43      1.0000 0.28692  0.71700  0.84611  Biso   1.000  C
  C44      1.0000 0.29096  0.68281  0.72864  Biso   1.000  C
  C45      1.0000 0.25488  0.58700  0.66430  Biso   1.000  C
  H22      1.0000 0.22960  0.54580  0.69630  Biso   1.000  H
  C46      1.0000 0.29332  0.60940  0.51540  Biso   1.000  C
  H23      1.0000 0.29470  0.58400  0.44330  Biso   1.000  H
  C47      1.0000 0.33092  0.70490  0.57390  Biso   1.000  C
  H24      1.0000 0.35710  0.74240  0.54160  Biso   1.000  H
  C48      1.0000 0.32921  0.74443  0.68167  Biso   1.000  C
  C49      1.0000 0.36960  0.85110  0.74311  Biso   1.000  C
  C50      1.0000 0.11846  0.84080  0.81980  Biso   1.000  C
  H25      1.0000 0.14190  0.86640  0.89850  Biso   1.000  H
  C51      1.0000 0.08240  0.92170  0.73520  Biso   1.000  C
  H26      1.0000 0.08220  0.00050  0.75640  Biso   1.000  H
  C52      1.0000 0.04640  0.88510  0.61790  Biso   1.000  C
  C53      1.0000 0.05079  0.76880  0.59120  Biso   1.000  C
  H27      1.0000 0.02860  0.74120  0.51290  Biso   1.000  H
  C54      1.0000 0.08809  0.69370  0.68060  Biso   1.000  C
  H28      1.0000 0.09030  0.61510  0.66090  Biso   1.000  H
  C55      1.0000 0.98420  0.95600  0.52770  Biso   1.000  C
  N7       1.0000 0.25476  0.55153  0.55864  Biso   1.000  N
  N8       1.0000 0.12148  0.72740  0.79458  Biso   1.000  N
  O13      1.0000 0.27023  0.63915  0.90063  Biso   1.000  O
  O14      1.0000 0.30182  0.82015  0.88031  Biso   1.000  O
  O15      1.0000 0.34687  0.94999  0.70490  Biso   1.000  O
  O16      1.0000 0.42415  0.83164  0.82553  Biso   1.000  O
  Cd4      1.0000 0.18319  0.59418  0.94299  Biso   1.000  Cd
  C56      1.0000 0.03630  0.98990  0.51900  Biso   1.000  C
  C57      1.0000 0.78692  0.78300  0.34611  Biso   1.000  C
  C58      1.0000 0.79096  0.81719  0.22864  Biso   1.000  C
  C59      1.0000 0.75488  0.91300  0.16430  Biso   1.000  C
  H29      1.0000 0.72960  0.95420  0.19630  Biso   1.000  H
  C60      1.0000 0.79332  0.89060  0.01540  Biso   1.000  C
  H30      1.0000 0.79470  0.91600  0.94330  Biso   1.000  H
  C61      1.0000 0.83092  0.79510  0.07390  Biso   1.000  C
  H31      1.0000 0.85710  0.75760  0.04160  Biso   1.000  H
  C62      1.0000 0.82921  0.75557  0.18167  Biso   1.000  C
  C63      1.0000 0.86960  0.64890  0.24311  Biso   1.000  C
  C64      1.0000 0.61846  0.65920  0.31980  Biso   1.000  C
  H32      1.0000 0.64190  0.63360  0.39850  Biso   1.000  H
  C65      1.0000 0.58240  0.57830  0.23520  Biso   1.000  C
  H33      1.0000 0.58220  0.49950  0.25640  Biso   1.000  H
  C66      1.0000 0.54640  0.61490  0.11790  Biso   1.000  C
  C67      1.0000 0.55079  0.73120  0.09120  Biso   1.000  C
  H34      1.0000 0.52860  0.75880  0.01290  Biso   1.000  H
  C68      1.0000 0.58809  0.80630  0.18060  Biso   1.000  C
  H35      1.0000 0.59030  0.88490  0.16090  Biso   1.000  H
  C69      1.0000 0.48420  0.54400  0.02770  Biso   1.000  C
  N9       1.0000 0.75476  0.94847  0.05864  Biso   1.000  N
  N10      1.0000 0.62148  0.77260  0.29458  Biso   1.000  N
  O17      1.0000 0.77023  0.86085  0.40063  Biso   1.000  O
  O18      1.0000 0.80182  0.67985  0.38031  Biso   1.000  O
  O19      1.0000 0.84687  0.55001  0.20490  Biso   1.000  O
  O20      1.0000 0.92415  0.66836  0.32553  Biso   1.000  O
  Cd5      1.0000 0.68319  0.90582  0.44299  Biso   1.000  Cd
  C70      1.0000 0.53630  0.51010  0.01900  Biso   1.000  C
  C71      1.0000 0.28692  0.28300  0.34611  Biso   1.000  C
  C72      1.0000 0.29096  0.31719  0.22864  Biso   1.000  C
  C73      1.0000 0.25488  0.41300  0.16430  Biso   1.000  C
  H36      1.0000 0.22960  0.45420  0.19630  Biso   1.000  H
  C74      1.0000 0.29332  0.39060  0.01540  Biso   1.000  C
  H37      1.0000 0.29470  0.41600  0.94330  Biso   1.000  H
  C75      1.0000 0.33092  0.29510  0.07390  Biso   1.000  C
  H38      1.0000 0.35710  0.25760  0.04160  Biso   1.000  H
  C76      1.0000 0.32921  0.25557  0.18167  Biso   1.000  C
  C77      1.0000 0.36960  0.14890  0.24311  Biso   1.000  C
  C78      1.0000 0.11846  0.15920  0.31980  Biso   1.000  C
  H39      1.0000 0.14190  0.13360  0.39850  Biso   1.000  H
  C79      1.0000 0.08240  0.07830  0.23520  Biso   1.000  C
  H40      1.0000 0.08220  0.99950  0.25640  Biso   1.000  H
  C80      1.0000 0.04640  0.11490  0.11790  Biso   1.000  C
  C81      1.0000 0.05079  0.23120  0.09120  Biso   1.000  C
  H41      1.0000 0.02860  0.25880  0.01290  Biso   1.000  H
  C82      1.0000 0.08809  0.30630  0.18060  Biso   1.000  C
  H42      1.0000 0.09030  0.38490  0.16090  Biso   1.000  H
  C83      1.0000 0.98420  0.04400  0.02770  Biso   1.000  C
  N11      1.0000 0.25476  0.44847  0.05864  Biso   1.000  N
  N12      1.0000 0.12148  0.27260  0.29458  Biso   1.000  N
  O21      1.0000 0.27023  0.36085  0.40063  Biso   1.000  O
  O22      1.0000 0.30182  0.17985  0.38031  Biso   1.000  O
  O23      1.0000 0.34687  0.05001  0.20490  Biso   1.000  O
  O24      1.0000 0.42415  0.16836  0.32553  Biso   1.000  O
  Cd6      1.0000 0.18319  0.40582  0.44299  Biso   1.000  Cd
  C84      1.0000 0.03630  0.01010  0.01900  Biso   1.000  C
  C85      1.0000 0.21308  0.78300  0.15389  Biso   1.000  C
  C86      1.0000 0.20904  0.81719  0.27136  Biso   1.000  C
  C87      1.0000 0.24512  0.91300  0.33570  Biso   1.000  C
  H43      1.0000 0.27040  0.95420  0.30370  Biso   1.000  H
  C88      1.0000 0.20668  0.89060  0.48460  Biso   1.000  C
  H44      1.0000 0.20530  0.91600  0.55670  Biso   1.000  H
  C89      1.0000 0.16908  0.79510  0.42610  Biso   1.000  C
  H45      1.0000 0.14290  0.75760  0.45840  Biso   1.000  H
  C90      1.0000 0.17079  0.75557  0.31833  Biso   1.000  C
  C91      1.0000 0.13040  0.64890  0.25689  Biso   1.000  C
  C92      1.0000 0.38154  0.65920  0.18020  Biso   1.000  C
  H46      1.0000 0.35810  0.63360  0.10150  Biso   1.000  H
  C93      1.0000 0.41760  0.57830  0.26480  Biso   1.000  C
  H47      1.0000 0.41780  0.49950  0.24360  Biso   1.000  H
  C94      1.0000 0.45360  0.61490  0.38210  Biso   1.000  C
  C95      1.0000 0.44921  0.73120  0.40880  Biso   1.000  C
  H48      1.0000 0.47140  0.75880  0.48710  Biso   1.000  H
  C96      1.0000 0.41191  0.80630  0.31940  Biso   1.000  C
  H49      1.0000 0.40970  0.88490  0.33910  Biso   1.000  H
  C97      1.0000 0.51580  0.54400  0.47230  Biso   1.000  C
  N13      1.0000 0.24524  0.94847  0.44136  Biso   1.000  N
  N14      1.0000 0.37852  0.77260  0.20542  Biso   1.000  N
  O25      1.0000 0.22977  0.86085  0.09937  Biso   1.000  O
  O26      1.0000 0.19818  0.67985  0.11969  Biso   1.000  O
  O27      1.0000 0.15313  0.55001  0.29510  Biso   1.000  O
  O28      1.0000 0.07585  0.66836  0.17447  Biso   1.000  O
  Cd7      1.0000 0.31681  0.90582  0.05701  Biso   1.000  Cd
  C98      1.0000 0.46370  0.51010  0.48100  Biso   1.000  C
  C99      1.0000 0.71308  0.28300  0.15389  Biso   1.000  C
  C100     1.0000 0.70904  0.31719  0.27136  Biso   1.000  C
  C101     1.0000 0.74512  0.41300  0.33570  Biso   1.000  C
  H50      1.0000 0.77040  0.45420  0.30370  Biso   1.000  H
  C102     1.0000 0.70668  0.39060  0.48460  Biso   1.000  C
  H51      1.0000 0.70530  0.41600  0.55670  Biso   1.000  H
  C103     1.0000 0.66908  0.29510  0.42610  Biso   1.000  C
  H52      1.0000 0.64290  0.25760  0.45840  Biso   1.000  H
  C104     1.0000 0.67079  0.25557  0.31833  Biso   1.000  C
  C105     1.0000 0.63040  0.14890  0.25689  Biso   1.000  C
  C106     1.0000 0.88154  0.15920  0.18020  Biso   1.000  C
  H53      1.0000 0.85810  0.13360  0.10150  Biso   1.000  H
  C107     1.0000 0.91760  0.07830  0.26480  Biso   1.000  C
  H54      1.0000 0.91780  0.99950  0.24360  Biso   1.000  H
  C108     1.0000 0.95360  0.11490  0.38210  Biso   1.000  C
  C109     1.0000 0.94921  0.23120  0.40880  Biso   1.000  C
  H55      1.0000 0.97140  0.25880  0.48710  Biso   1.000  H
  C110     1.0000 0.91191  0.30630  0.31940  Biso   1.000  C
  H56      1.0000 0.90970  0.38490  0.33910  Biso   1.000  H
  C111     1.0000 0.01580  0.04400  0.47230  Biso   1.000  C
  N15      1.0000 0.74524  0.44847  0.44136  Biso   1.000  N
  N16      1.0000 0.87852  0.27260  0.20542  Biso   1.000  N
  O29      1.0000 0.72977  0.36085  0.09937  Biso   1.000  O
  O30      1.0000 0.69818  0.17985  0.11969  Biso   1.000  O
  O31      1.0000 0.65313  0.05001  0.29510  Biso   1.000  O
  O32      1.0000 0.57585  0.16836  0.17447  Biso   1.000  O
  Cd8      1.0000 0.81681  0.40582  0.05701  Biso   1.000  Cd
  C112     1.0000 0.96370  0.01010  0.48100  Biso   1.000  C
