data_image0
_cell_length_a       28.124
_cell_length_b       20.007
_cell_length_c       16.214
_cell_angle_alpha    90
_cell_angle_beta     114.096
_cell_angle_gamma    90

_symmetry_space_group_name_H-M    "P 1"
_symmetry_int_tables_number       1

loop_
  _symmetry_equiv_pos_as_xyz
  'x, y, z'

loop_
  _atom_site_label
  _atom_site_occupancy
  _atom_site_fract_x
  _atom_site_fract_y
  _atom_site_fract_z
  _atom_site_thermal_displace_type
  _atom_site_B_iso_or_equiv
  _atom_site_type_symbol
  Cu1      1.0000 0.65362  0.79801  0.17837  Biso   1.000  Cu
  O1       1.0000 0.60320  0.86690  0.11510  Biso   1.000  O
  O2       1.0000 0.63510  0.94200  0.22580  Biso   1.000  O
  O3       1.0000 0.61520  0.06690  0.08690  Biso   1.000  O
  O4       1.0000 0.58270  0.14190  0.15100  Biso   1.000  O
  C1       1.0000 0.60040  0.92130  0.15230  Biso   1.000  C
  C2       1.0000 0.55250  0.96290  0.10300  Biso   1.000  C
  H1       1.0000 0.54800  0.96730  0.04060  Biso   1.000  H
  H2       1.0000 0.52260  0.93880  0.10290  Biso   1.000  H
  C3       1.0000 0.58520  0.08250  0.12160  Biso   1.000  C
  C4       1.0000 0.55240  0.03160  0.13990  Biso   1.000  C
  H3       1.0000 0.56370  0.02800  0.20480  Biso   1.000  H
  H4       1.0000 0.51670  0.04770  0.11530  Biso   1.000  H
  Cu2      1.0000 0.62407  0.21808  0.14752  Biso   1.000  Cu
  Cu3      1.0000 0.63713  0.70164  0.50471  Biso   1.000  Cu
  Cu4      1.0000 0.64652  0.70584  0.31356  Biso   1.000  Cu
  O5       1.0000 0.63430  0.79910  0.28310  Biso   1.000  O
  H5       1.0000 0.59790  0.81200  0.26630  Biso   1.000  H
  O6       1.0000 0.60040  0.69660  0.37480  Biso   1.000  O
  H6       1.0000 0.56640  0.71880  0.34740  Biso   1.000  H
  Cu5      1.0000 0.68416  0.86997  0.35288  Biso   1.000  Cu
  Cu6      1.0000 0.76186  0.75585  0.30317  Biso   1.000  Cu
  O7       1.0000 0.72610  0.84010  0.29010  Biso   1.000  O
  H7       1.0000 0.74210  0.87670  0.27030  Biso   1.000  H
  O8       1.0000 0.79760  0.67140  0.33130  Biso   1.000  O
  H8       1.0000 0.78460  0.63760  0.28360  Biso   1.000  H
  Cu7      1.0000 0.71588  0.59659  0.46100  Biso   1.000  Cu
  Cu8      1.0000 0.67206  0.86345  0.54477  Biso   1.000  Cu
  O9       1.0000 0.64530  0.89720  0.42370  Biso   1.000  O
  H9       1.0000 0.61250  0.90140  0.39600  Biso   1.000  H
  Cu9      1.0000 0.69746  0.99899  0.46872  Biso   1.000  Cu
  O10      1.0000 0.75850  0.76480  0.15670  Biso   1.000  O
  O11      1.0000 0.67380  0.78760  0.07650  Biso   1.000  O
  C5       1.0000 0.71810  0.77020  0.08350  Biso   1.000  C
  C6       1.0000 0.72450  0.76020  0.99780  Biso   1.000  C
  H10      1.0000 0.69940  0.72680  0.96280  Biso   1.000  H
  H11      1.0000 0.71510  0.80170  0.96400  Biso   1.000  H
  O12      1.0000 0.69030  0.71660  0.24650  Biso   1.000  O
  H12      1.0000 0.68810  0.67850  0.20700  Biso   1.000  H
  O13      1.0000 0.66090  0.61110  0.34070  Biso   1.000  O
  H13      1.0000 0.66420  0.58460  0.29240  Biso   1.000  H
  O14      1.0000 0.77240  0.56680  0.42860  Biso   1.000  O
  O15      1.0000 0.65710  0.60740  0.49590  Biso   1.000  O
  H14      1.0000 0.65810  0.57830  0.54520  Biso   1.000  H
  O16      1.0000 0.61700  0.79270  0.52030  Biso   1.000  O
  H15      1.0000 0.58220  0.80590  0.47710  Biso   1.000  H
  O17      1.0000 0.66730  0.70500  0.63820  Biso   1.000  O
  H16      1.0000 0.66260  0.66390  0.66680  Biso   1.000  H
  O18      1.0000 0.73540  0.93790  0.42170  Biso   1.000  O
  H17      1.0000 0.75240  0.96030  0.38710  Biso   1.000  H
  Cu10     1.0000 0.60104  0.58484  0.37303  Biso   1.000  Cu
  O19      1.0000 0.55230  0.55010  0.42120  Biso   1.000  O
  C7       1.0000 0.50240  0.54170  0.50500  Biso   1.000  C
  H18      1.0000 0.46770  0.55950  0.47210  Biso   1.000  H
  H19      1.0000 0.51180  0.55180  0.56840  Biso   1.000  H
  C8       1.0000 0.54000  0.58300  0.47500  Biso   1.000  C
  O20      1.0000 0.55150  0.63980  0.51400  Biso   1.000  O
  O21      1.0000 0.73870  0.81360  0.50380  Biso   1.000  O
  O22      1.0000 0.70300  0.75990  0.48650  Biso   1.000  O
  O23      1.0000 0.71290  0.71000  0.46930  Biso   1.000  O
  Cu11     1.0000 0.15362  0.29801  0.17837  Biso   1.000  Cu
  O24      1.0000 0.10320  0.36690  0.11510  Biso   1.000  O
  O25      1.0000 0.13510  0.44200  0.22580  Biso   1.000  O
  O26      1.0000 0.11520  0.56690  0.08690  Biso   1.000  O
  O27      1.0000 0.08270  0.64190  0.15100  Biso   1.000  O
  C9       1.0000 0.10040  0.42130  0.15230  Biso   1.000  C
  C10      1.0000 0.05250  0.46290  0.10300  Biso   1.000  C
  H20      1.0000 0.04800  0.46730  0.04060  Biso   1.000  H
  H21      1.0000 0.02260  0.43880  0.10290  Biso   1.000  H
  C11      1.0000 0.08520  0.58250  0.12160  Biso   1.000  C
  C12      1.0000 0.05240  0.53160  0.13990  Biso   1.000  C
  H22      1.0000 0.06370  0.52800  0.20480  Biso   1.000  H
  H23      1.0000 0.01670  0.54770  0.11530  Biso   1.000  H
  Cu12     1.0000 0.12407  0.71808  0.14752  Biso   1.000  Cu
  Cu13     1.0000 0.13713  0.20164  0.50471  Biso   1.000  Cu
  Cu14     1.0000 0.14652  0.20584  0.31356  Biso   1.000  Cu
  O28      1.0000 0.13430  0.29910  0.28310  Biso   1.000  O
  H24      1.0000 0.09790  0.31200  0.26630  Biso   1.000  H
  O29      1.0000 0.10040  0.19660  0.37480  Biso   1.000  O
  H25      1.0000 0.06640  0.21880  0.34740  Biso   1.000  H
  Cu15     1.0000 0.18416  0.36997  0.35288  Biso   1.000  Cu
  Cu16     1.0000 0.26186  0.25585  0.30317  Biso   1.000  Cu
  O30      1.0000 0.22610  0.34010  0.29010  Biso   1.000  O
  H26      1.0000 0.24210  0.37670  0.27030  Biso   1.000  H
  O31      1.0000 0.29760  0.17140  0.33130  Biso   1.000  O
  H27      1.0000 0.28460  0.13760  0.28360  Biso   1.000  H
  Cu17     1.0000 0.21588  0.09659  0.46100  Biso   1.000  Cu
  Cu18     1.0000 0.17206  0.36345  0.54477  Biso   1.000  Cu
  O32      1.0000 0.14530  0.39720  0.42370  Biso   1.000  O
  H28      1.0000 0.11250  0.40140  0.39600  Biso   1.000  H
  Cu19     1.0000 0.19746  0.49899  0.46872  Biso   1.000  Cu
  O33      1.0000 0.25850  0.26480  0.15670  Biso   1.000  O
  O34      1.0000 0.17380  0.28760  0.07650  Biso   1.000  O
  C13      1.0000 0.21810  0.27020  0.08350  Biso   1.000  C
  C14      1.0000 0.22450  0.26020  0.99780  Biso   1.000  C
  H29      1.0000 0.19940  0.22680  0.96280  Biso   1.000  H
  H30      1.0000 0.21510  0.30170  0.96400  Biso   1.000  H
  O35      1.0000 0.19030  0.21660  0.24650  Biso   1.000  O
  H31      1.0000 0.18810  0.17850  0.20700  Biso   1.000  H
  O36      1.0000 0.16090  0.11110  0.34070  Biso   1.000  O
  H32      1.0000 0.16420  0.08460  0.29240  Biso   1.000  H
  O37      1.0000 0.27240  0.06680  0.42860  Biso   1.000  O
  O38      1.0000 0.15710  0.10740  0.49590  Biso   1.000  O
  H33      1.0000 0.15810  0.07830  0.54520  Biso   1.000  H
  O39      1.0000 0.11700  0.29270  0.52030  Biso   1.000  O
  H34      1.0000 0.08220  0.30590  0.47710  Biso   1.000  H
  O40      1.0000 0.16730  0.20500  0.63820  Biso   1.000  O
  H35      1.0000 0.16260  0.16390  0.66680  Biso   1.000  H
  O41      1.0000 0.23540  0.43790  0.42170  Biso   1.000  O
  H36      1.0000 0.25240  0.46030  0.38710  Biso   1.000  H
  Cu20     1.0000 0.10104  0.08484  0.37303  Biso   1.000  Cu
  O42      1.0000 0.05230  0.05010  0.42120  Biso   1.000  O
  C15      1.0000 0.00240  0.04170  0.50500  Biso   1.000  C
  H37      1.0000 0.96770  0.05950  0.47210  Biso   1.000  H
  H38      1.0000 0.01180  0.05180  0.56840  Biso   1.000  H
  C16      1.0000 0.04000  0.08300  0.47500  Biso   1.000  C
  O43      1.0000 0.05150  0.13980  0.51400  Biso   1.000  O
  O44      1.0000 0.23870  0.31360  0.50380  Biso   1.000  O
  O45      1.0000 0.20300  0.25990  0.48650  Biso   1.000  O
  O46      1.0000 0.21290  0.21000  0.46930  Biso   1.000  O
  Cu21     1.0000 0.34638  0.79801  0.32163  Biso   1.000  Cu
  O47      1.0000 0.39680  0.86690  0.38490  Biso   1.000  O
  O48      1.0000 0.36490  0.94200  0.27420  Biso   1.000  O
  O49      1.0000 0.38480  0.06690  0.41310  Biso   1.000  O
  O50      1.0000 0.41730  0.14190  0.34900  Biso   1.000  O
  C17      1.0000 0.39960  0.92130  0.34770  Biso   1.000  C
  C18      1.0000 0.44750  0.96290  0.39700  Biso   1.000  C
  H39      1.0000 0.45200  0.96730  0.45940  Biso   1.000  H
  H40      1.0000 0.47740  0.93880  0.39710  Biso   1.000  H
  C19      1.0000 0.41480  0.08250  0.37840  Biso   1.000  C
  C20      1.0000 0.44760  0.03160  0.36010  Biso   1.000  C
  H41      1.0000 0.43630  0.02800  0.29520  Biso   1.000  H
  H42      1.0000 0.48330  0.04770  0.38470  Biso   1.000  H
  Cu22     1.0000 0.37593  0.21808  0.35248  Biso   1.000  Cu
  Cu23     1.0000 0.36287  0.70164  0.99529  Biso   1.000  Cu
  Cu24     1.0000 0.35348  0.70584  0.18644  Biso   1.000  Cu
  O51      1.0000 0.36570  0.79910  0.21690  Biso   1.000  O
  H43      1.0000 0.40210  0.81200  0.23370  Biso   1.000  H
  O52      1.0000 0.39960  0.69660  0.12520  Biso   1.000  O
  H44      1.0000 0.43360  0.71880  0.15260  Biso   1.000  H
  Cu25     1.0000 0.31584  0.86997  0.14712  Biso   1.000  Cu
  Cu26     1.0000 0.23814  0.75585  0.19683  Biso   1.000  Cu
  O53      1.0000 0.27390  0.84010  0.20990  Biso   1.000  O
  H45      1.0000 0.25790  0.87670  0.22970  Biso   1.000  H
  O54      1.0000 0.20240  0.67140  0.16870  Biso   1.000  O
  H46      1.0000 0.21540  0.63760  0.21640  Biso   1.000  H
  Cu27     1.0000 0.28412  0.59659  0.03900  Biso   1.000  Cu
  Cu28     1.0000 0.32794  0.86345  0.95523  Biso   1.000  Cu
  O55      1.0000 0.35470  0.89720  0.07630  Biso   1.000  O
  H47      1.0000 0.38750  0.90140  0.10400  Biso   1.000  H
  Cu29     1.0000 0.30254  0.99899  0.03128  Biso   1.000  Cu
  O56      1.0000 0.24150  0.76480  0.34330  Biso   1.000  O
  O57      1.0000 0.32620  0.78760  0.42350  Biso   1.000  O
  C21      1.0000 0.28190  0.77020  0.41650  Biso   1.000  C
  C22      1.0000 0.27550  0.76020  0.50220  Biso   1.000  C
  H48      1.0000 0.30060  0.72680  0.53720  Biso   1.000  H
  H49      1.0000 0.28490  0.80170  0.53600  Biso   1.000  H
  O58      1.0000 0.30970  0.71660  0.25350  Biso   1.000  O
  H50      1.0000 0.31190  0.67850  0.29300  Biso   1.000  H
  O59      1.0000 0.33910  0.61110  0.15930  Biso   1.000  O
  H51      1.0000 0.33580  0.58460  0.20760  Biso   1.000  H
  O60      1.0000 0.22760  0.56680  0.07140  Biso   1.000  O
  O61      1.0000 0.34290  0.60740  0.00410  Biso   1.000  O
  H52      1.0000 0.34190  0.57830  0.95480  Biso   1.000  H
  O62      1.0000 0.38300  0.79270  0.97970  Biso   1.000  O
  H53      1.0000 0.41780  0.80590  0.02290  Biso   1.000  H
  O63      1.0000 0.33270  0.70500  0.86180  Biso   1.000  O
  H54      1.0000 0.33740  0.66390  0.83320  Biso   1.000  H
  O64      1.0000 0.26460  0.93790  0.07830  Biso   1.000  O
  H55      1.0000 0.24760  0.96030  0.11290  Biso   1.000  H
  Cu30     1.0000 0.39896  0.58484  0.12697  Biso   1.000  Cu
  O65      1.0000 0.44770  0.55010  0.07880  Biso   1.000  O
  C23      1.0000 0.49760  0.54170  0.99500  Biso   1.000  C
  H56      1.0000 0.53230  0.55950  0.02790  Biso   1.000  H
  H57      1.0000 0.48820  0.55180  0.93160  Biso   1.000  H
  C24      1.0000 0.46000  0.58300  0.02500  Biso   1.000  C
  O66      1.0000 0.44850  0.63980  0.98600  Biso   1.000  O
  O67      1.0000 0.26130  0.81360  0.99620  Biso   1.000  O
  O68      1.0000 0.29700  0.75990  0.01350  Biso   1.000  O
  O69      1.0000 0.28710  0.71000  0.03070  Biso   1.000  O
  Cu31     1.0000 0.84638  0.29801  0.32163  Biso   1.000  Cu
  O70      1.0000 0.89680  0.36690  0.38490  Biso   1.000  O
  O71      1.0000 0.86490  0.44200  0.27420  Biso   1.000  O
  O72      1.0000 0.88480  0.56690  0.41310  Biso   1.000  O
  O73      1.0000 0.91730  0.64190  0.34900  Biso   1.000  O
  C25      1.0000 0.89960  0.42130  0.34770  Biso   1.000  C
  C26      1.0000 0.94750  0.46290  0.39700  Biso   1.000  C
  H58      1.0000 0.95200  0.46730  0.45940  Biso   1.000  H
  H59      1.0000 0.97740  0.43880  0.39710  Biso   1.000  H
  C27      1.0000 0.91480  0.58250  0.37840  Biso   1.000  C
  C28      1.0000 0.94760  0.53160  0.36010  Biso   1.000  C
  H60      1.0000 0.93630  0.52800  0.29520  Biso   1.000  H
  H61      1.0000 0.98330  0.54770  0.38470  Biso   1.000  H
  Cu32     1.0000 0.87593  0.71808  0.35248  Biso   1.000  Cu
  Cu33     1.0000 0.86287  0.20164  0.99529  Biso   1.000  Cu
  Cu34     1.0000 0.85348  0.20584  0.18644  Biso   1.000  Cu
  O74      1.0000 0.86570  0.29910  0.21690  Biso   1.000  O
  H62      1.0000 0.90210  0.31200  0.23370  Biso   1.000  H
  O75      1.0000 0.89960  0.19660  0.12520  Biso   1.000  O
  H63      1.0000 0.93360  0.21880  0.15260  Biso   1.000  H
  Cu35     1.0000 0.81584  0.36997  0.14712  Biso   1.000  Cu
  Cu36     1.0000 0.73814  0.25585  0.19683  Biso   1.000  Cu
  O76      1.0000 0.77390  0.34010  0.20990  Biso   1.000  O
  H64      1.0000 0.75790  0.37670  0.22970  Biso   1.000  H
  O77      1.0000 0.70240  0.17140  0.16870  Biso   1.000  O
  H65      1.0000 0.71540  0.13760  0.21640  Biso   1.000  H
  Cu37     1.0000 0.78412  0.09659  0.03900  Biso   1.000  Cu
  Cu38     1.0000 0.82794  0.36345  0.95523  Biso   1.000  Cu
  O78      1.0000 0.85470  0.39720  0.07630  Biso   1.000  O
  H66      1.0000 0.88750  0.40140  0.10400  Biso   1.000  H
  Cu39     1.0000 0.80254  0.49899  0.03128  Biso   1.000  Cu
  O79      1.0000 0.74150  0.26480  0.34330  Biso   1.000  O
  O80      1.0000 0.82620  0.28760  0.42350  Biso   1.000  O
  C29      1.0000 0.78190  0.27020  0.41650  Biso   1.000  C
  C30      1.0000 0.77550  0.26020  0.50220  Biso   1.000  C
  H67      1.0000 0.80060  0.22680  0.53720  Biso   1.000  H
  H68      1.0000 0.78490  0.30170  0.53600  Biso   1.000  H
  O81      1.0000 0.80970  0.21660  0.25350  Biso   1.000  O
  H69      1.0000 0.81190  0.17850  0.29300  Biso   1.000  H
  O82      1.0000 0.83910  0.11110  0.15930  Biso   1.000  O
  H70      1.0000 0.83580  0.08460  0.20760  Biso   1.000  H
  O83      1.0000 0.72760  0.06680  0.07140  Biso   1.000  O
  O84      1.0000 0.84290  0.10740  0.00410  Biso   1.000  O
  H71      1.0000 0.84190  0.07830  0.95480  Biso   1.000  H
  O85      1.0000 0.88300  0.29270  0.97970  Biso   1.000  O
  H72      1.0000 0.91780  0.30590  0.02290  Biso   1.000  H
  O86      1.0000 0.83270  0.20500  0.86180  Biso   1.000  O
  H73      1.0000 0.83740  0.16390  0.83320  Biso   1.000  H
  O87      1.0000 0.76460  0.43790  0.07830  Biso   1.000  O
  H74      1.0000 0.74760  0.46030  0.11290  Biso   1.000  H
  Cu40     1.0000 0.89896  0.08484  0.12697  Biso   1.000  Cu
  O88      1.0000 0.94770  0.05010  0.07880  Biso   1.000  O
  C31      1.0000 0.99760  0.04170  0.99500  Biso   1.000  C
  H75      1.0000 0.03230  0.05950  0.02790  Biso   1.000  H
  H76      1.0000 0.98820  0.05180  0.93160  Biso   1.000  H
  C32      1.0000 0.96000  0.08300  0.02500  Biso   1.000  C
  O89      1.0000 0.94850  0.13980  0.98600  Biso   1.000  O
  O90      1.0000 0.76130  0.31360  0.99620  Biso   1.000  O
  O91      1.0000 0.79700  0.25990  0.01350  Biso   1.000  O
  O92      1.0000 0.78710  0.21000  0.03070  Biso   1.000  O
  Cu41     1.0000 0.34638  0.20199  0.82163  Biso   1.000  Cu
  O93      1.0000 0.39680  0.13310  0.88490  Biso   1.000  O
  O94      1.0000 0.36490  0.05800  0.77420  Biso   1.000  O
  O95      1.0000 0.38480  0.93310  0.91310  Biso   1.000  O
  O96      1.0000 0.41730  0.85810  0.84900  Biso   1.000  O
  C33      1.0000 0.39960  0.07870  0.84770  Biso   1.000  C
  C34      1.0000 0.44750  0.03710  0.89700  Biso   1.000  C
  H77      1.0000 0.45200  0.03270  0.95940  Biso   1.000  H
  H78      1.0000 0.47740  0.06120  0.89710  Biso   1.000  H
  C35      1.0000 0.41480  0.91750  0.87840  Biso   1.000  C
  C36      1.0000 0.44760  0.96840  0.86010  Biso   1.000  C
  H79      1.0000 0.43630  0.97200  0.79520  Biso   1.000  H
  H80      1.0000 0.48330  0.95230  0.88470  Biso   1.000  H
  Cu42     1.0000 0.37593  0.78192  0.85248  Biso   1.000  Cu
  Cu43     1.0000 0.36287  0.29836  0.49529  Biso   1.000  Cu
  Cu44     1.0000 0.35348  0.29416  0.68644  Biso   1.000  Cu
  O97      1.0000 0.36570  0.20090  0.71690  Biso   1.000  O
  H81      1.0000 0.40210  0.18800  0.73370  Biso   1.000  H
  O98      1.0000 0.39960  0.30340  0.62520  Biso   1.000  O
  H82      1.0000 0.43360  0.28120  0.65260  Biso   1.000  H
  Cu45     1.0000 0.31584  0.13003  0.64712  Biso   1.000  Cu
  Cu46     1.0000 0.23814  0.24415  0.69683  Biso   1.000  Cu
  O99      1.0000 0.27390  0.15990  0.70990  Biso   1.000  O
  H83      1.0000 0.25790  0.12330  0.72970  Biso   1.000  H
  O100     1.0000 0.20240  0.32860  0.66870  Biso   1.000  O
  H84      1.0000 0.21540  0.36240  0.71640  Biso   1.000  H
  Cu47     1.0000 0.28412  0.40341  0.53900  Biso   1.000  Cu
  Cu48     1.0000 0.32794  0.13655  0.45523  Biso   1.000  Cu
  O101     1.0000 0.35470  0.10280  0.57630  Biso   1.000  O
  H85      1.0000 0.38750  0.09860  0.60400  Biso   1.000  H
  Cu49     1.0000 0.30254  0.00101  0.53128  Biso   1.000  Cu
  O102     1.0000 0.24150  0.23520  0.84330  Biso   1.000  O
  O103     1.0000 0.32620  0.21240  0.92350  Biso   1.000  O
  C37      1.0000 0.28190  0.22980  0.91650  Biso   1.000  C
  C38      1.0000 0.27550  0.23980  0.00220  Biso   1.000  C
  H86      1.0000 0.30060  0.27320  0.03720  Biso   1.000  H
  H87      1.0000 0.28490  0.19830  0.03600  Biso   1.000  H
  O104     1.0000 0.30970  0.28340  0.75350  Biso   1.000  O
  H88      1.0000 0.31190  0.32150  0.79300  Biso   1.000  H
  O105     1.0000 0.33910  0.38890  0.65930  Biso   1.000  O
  H89      1.0000 0.33580  0.41540  0.70760  Biso   1.000  H
  O106     1.0000 0.22760  0.43320  0.57140  Biso   1.000  O
  O107     1.0000 0.34290  0.39260  0.50410  Biso   1.000  O
  H90      1.0000 0.34190  0.42170  0.45480  Biso   1.000  H
  O108     1.0000 0.38300  0.20730  0.47970  Biso   1.000  O
  H91      1.0000 0.41780  0.19410  0.52290  Biso   1.000  H
  O109     1.0000 0.33270  0.29500  0.36180  Biso   1.000  O
  H92      1.0000 0.33740  0.33610  0.33320  Biso   1.000  H
  O110     1.0000 0.26460  0.06210  0.57830  Biso   1.000  O
  H93      1.0000 0.24760  0.03970  0.61290  Biso   1.000  H
  Cu50     1.0000 0.39896  0.41516  0.62697  Biso   1.000  Cu
  O111     1.0000 0.44770  0.44990  0.57880  Biso   1.000  O
  C39      1.0000 0.49760  0.45830  0.49500  Biso   1.000  C
  H94      1.0000 0.53230  0.44050  0.52790  Biso   1.000  H
  H95      1.0000 0.48820  0.44820  0.43160  Biso   1.000  H
  C40      1.0000 0.46000  0.41700  0.52500  Biso   1.000  C
  O112     1.0000 0.44850  0.36020  0.48600  Biso   1.000  O
  O113     1.0000 0.26130  0.18640  0.49620  Biso   1.000  O
  O114     1.0000 0.29700  0.24010  0.51350  Biso   1.000  O
  O115     1.0000 0.28710  0.29000  0.53070  Biso   1.000  O
  Cu51     1.0000 0.84638  0.70199  0.82163  Biso   1.000  Cu
  O116     1.0000 0.89680  0.63310  0.88490  Biso   1.000  O
  O117     1.0000 0.86490  0.55800  0.77420  Biso   1.000  O
  O118     1.0000 0.88480  0.43310  0.91310  Biso   1.000  O
  O119     1.0000 0.91730  0.35810  0.84900  Biso   1.000  O
  C41      1.0000 0.89960  0.57870  0.84770  Biso   1.000  C
  C42      1.0000 0.94750  0.53710  0.89700  Biso   1.000  C
  H96      1.0000 0.95200  0.53270  0.95940  Biso   1.000  H
  H97      1.0000 0.97740  0.56120  0.89710  Biso   1.000  H
  C43      1.0000 0.91480  0.41750  0.87840  Biso   1.000  C
  C44      1.0000 0.94760  0.46840  0.86010  Biso   1.000  C
  H98      1.0000 0.93630  0.47200  0.79520  Biso   1.000  H
  H99      1.0000 0.98330  0.45230  0.88470  Biso   1.000  H
  Cu52     1.0000 0.87593  0.28192  0.85248  Biso   1.000  Cu
  Cu53     1.0000 0.86287  0.79836  0.49529  Biso   1.000  Cu
  Cu54     1.0000 0.85348  0.79416  0.68644  Biso   1.000  Cu
  O120     1.0000 0.86570  0.70090  0.71690  Biso   1.000  O
  H100     1.0000 0.90210  0.68800  0.73370  Biso   1.000  H
  O121     1.0000 0.89960  0.80340  0.62520  Biso   1.000  O
  H101     1.0000 0.93360  0.78120  0.65260  Biso   1.000  H
  Cu55     1.0000 0.81584  0.63003  0.64712  Biso   1.000  Cu
  Cu56     1.0000 0.73814  0.74415  0.69683  Biso   1.000  Cu
  O122     1.0000 0.77390  0.65990  0.70990  Biso   1.000  O
  H102     1.0000 0.75790  0.62330  0.72970  Biso   1.000  H
  O123     1.0000 0.70240  0.82860  0.66870  Biso   1.000  O
  H103     1.0000 0.71540  0.86240  0.71640  Biso   1.000  H
  Cu57     1.0000 0.78412  0.90341  0.53900  Biso   1.000  Cu
  Cu58     1.0000 0.82794  0.63655  0.45523  Biso   1.000  Cu
  O124     1.0000 0.85470  0.60280  0.57630  Biso   1.000  O
  H104     1.0000 0.88750  0.59860  0.60400  Biso   1.000  H
  Cu59     1.0000 0.80254  0.50101  0.53128  Biso   1.000  Cu
  O125     1.0000 0.74150  0.73520  0.84330  Biso   1.000  O
  O126     1.0000 0.82620  0.71240  0.92350  Biso   1.000  O
  C45      1.0000 0.78190  0.72980  0.91650  Biso   1.000  C
  C46      1.0000 0.77550  0.73980  0.00220  Biso   1.000  C
  H105     1.0000 0.80060  0.77320  0.03720  Biso   1.000  H
  H106     1.0000 0.78490  0.69830  0.03600  Biso   1.000  H
  O127     1.0000 0.80970  0.78340  0.75350  Biso   1.000  O
  H107     1.0000 0.81190  0.82150  0.79300  Biso   1.000  H
  O128     1.0000 0.83910  0.88890  0.65930  Biso   1.000  O
  H108     1.0000 0.83580  0.91540  0.70760  Biso   1.000  H
  O129     1.0000 0.72760  0.93320  0.57140  Biso   1.000  O
  O130     1.0000 0.84290  0.89260  0.50410  Biso   1.000  O
  H109     1.0000 0.84190  0.92170  0.45480  Biso   1.000  H
  O131     1.0000 0.88300  0.70730  0.47970  Biso   1.000  O
  H110     1.0000 0.91780  0.69410  0.52290  Biso   1.000  H
  O132     1.0000 0.83270  0.79500  0.36180  Biso   1.000  O
  H111     1.0000 0.83740  0.83610  0.33320  Biso   1.000  H
  O133     1.0000 0.76460  0.56210  0.57830  Biso   1.000  O
  H112     1.0000 0.74760  0.53970  0.61290  Biso   1.000  H
  Cu60     1.0000 0.89896  0.91516  0.62697  Biso   1.000  Cu
  O134     1.0000 0.94770  0.94990  0.57880  Biso   1.000  O
  C47      1.0000 0.99760  0.95830  0.49500  Biso   1.000  C
  H113     1.0000 0.03230  0.94050  0.52790  Biso   1.000  H
  H114     1.0000 0.98820  0.94820  0.43160  Biso   1.000  H
  C48      1.0000 0.96000  0.91700  0.52500  Biso   1.000  C
  O135     1.0000 0.94850  0.86020  0.48600  Biso   1.000  O
  O136     1.0000 0.76130  0.68640  0.49620  Biso   1.000  O
  O137     1.0000 0.79700  0.74010  0.51350  Biso   1.000  O
  O138     1.0000 0.78710  0.79000  0.53070  Biso   1.000  O
  Cu61     1.0000 0.65362  0.20199  0.67837  Biso   1.000  Cu
  O139     1.0000 0.60320  0.13310  0.61510  Biso   1.000  O
  O140     1.0000 0.63510  0.05800  0.72580  Biso   1.000  O
  O141     1.0000 0.61520  0.93310  0.58690  Biso   1.000  O
  O142     1.0000 0.58270  0.85810  0.65100  Biso   1.000  O
  C49      1.0000 0.60040  0.07870  0.65230  Biso   1.000  C
  C50      1.0000 0.55250  0.03710  0.60300  Biso   1.000  C
  H115     1.0000 0.54800  0.03270  0.54060  Biso   1.000  H
  H116     1.0000 0.52260  0.06120  0.60290  Biso   1.000  H
  C51      1.0000 0.58520  0.91750  0.62160  Biso   1.000  C
  C52      1.0000 0.55240  0.96840  0.63990  Biso   1.000  C
  H117     1.0000 0.56370  0.97200  0.70480  Biso   1.000  H
  H118     1.0000 0.51670  0.95230  0.61530  Biso   1.000  H
  Cu62     1.0000 0.62407  0.78192  0.64752  Biso   1.000  Cu
  Cu63     1.0000 0.63713  0.29836  0.00471  Biso   1.000  Cu
  Cu64     1.0000 0.64652  0.29416  0.81356  Biso   1.000  Cu
  O143     1.0000 0.63430  0.20090  0.78310  Biso   1.000  O
  H119     1.0000 0.59790  0.18800  0.76630  Biso   1.000  H
  O144     1.0000 0.60040  0.30340  0.87480  Biso   1.000  O
  H120     1.0000 0.56640  0.28120  0.84740  Biso   1.000  H
  Cu65     1.0000 0.68416  0.13003  0.85288  Biso   1.000  Cu
  Cu66     1.0000 0.76186  0.24415  0.80317  Biso   1.000  Cu
  O145     1.0000 0.72610  0.15990  0.79010  Biso   1.000  O
  H121     1.0000 0.74210  0.12330  0.77030  Biso   1.000  H
  O146     1.0000 0.79760  0.32860  0.83130  Biso   1.000  O
  H122     1.0000 0.78460  0.36240  0.78360  Biso   1.000  H
  Cu67     1.0000 0.71588  0.40341  0.96100  Biso   1.000  Cu
  Cu68     1.0000 0.67206  0.13655  0.04477  Biso   1.000  Cu
  O147     1.0000 0.64530  0.10280  0.92370  Biso   1.000  O
  H123     1.0000 0.61250  0.09860  0.89600  Biso   1.000  H
  Cu69     1.0000 0.69746  0.00101  0.96872  Biso   1.000  Cu
  O148     1.0000 0.75850  0.23520  0.65670  Biso   1.000  O
  O149     1.0000 0.67380  0.21240  0.57650  Biso   1.000  O
  C53      1.0000 0.71810  0.22980  0.58350  Biso   1.000  C
  C54      1.0000 0.72450  0.23980  0.49780  Biso   1.000  C
  H124     1.0000 0.69940  0.27320  0.46280  Biso   1.000  H
  H125     1.0000 0.71510  0.19830  0.46400  Biso   1.000  H
  O150     1.0000 0.69030  0.28340  0.74650  Biso   1.000  O
  H126     1.0000 0.68810  0.32150  0.70700  Biso   1.000  H
  O151     1.0000 0.66090  0.38890  0.84070  Biso   1.000  O
  H127     1.0000 0.66420  0.41540  0.79240  Biso   1.000  H
  O152     1.0000 0.77240  0.43320  0.92860  Biso   1.000  O
  O153     1.0000 0.65710  0.39260  0.99590  Biso   1.000  O
  H128     1.0000 0.65810  0.42170  0.04520  Biso   1.000  H
  O154     1.0000 0.61700  0.20730  0.02030  Biso   1.000  O
  H129     1.0000 0.58220  0.19410  0.97710  Biso   1.000  H
  O155     1.0000 0.66730  0.29500  0.13820  Biso   1.000  O
  H130     1.0000 0.66260  0.33610  0.16680  Biso   1.000  H
  O156     1.0000 0.73540  0.06210  0.92170  Biso   1.000  O
  H131     1.0000 0.75240  0.03970  0.88710  Biso   1.000  H
  Cu70     1.0000 0.60104  0.41516  0.87303  Biso   1.000  Cu
  O157     1.0000 0.55230  0.44990  0.92120  Biso   1.000  O
  C55      1.0000 0.50240  0.45830  0.00500  Biso   1.000  C
  H132     1.0000 0.46770  0.44050  0.97210  Biso   1.000  H
  H133     1.0000 0.51180  0.44820  0.06840  Biso   1.000  H
  C56      1.0000 0.54000  0.41700  0.97500  Biso   1.000  C
  O158     1.0000 0.55150  0.36020  0.01400  Biso   1.000  O
  O159     1.0000 0.73870  0.18640  0.00380  Biso   1.000  O
  O160     1.0000 0.70300  0.24010  0.98650  Biso   1.000  O
  O161     1.0000 0.71290  0.29000  0.96930  Biso   1.000  O
  Cu71     1.0000 0.15362  0.70199  0.67837  Biso   1.000  Cu
  O162     1.0000 0.10320  0.63310  0.61510  Biso   1.000  O
  O163     1.0000 0.13510  0.55800  0.72580  Biso   1.000  O
  O164     1.0000 0.11520  0.43310  0.58690  Biso   1.000  O
  O165     1.0000 0.08270  0.35810  0.65100  Biso   1.000  O
  C57      1.0000 0.10040  0.57870  0.65230  Biso   1.000  C
  C58      1.0000 0.05250  0.53710  0.60300  Biso   1.000  C
  H134     1.0000 0.04800  0.53270  0.54060  Biso   1.000  H
  H135     1.0000 0.02260  0.56120  0.60290  Biso   1.000  H
  C59      1.0000 0.08520  0.41750  0.62160  Biso   1.000  C
  C60      1.0000 0.05240  0.46840  0.63990  Biso   1.000  C
  H136     1.0000 0.06370  0.47200  0.70480  Biso   1.000  H
  H137     1.0000 0.01670  0.45230  0.61530  Biso   1.000  H
  Cu72     1.0000 0.12407  0.28192  0.64752  Biso   1.000  Cu
  Cu73     1.0000 0.13713  0.79836  0.00471  Biso   1.000  Cu
  Cu74     1.0000 0.14652  0.79416  0.81356  Biso   1.000  Cu
  O166     1.0000 0.13430  0.70090  0.78310  Biso   1.000  O
  H138     1.0000 0.09790  0.68800  0.76630  Biso   1.000  H
  O167     1.0000 0.10040  0.80340  0.87480  Biso   1.000  O
  H139     1.0000 0.06640  0.78120  0.84740  Biso   1.000  H
  Cu75     1.0000 0.18416  0.63003  0.85288  Biso   1.000  Cu
  Cu76     1.0000 0.26186  0.74415  0.80317  Biso   1.000  Cu
  O168     1.0000 0.22610  0.65990  0.79010  Biso   1.000  O
  H140     1.0000 0.24210  0.62330  0.77030  Biso   1.000  H
  O169     1.0000 0.29760  0.82860  0.83130  Biso   1.000  O
  H141     1.0000 0.28460  0.86240  0.78360  Biso   1.000  H
  Cu77     1.0000 0.21588  0.90341  0.96100  Biso   1.000  Cu
  Cu78     1.0000 0.17206  0.63655  0.04477  Biso   1.000  Cu
  O170     1.0000 0.14530  0.60280  0.92370  Biso   1.000  O
  H142     1.0000 0.11250  0.59860  0.89600  Biso   1.000  H
  Cu79     1.0000 0.19746  0.50101  0.96872  Biso   1.000  Cu
  O171     1.0000 0.25850  0.73520  0.65670  Biso   1.000  O
  O172     1.0000 0.17380  0.71240  0.57650  Biso   1.000  O
  C61      1.0000 0.21810  0.72980  0.58350  Biso   1.000  C
  C62      1.0000 0.22450  0.73980  0.49780  Biso   1.000  C
  H143     1.0000 0.19940  0.77320  0.46280  Biso   1.000  H
  H144     1.0000 0.21510  0.69830  0.46400  Biso   1.000  H
  O173     1.0000 0.19030  0.78340  0.74650  Biso   1.000  O
  H145     1.0000 0.18810  0.82150  0.70700  Biso   1.000  H
  O174     1.0000 0.16090  0.88890  0.84070  Biso   1.000  O
  H146     1.0000 0.16420  0.91540  0.79240  Biso   1.000  H
  O175     1.0000 0.27240  0.93320  0.92860  Biso   1.000  O
  O176     1.0000 0.15710  0.89260  0.99590  Biso   1.000  O
  H147     1.0000 0.15810  0.92170  0.04520  Biso   1.000  H
  O177     1.0000 0.11700  0.70730  0.02030  Biso   1.000  O
  H148     1.0000 0.08220  0.69410  0.97710  Biso   1.000  H
  O178     1.0000 0.16730  0.79500  0.13820  Biso   1.000  O
  H149     1.0000 0.16260  0.83610  0.16680  Biso   1.000  H
  O179     1.0000 0.23540  0.56210  0.92170  Biso   1.000  O
  H150     1.0000 0.25240  0.53970  0.88710  Biso   1.000  H
  Cu80     1.0000 0.10104  0.91516  0.87303  Biso   1.000  Cu
  O180     1.0000 0.05230  0.94990  0.92120  Biso   1.000  O
  C63      1.0000 0.00240  0.95830  0.00500  Biso   1.000  C
  H151     1.0000 0.96770  0.94050  0.97210  Biso   1.000  H
  H152     1.0000 0.01180  0.94820  0.06840  Biso   1.000  H
  C64      1.0000 0.04000  0.91700  0.97500  Biso   1.000  C
  O181     1.0000 0.05150  0.86020  0.01400  Biso   1.000  O
  O182     1.0000 0.23870  0.68640  0.00380  Biso   1.000  O
  O183     1.0000 0.20300  0.74010  0.98650  Biso   1.000  O
  O184     1.0000 0.21290  0.79000  0.96930  Biso   1.000  O
  C65      1.0000 0.75000  0.75000  0.50000  Biso   1.000  C
  C66      1.0000 0.25000  0.75000  0.00000  Biso   1.000  C
  C67      1.0000 0.25000  0.25000  0.50000  Biso   1.000  C
  C68      1.0000 0.75000  0.25000  0.00000  Biso   1.000  C
