data_image0
_cell_length_a       9.1425
_cell_length_b       9.1425
_cell_length_c       12.663
_cell_angle_alpha    90
_cell_angle_beta     90
_cell_angle_gamma    90

_symmetry_space_group_name_H-M    "P 1"
_symmetry_int_tables_number       1

loop_
  _symmetry_equiv_pos_as_xyz
  'x, y, z'

loop_
  _atom_site_label
  _atom_site_occupancy
  _atom_site_fract_x
  _atom_site_fract_y
  _atom_site_fract_z
  _atom_site_thermal_displace_type
  _atom_site_B_iso_or_equiv
  _atom_site_type_symbol
  O1       1.0000 0.23700  0.03200  0.33680  Biso   1.000  O
  C1       1.0000 0.54500  0.03000  0.34100  Biso   1.000  C
  H1       1.0000 0.49440  0.04850  0.40330  Biso   1.000  H
  C2       1.0000 0.69100  0.03400  0.34200  Biso   1.000  C
  H2       1.0000 0.74060  0.05940  0.40390  Biso   1.000  H
  Zn1      1.0000 0.03480  0.95840  0.37510  Biso   1.000  Zn
  O2       1.0000 0.07900  0.03000  0.24800  Biso   1.000  O
  C3       1.0000 0.47000  0.01500  0.34470  Biso   1.000  C
  C4       1.0000 0.31800  0.00900  0.34600  Biso   1.000  C
  C5       1.0000 0.24200  0.99000  0.25200  Biso   1.000  C
  O3       1.0000 0.75500  0.00200  0.34200  Biso   1.000  O
  H3       1.0000 0.52080  0.03100  0.40730  Biso   1.000  H
  H4       1.0000 0.26470  0.03100  0.40730  Biso   1.000  H
  C6       1.0000 0.31700  0.97000  0.15700  Biso   1.000  C
  C7       1.0000 0.46900  0.97800  0.15600  Biso   1.000  C
  O4       1.0000 0.23900  0.97700  0.33710  Biso   1.000  O
  C8       1.0000 0.54200  0.97000  0.34400  Biso   1.000  C
  H5       1.0000 0.49050  0.95160  0.40550  Biso   1.000  H
  C9       1.0000 0.68500  0.96800  0.34500  Biso   1.000  C
  H6       1.0000 0.73310  0.94560  0.40780  Biso   1.000  H
  O5       1.0000 0.76300  0.96800  0.83680  Biso   1.000  O
  C10      1.0000 0.45500  0.97000  0.84100  Biso   1.000  C
  H7       1.0000 0.50560  0.95150  0.90330  Biso   1.000  H
  C11      1.0000 0.30900  0.96600  0.84200  Biso   1.000  C
  H8       1.0000 0.25940  0.94060  0.90390  Biso   1.000  H
  Zn2      1.0000 0.96520  0.04160  0.87510  Biso   1.000  Zn
  O6       1.0000 0.92100  0.97000  0.74800  Biso   1.000  O
  C12      1.0000 0.53000  0.98500  0.84470  Biso   1.000  C
  C13      1.0000 0.68200  0.99100  0.84600  Biso   1.000  C
  C14      1.0000 0.75800  0.01000  0.75200  Biso   1.000  C
  O7       1.0000 0.24500  0.99800  0.84200  Biso   1.000  O
  H9       1.0000 0.47920  0.96900  0.90730  Biso   1.000  H
  H10      1.0000 0.73530  0.96900  0.90730  Biso   1.000  H
  C15      1.0000 0.68300  0.03000  0.65700  Biso   1.000  C
  C16      1.0000 0.53100  0.02200  0.65600  Biso   1.000  C
  O8       1.0000 0.76100  0.02300  0.83710  Biso   1.000  O
  C17      1.0000 0.45800  0.03000  0.84400  Biso   1.000  C
  H11      1.0000 0.50950  0.04840  0.90550  Biso   1.000  H
  C18      1.0000 0.31500  0.03200  0.84500  Biso   1.000  C
  H12      1.0000 0.26690  0.05440  0.90780  Biso   1.000  H
  O9       1.0000 0.96800  0.23700  0.58680  Biso   1.000  O
  C19      1.0000 0.97000  0.54500  0.59100  Biso   1.000  C
  H13      1.0000 0.95150  0.49440  0.65330  Biso   1.000  H
  C20      1.0000 0.96600  0.69100  0.59200  Biso   1.000  C
  H14      1.0000 0.94060  0.74060  0.65390  Biso   1.000  H
  Zn3      1.0000 0.04160  0.03480  0.62510  Biso   1.000  Zn
  O10      1.0000 0.97000  0.07900  0.49800  Biso   1.000  O
  C21      1.0000 0.98500  0.47000  0.59470  Biso   1.000  C
  C22      1.0000 0.99100  0.31800  0.59600  Biso   1.000  C
  C23      1.0000 0.01000  0.24200  0.50200  Biso   1.000  C
  O11      1.0000 0.99800  0.75500  0.59200  Biso   1.000  O
  H15      1.0000 0.96900  0.52080  0.65730  Biso   1.000  H
  H16      1.0000 0.96900  0.26470  0.65730  Biso   1.000  H
  C24      1.0000 0.03000  0.31700  0.40700  Biso   1.000  C
  C25      1.0000 0.02200  0.46900  0.40600  Biso   1.000  C
  O12      1.0000 0.02300  0.23900  0.58710  Biso   1.000  O
  C26      1.0000 0.03000  0.54200  0.59400  Biso   1.000  C
  H17      1.0000 0.04840  0.49050  0.65550  Biso   1.000  H
  C27      1.0000 0.03200  0.68500  0.59500  Biso   1.000  C
  H18      1.0000 0.05440  0.73310  0.65780  Biso   1.000  H
  O13      1.0000 0.03200  0.76300  0.08680  Biso   1.000  O
  C28      1.0000 0.03000  0.45500  0.09100  Biso   1.000  C
  H19      1.0000 0.04850  0.50560  0.15330  Biso   1.000  H
  C29      1.0000 0.03400  0.30900  0.09200  Biso   1.000  C
  H20      1.0000 0.05940  0.25940  0.15390  Biso   1.000  H
  Zn4      1.0000 0.95840  0.96520  0.12510  Biso   1.000  Zn
  O14      1.0000 0.03000  0.92100  0.99800  Biso   1.000  O
  C30      1.0000 0.01500  0.53000  0.09470  Biso   1.000  C
  C31      1.0000 0.00900  0.68200  0.09600  Biso   1.000  C
  C32      1.0000 0.99000  0.75800  0.00200  Biso   1.000  C
  O15      1.0000 0.00200  0.24500  0.09200  Biso   1.000  O
  H21      1.0000 0.03100  0.47920  0.15730  Biso   1.000  H
  H22      1.0000 0.03100  0.73530  0.15730  Biso   1.000  H
  C33      1.0000 0.97000  0.68300  0.90700  Biso   1.000  C
  C34      1.0000 0.97800  0.53100  0.90600  Biso   1.000  C
  O16      1.0000 0.97700  0.76100  0.08710  Biso   1.000  O
  C35      1.0000 0.97000  0.45800  0.09400  Biso   1.000  C
  H23      1.0000 0.95160  0.50950  0.15550  Biso   1.000  H
  C36      1.0000 0.96800  0.31500  0.09500  Biso   1.000  C
  H24      1.0000 0.94560  0.26690  0.15780  Biso   1.000  H
  O17      1.0000 0.76300  0.03200  0.66320  Biso   1.000  O
  C37      1.0000 0.45500  0.03000  0.65900  Biso   1.000  C
  H25      1.0000 0.50560  0.04850  0.59670  Biso   1.000  H
  C38      1.0000 0.30900  0.03400  0.65800  Biso   1.000  C
  H26      1.0000 0.25940  0.05940  0.59610  Biso   1.000  H
  Zn5      1.0000 0.96520  0.95840  0.62490  Biso   1.000  Zn
  O18      1.0000 0.92100  0.03000  0.75200  Biso   1.000  O
  C39      1.0000 0.53000  0.01500  0.65530  Biso   1.000  C
  C40      1.0000 0.68200  0.00900  0.65400  Biso   1.000  C
  C41      1.0000 0.75800  0.99000  0.74800  Biso   1.000  C
  O19      1.0000 0.24500  0.00200  0.65800  Biso   1.000  O
  H27      1.0000 0.47920  0.03100  0.59270  Biso   1.000  H
  H28      1.0000 0.73530  0.03100  0.59270  Biso   1.000  H
  C42      1.0000 0.68300  0.97000  0.84300  Biso   1.000  C
  C43      1.0000 0.53100  0.97800  0.84400  Biso   1.000  C
  O20      1.0000 0.76100  0.97700  0.66290  Biso   1.000  O
  C44      1.0000 0.45800  0.97000  0.65600  Biso   1.000  C
  H29      1.0000 0.50950  0.95160  0.59450  Biso   1.000  H
  C45      1.0000 0.31500  0.96800  0.65500  Biso   1.000  C
  H30      1.0000 0.26690  0.94560  0.59220  Biso   1.000  H
  O21      1.0000 0.23700  0.96800  0.16320  Biso   1.000  O
  C46      1.0000 0.54500  0.97000  0.15900  Biso   1.000  C
  H31      1.0000 0.49440  0.95150  0.09670  Biso   1.000  H
  C47      1.0000 0.69100  0.96600  0.15800  Biso   1.000  C
  H32      1.0000 0.74060  0.94060  0.09610  Biso   1.000  H
  Zn6      1.0000 0.03480  0.04160  0.12490  Biso   1.000  Zn
  O22      1.0000 0.07900  0.97000  0.25200  Biso   1.000  O
  C48      1.0000 0.47000  0.98500  0.15530  Biso   1.000  C
  C49      1.0000 0.31800  0.99100  0.15400  Biso   1.000  C
  C50      1.0000 0.24200  0.01000  0.24800  Biso   1.000  C
  O23      1.0000 0.75500  0.99800  0.15800  Biso   1.000  O
  H33      1.0000 0.52080  0.96900  0.09270  Biso   1.000  H
  H34      1.0000 0.26470  0.96900  0.09270  Biso   1.000  H
  C51      1.0000 0.31700  0.03000  0.34300  Biso   1.000  C
  C52      1.0000 0.46900  0.02200  0.34400  Biso   1.000  C
  O24      1.0000 0.23900  0.02300  0.16290  Biso   1.000  O
  C53      1.0000 0.54200  0.03000  0.15600  Biso   1.000  C
  H35      1.0000 0.49050  0.04840  0.09450  Biso   1.000  H
  C54      1.0000 0.68500  0.03200  0.15500  Biso   1.000  C
  H36      1.0000 0.73310  0.05440  0.09220  Biso   1.000  H
  O25      1.0000 0.03200  0.23700  0.41320  Biso   1.000  O
  C55      1.0000 0.03000  0.54500  0.40900  Biso   1.000  C
  H37      1.0000 0.04850  0.49440  0.34670  Biso   1.000  H
  C56      1.0000 0.03400  0.69100  0.40800  Biso   1.000  C
  H38      1.0000 0.05940  0.74060  0.34610  Biso   1.000  H
  Zn7      1.0000 0.95840  0.03480  0.37490  Biso   1.000  Zn
  O26      1.0000 0.03000  0.07900  0.50200  Biso   1.000  O
  C57      1.0000 0.01500  0.47000  0.40530  Biso   1.000  C
  C58      1.0000 0.00900  0.31800  0.40400  Biso   1.000  C
  C59      1.0000 0.99000  0.24200  0.49800  Biso   1.000  C
  O27      1.0000 0.00200  0.75500  0.40800  Biso   1.000  O
  H39      1.0000 0.03100  0.52080  0.34270  Biso   1.000  H
  H40      1.0000 0.03100  0.26470  0.34270  Biso   1.000  H
  C60      1.0000 0.97000  0.31700  0.59300  Biso   1.000  C
  C61      1.0000 0.97800  0.46900  0.59400  Biso   1.000  C
  O28      1.0000 0.97700  0.23900  0.41290  Biso   1.000  O
  C62      1.0000 0.97000  0.54200  0.40600  Biso   1.000  C
  H41      1.0000 0.95160  0.49050  0.34450  Biso   1.000  H
  C63      1.0000 0.96800  0.68500  0.40500  Biso   1.000  C
  H42      1.0000 0.94560  0.73310  0.34220  Biso   1.000  H
  O29      1.0000 0.96800  0.76300  0.91320  Biso   1.000  O
  C64      1.0000 0.97000  0.45500  0.90900  Biso   1.000  C
  H43      1.0000 0.95150  0.50560  0.84670  Biso   1.000  H
  C65      1.0000 0.96600  0.30900  0.90800  Biso   1.000  C
  H44      1.0000 0.94060  0.25940  0.84610  Biso   1.000  H
  Zn8      1.0000 0.04160  0.96520  0.87490  Biso   1.000  Zn
  O30      1.0000 0.97000  0.92100  0.00200  Biso   1.000  O
  C66      1.0000 0.98500  0.53000  0.90530  Biso   1.000  C
  C67      1.0000 0.99100  0.68200  0.90400  Biso   1.000  C
  C68      1.0000 0.01000  0.75800  0.99800  Biso   1.000  C
  O31      1.0000 0.99800  0.24500  0.90800  Biso   1.000  O
  H45      1.0000 0.96900  0.47920  0.84270  Biso   1.000  H
  H46      1.0000 0.96900  0.73530  0.84270  Biso   1.000  H
  C69      1.0000 0.03000  0.68300  0.09300  Biso   1.000  C
  C70      1.0000 0.02200  0.53100  0.09400  Biso   1.000  C
  O32      1.0000 0.02300  0.76100  0.91290  Biso   1.000  O
  C71      1.0000 0.03000  0.45800  0.90600  Biso   1.000  C
  H47      1.0000 0.04840  0.50950  0.84450  Biso   1.000  H
  C72      1.0000 0.03200  0.31500  0.90500  Biso   1.000  C
  H48      1.0000 0.05440  0.26690  0.84220  Biso   1.000  H
  Zn9      1.0000 0.03670  0.03670  0.37500  Biso   1.000  Zn
  Zn10     1.0000 0.96330  0.96330  0.87500  Biso   1.000  Zn
  Zn11     1.0000 0.96330  0.03670  0.62500  Biso   1.000  Zn
  Zn12     1.0000 0.03670  0.96330  0.12500  Biso   1.000  Zn
  C73      1.0000 0.30100  0.00000  0.25000  Biso   1.000  C
  C74      1.0000 0.46400  0.00000  0.25000  Biso   1.000  C
  C75      1.0000 0.77100  0.00000  0.25000  Biso   1.000  C
  O33      1.0000 0.91690  0.00000  0.25000  Biso   1.000  O
  C76      1.0000 0.73100  0.00000  0.25000  Biso   1.000  C
  C77      1.0000 0.54600  0.00000  0.25000  Biso   1.000  C
  C78      1.0000 0.69900  0.00000  0.75000  Biso   1.000  C
  C79      1.0000 0.53600  0.00000  0.75000  Biso   1.000  C
  C80      1.0000 0.22900  0.00000  0.75000  Biso   1.000  C
  O34      1.0000 0.08310  0.00000  0.75000  Biso   1.000  O
  C81      1.0000 0.26900  0.00000  0.75000  Biso   1.000  C
  C82      1.0000 0.45400  0.00000  0.75000  Biso   1.000  C
  C83      1.0000 0.00000  0.30100  0.50000  Biso   1.000  C
  C84      1.0000 0.00000  0.46400  0.50000  Biso   1.000  C
  C85      1.0000 0.00000  0.77100  0.50000  Biso   1.000  C
  O35      1.0000 0.00000  0.91690  0.50000  Biso   1.000  O
  C86      1.0000 0.00000  0.73100  0.50000  Biso   1.000  C
  C87      1.0000 0.00000  0.54600  0.50000  Biso   1.000  C
  C88      1.0000 0.00000  0.69900  0.00000  Biso   1.000  C
  C89      1.0000 0.00000  0.53600  0.00000  Biso   1.000  C
  C90      1.0000 0.00000  0.22900  0.00000  Biso   1.000  C
  O36      1.0000 0.00000  0.08310  0.00000  Biso   1.000  O
  C91      1.0000 0.00000  0.26900  0.00000  Biso   1.000  C
  C92      1.0000 0.00000  0.45400  0.00000  Biso   1.000  C
