data_image0
_cell_length_a       22.907
_cell_length_b       15.215
_cell_length_c       25.128
_cell_angle_alpha    90
_cell_angle_beta     102.677
_cell_angle_gamma    90

_symmetry_space_group_name_H-M    "P 1"
_symmetry_int_tables_number       1

loop_
  _symmetry_equiv_pos_as_xyz
  'x, y, z'

loop_
  _atom_site_label
  _atom_site_occupancy
  _atom_site_fract_x
  _atom_site_fract_y
  _atom_site_fract_z
  _atom_site_thermal_displace_type
  _atom_site_B_iso_or_equiv
  _atom_site_type_symbol
  Gd1      1.0000 0.85954  0.23614  0.01439  Biso   1.000  Gd
  C1       1.0000 0.73140  0.19440  0.90885  Biso   1.000  C
  C2       1.0000 0.74460  0.16000  0.85660  Biso   1.000  C
  C3       1.0000 0.80180  0.13250  0.85450  Biso   1.000  C
  H1       1.0000 0.83250  0.13480  0.88560  Biso   1.000  H
  C4       1.0000 0.81290  0.10160  0.80596  Biso   1.000  C
  C5       1.0000 0.76940  0.09680  0.75743  Biso   1.000  C
  C6       1.0000 0.71270  0.12530  0.76148  Biso   1.000  C
  C7       1.0000 0.69980  0.15540  0.80976  Biso   1.000  C
  H2       1.0000 0.66110  0.17260  0.81060  Biso   1.000  H
  C8       1.0000 0.78350  0.06410  0.70513  Biso   1.000  C
  C9       1.0000 0.78680  0.97540  0.69286  Biso   1.000  C
  C10      1.0000 0.80190  0.94440  0.64588  Biso   1.000  C
  H3       1.0000 0.80330  0.88430  0.63960  Biso   1.000  H
  C11      1.0000 0.81490  0.00330  0.60836  Biso   1.000  C
  C12      1.0000 0.81190  0.09210  0.61821  Biso   1.000  C
  H4       1.0000 0.82040  0.13270  0.59330  Biso   1.000  H
  C13      1.0000 0.79630  0.12050  0.66558  Biso   1.000  C
  C14      1.0000 0.83530  0.96990  0.55865  Biso   1.000  C
  C15      1.0000 0.87300  0.32510  0.89310  Biso   1.000  C
  C16      1.0000 0.95920  0.26800  0.85630  Biso   1.000  C
  H5       1.0000 0.96960  0.23220  0.88690  Biso   1.000  H
  C17      1.0000 0.91030  0.32230  0.85010  Biso   1.000  C
  C18      1.0000 0.89550  0.37460  0.80450  Biso   1.000  C
  H6       1.0000 0.86210  0.41100  0.79930  Biso   1.000  H
  C19      1.0000 0.93110  0.37240  0.76632  Biso   1.000  C
  C20      1.0000 0.98090  0.31920  0.77090  Biso   1.000  C
  C21      1.0000 0.99260  0.26690  0.81690  Biso   1.000  C
  N1       1.0000 0.87468  0.07380  0.80773  Biso   1.000  N
  N2       1.0000 0.66240  0.12200  0.71396  Biso   1.000  N
  N3       1.0000 0.77690  0.90920  0.73279  Biso   1.000  N
  N4       1.0000 0.79600  0.21590  0.67425  Biso   1.000  N
  N5       1.0000 0.91380  0.42900  0.71950  Biso   1.000  N
  N6       1.0000 0.03420  0.19140  0.81390  Biso   1.000  N
  O1       1.0000 0.77431  0.19930  0.94925  Biso   1.000  O
  O2       1.0000 0.67837  0.21470  0.90859  Biso   1.000  O
  O3       1.0000 0.61570  0.16560  0.71720  Biso   1.000  O
  O4       1.0000 0.67610  0.13860  0.66830  Biso   1.000  O
  O5       1.0000 0.90790  0.06320  0.84930  Biso   1.000  O
  O6       1.0000 0.89180  0.09120  0.76300  Biso   1.000  O
  O7       1.0000 0.76960  0.25850  0.62880  Biso   1.000  O
  O8       1.0000 0.82320  0.24070  0.72550  Biso   1.000  O
  O9       1.0000 0.74311  0.92850  0.76268  Biso   1.000  O
  O10      1.0000 0.80352  0.83890  0.73381  Biso   1.000  O
  O11      1.0000 0.81671  0.89400  0.54239  Biso   1.000  O
  O12      1.0000 0.86862  0.01740  0.53812  Biso   1.000  O
  O13      1.0000 0.89297  0.28120  0.93568  Biso   1.000  O
  O14      1.0000 0.82703  0.37090  0.88304  Biso   1.000  O
  O15      1.0000 0.06240  0.17460  0.86320  Biso   1.000  O
  O16      1.0000 0.04570  0.16300  0.77300  Biso   1.000  O
  O17      1.0000 0.91530  0.38440  0.67470  Biso   1.000  O
  O18      1.0000 0.88750  0.48790  0.71930  Biso   1.000  O
  N7       1.0000 0.05470  0.22190  0.83720  Biso   1.000  N
  O19      1.0000 0.61420  0.11220  0.71850  Biso   1.000  O
  O20      1.0000 0.66510  0.07450  0.67640  Biso   1.000  O
  O21      1.0000 0.91580  0.10230  0.84180  Biso   1.000  O
  O22      1.0000 0.88170  0.00600  0.77960  Biso   1.000  O
  O23      1.0000 0.79410  0.26570  0.63840  Biso   1.000  O
  O24      1.0000 0.79600  0.24640  0.71570  Biso   1.000  O
  O25      1.0000 0.05110  0.14880  0.85570  Biso   1.000  O
  O26      1.0000 0.09980  0.25710  0.82830  Biso   1.000  O
  O27      1.0000 0.96270  0.48790  0.71500  Biso   1.000  O
  O28      1.0000 0.86650  0.45890  0.69910  Biso   1.000  O
  Gd2      1.0000 0.35954  0.73614  0.01439  Biso   1.000  Gd
  C22      1.0000 0.23140  0.69440  0.90885  Biso   1.000  C
  C23      1.0000 0.24460  0.66000  0.85660  Biso   1.000  C
  C24      1.0000 0.30180  0.63250  0.85450  Biso   1.000  C
  H7       1.0000 0.33250  0.63480  0.88560  Biso   1.000  H
  C25      1.0000 0.31290  0.60160  0.80596  Biso   1.000  C
  C26      1.0000 0.26940  0.59680  0.75743  Biso   1.000  C
  C27      1.0000 0.21270  0.62530  0.76148  Biso   1.000  C
  C28      1.0000 0.19980  0.65540  0.80976  Biso   1.000  C
  H8       1.0000 0.16110  0.67260  0.81060  Biso   1.000  H
  C29      1.0000 0.28350  0.56410  0.70513  Biso   1.000  C
  C30      1.0000 0.28680  0.47540  0.69286  Biso   1.000  C
  C31      1.0000 0.30190  0.44440  0.64588  Biso   1.000  C
  H9       1.0000 0.30330  0.38430  0.63960  Biso   1.000  H
  C32      1.0000 0.31490  0.50330  0.60836  Biso   1.000  C
  C33      1.0000 0.31190  0.59210  0.61821  Biso   1.000  C
  H10      1.0000 0.32040  0.63270  0.59330  Biso   1.000  H
  C34      1.0000 0.29630  0.62050  0.66558  Biso   1.000  C
  C35      1.0000 0.33530  0.46990  0.55865  Biso   1.000  C
  C36      1.0000 0.37300  0.82510  0.89310  Biso   1.000  C
  C37      1.0000 0.45920  0.76800  0.85630  Biso   1.000  C
  H11      1.0000 0.46960  0.73220  0.88690  Biso   1.000  H
  C38      1.0000 0.41030  0.82230  0.85010  Biso   1.000  C
  C39      1.0000 0.39550  0.87460  0.80450  Biso   1.000  C
  H12      1.0000 0.36210  0.91100  0.79930  Biso   1.000  H
  C40      1.0000 0.43110  0.87240  0.76632  Biso   1.000  C
  C41      1.0000 0.48090  0.81920  0.77090  Biso   1.000  C
  C42      1.0000 0.49260  0.76690  0.81690  Biso   1.000  C
  N8       1.0000 0.37468  0.57380  0.80773  Biso   1.000  N
  N9       1.0000 0.16240  0.62200  0.71396  Biso   1.000  N
  N10      1.0000 0.27690  0.40920  0.73279  Biso   1.000  N
  N11      1.0000 0.29600  0.71590  0.67425  Biso   1.000  N
  N12      1.0000 0.41380  0.92900  0.71950  Biso   1.000  N
  N13      1.0000 0.53420  0.69140  0.81390  Biso   1.000  N
  O29      1.0000 0.27431  0.69930  0.94925  Biso   1.000  O
  O30      1.0000 0.17837  0.71470  0.90859  Biso   1.000  O
  O31      1.0000 0.11570  0.66560  0.71720  Biso   1.000  O
  O32      1.0000 0.17610  0.63860  0.66830  Biso   1.000  O
  O33      1.0000 0.40790  0.56320  0.84930  Biso   1.000  O
  O34      1.0000 0.39180  0.59120  0.76300  Biso   1.000  O
  O35      1.0000 0.26960  0.75850  0.62880  Biso   1.000  O
  O36      1.0000 0.32320  0.74070  0.72550  Biso   1.000  O
  O37      1.0000 0.24311  0.42850  0.76268  Biso   1.000  O
  O38      1.0000 0.30352  0.33890  0.73381  Biso   1.000  O
  O39      1.0000 0.31671  0.39400  0.54239  Biso   1.000  O
  O40      1.0000 0.36862  0.51740  0.53812  Biso   1.000  O
  O41      1.0000 0.39297  0.78120  0.93568  Biso   1.000  O
  O42      1.0000 0.32703  0.87090  0.88304  Biso   1.000  O
  O43      1.0000 0.56240  0.67460  0.86320  Biso   1.000  O
  O44      1.0000 0.54570  0.66300  0.77300  Biso   1.000  O
  O45      1.0000 0.41530  0.88440  0.67470  Biso   1.000  O
  O46      1.0000 0.38750  0.98790  0.71930  Biso   1.000  O
  N14      1.0000 0.55470  0.72190  0.83720  Biso   1.000  N
  O47      1.0000 0.11420  0.61220  0.71850  Biso   1.000  O
  O48      1.0000 0.16510  0.57450  0.67640  Biso   1.000  O
  O49      1.0000 0.41580  0.60230  0.84180  Biso   1.000  O
  O50      1.0000 0.38170  0.50600  0.77960  Biso   1.000  O
  O51      1.0000 0.29410  0.76570  0.63840  Biso   1.000  O
  O52      1.0000 0.29600  0.74640  0.71570  Biso   1.000  O
  O53      1.0000 0.55110  0.64880  0.85570  Biso   1.000  O
  O54      1.0000 0.59980  0.75710  0.82830  Biso   1.000  O
  O55      1.0000 0.46270  0.98790  0.71500  Biso   1.000  O
  O56      1.0000 0.36650  0.95890  0.69910  Biso   1.000  O
  Gd3      1.0000 0.14046  0.23614  0.48561  Biso   1.000  Gd
  C43      1.0000 0.26860  0.19440  0.59115  Biso   1.000  C
  C44      1.0000 0.25540  0.16000  0.64340  Biso   1.000  C
  C45      1.0000 0.19820  0.13250  0.64550  Biso   1.000  C
  H13      1.0000 0.16750  0.13480  0.61440  Biso   1.000  H
  C46      1.0000 0.18710  0.10160  0.69404  Biso   1.000  C
  C47      1.0000 0.23060  0.09680  0.74257  Biso   1.000  C
  C48      1.0000 0.28730  0.12530  0.73852  Biso   1.000  C
  C49      1.0000 0.30020  0.15540  0.69024  Biso   1.000  C
  H14      1.0000 0.33890  0.17260  0.68940  Biso   1.000  H
  C50      1.0000 0.21650  0.06410  0.79487  Biso   1.000  C
  C51      1.0000 0.21320  0.97540  0.80714  Biso   1.000  C
  C52      1.0000 0.19810  0.94440  0.85412  Biso   1.000  C
  H15      1.0000 0.19670  0.88430  0.86040  Biso   1.000  H
  C53      1.0000 0.18510  0.00330  0.89164  Biso   1.000  C
  C54      1.0000 0.18810  0.09210  0.88179  Biso   1.000  C
  H16      1.0000 0.17960  0.13270  0.90670  Biso   1.000  H
  C55      1.0000 0.20370  0.12050  0.83442  Biso   1.000  C
  C56      1.0000 0.16470  0.96990  0.94135  Biso   1.000  C
  C57      1.0000 0.12700  0.32510  0.60690  Biso   1.000  C
  C58      1.0000 0.04080  0.26800  0.64370  Biso   1.000  C
  H17      1.0000 0.03040  0.23220  0.61310  Biso   1.000  H
  C59      1.0000 0.08970  0.32230  0.64990  Biso   1.000  C
  C60      1.0000 0.10450  0.37460  0.69550  Biso   1.000  C
  H18      1.0000 0.13790  0.41100  0.70070  Biso   1.000  H
  C61      1.0000 0.06890  0.37240  0.73368  Biso   1.000  C
  C62      1.0000 0.01910  0.31920  0.72910  Biso   1.000  C
  C63      1.0000 0.00740  0.26690  0.68310  Biso   1.000  C
  N15      1.0000 0.12532  0.07380  0.69227  Biso   1.000  N
  N16      1.0000 0.33760  0.12200  0.78604  Biso   1.000  N
  N17      1.0000 0.22310  0.90920  0.76721  Biso   1.000  N
  N18      1.0000 0.20400  0.21590  0.82575  Biso   1.000  N
  N19      1.0000 0.08620  0.42900  0.78050  Biso   1.000  N
  N20      1.0000 0.96580  0.19140  0.68610  Biso   1.000  N
  O57      1.0000 0.22569  0.19930  0.55075  Biso   1.000  O
  O58      1.0000 0.32163  0.21470  0.59141  Biso   1.000  O
  O59      1.0000 0.38430  0.16560  0.78280  Biso   1.000  O
  O60      1.0000 0.32390  0.13860  0.83170  Biso   1.000  O
  O61      1.0000 0.09210  0.06320  0.65070  Biso   1.000  O
  O62      1.0000 0.10820  0.09120  0.73700  Biso   1.000  O
  O63      1.0000 0.23040  0.25850  0.87120  Biso   1.000  O
  O64      1.0000 0.17680  0.24070  0.77450  Biso   1.000  O
  O65      1.0000 0.25689  0.92850  0.73732  Biso   1.000  O
  O66      1.0000 0.19648  0.83890  0.76619  Biso   1.000  O
  O67      1.0000 0.18329  0.89400  0.95761  Biso   1.000  O
  O68      1.0000 0.13138  0.01740  0.96188  Biso   1.000  O
  O69      1.0000 0.10703  0.28120  0.56432  Biso   1.000  O
  O70      1.0000 0.17297  0.37090  0.61696  Biso   1.000  O
  O71      1.0000 0.93760  0.17460  0.63680  Biso   1.000  O
  O72      1.0000 0.95430  0.16300  0.72700  Biso   1.000  O
  O73      1.0000 0.08470  0.38440  0.82530  Biso   1.000  O
  O74      1.0000 0.11250  0.48790  0.78070  Biso   1.000  O
  N21      1.0000 0.94530  0.22190  0.66280  Biso   1.000  N
  O75      1.0000 0.38580  0.11220  0.78150  Biso   1.000  O
  O76      1.0000 0.33490  0.07450  0.82360  Biso   1.000  O
  O77      1.0000 0.08420  0.10230  0.65820  Biso   1.000  O
  O78      1.0000 0.11830  0.00600  0.72040  Biso   1.000  O
  O79      1.0000 0.20590  0.26570  0.86160  Biso   1.000  O
  O80      1.0000 0.20400  0.24640  0.78430  Biso   1.000  O
  O81      1.0000 0.94890  0.14880  0.64430  Biso   1.000  O
  O82      1.0000 0.90020  0.25710  0.67170  Biso   1.000  O
  O83      1.0000 0.03730  0.48790  0.78500  Biso   1.000  O
  O84      1.0000 0.13350  0.45890  0.80090  Biso   1.000  O
  Gd4      1.0000 0.64046  0.73614  0.48561  Biso   1.000  Gd
  C64      1.0000 0.76860  0.69440  0.59115  Biso   1.000  C
  C65      1.0000 0.75540  0.66000  0.64340  Biso   1.000  C
  C66      1.0000 0.69820  0.63250  0.64550  Biso   1.000  C
  H19      1.0000 0.66750  0.63480  0.61440  Biso   1.000  H
  C67      1.0000 0.68710  0.60160  0.69404  Biso   1.000  C
  C68      1.0000 0.73060  0.59680  0.74257  Biso   1.000  C
  C69      1.0000 0.78730  0.62530  0.73852  Biso   1.000  C
  C70      1.0000 0.80020  0.65540  0.69024  Biso   1.000  C
  H20      1.0000 0.83890  0.67260  0.68940  Biso   1.000  H
  C71      1.0000 0.71650  0.56410  0.79487  Biso   1.000  C
  C72      1.0000 0.71320  0.47540  0.80714  Biso   1.000  C
  C73      1.0000 0.69810  0.44440  0.85412  Biso   1.000  C
  H21      1.0000 0.69670  0.38430  0.86040  Biso   1.000  H
  C74      1.0000 0.68510  0.50330  0.89164  Biso   1.000  C
  C75      1.0000 0.68810  0.59210  0.88179  Biso   1.000  C
  H22      1.0000 0.67960  0.63270  0.90670  Biso   1.000  H
  C76      1.0000 0.70370  0.62050  0.83442  Biso   1.000  C
  C77      1.0000 0.66470  0.46990  0.94135  Biso   1.000  C
  C78      1.0000 0.62700  0.82510  0.60690  Biso   1.000  C
  C79      1.0000 0.54080  0.76800  0.64370  Biso   1.000  C
  H23      1.0000 0.53040  0.73220  0.61310  Biso   1.000  H
  C80      1.0000 0.58970  0.82230  0.64990  Biso   1.000  C
  C81      1.0000 0.60450  0.87460  0.69550  Biso   1.000  C
  H24      1.0000 0.63790  0.91100  0.70070  Biso   1.000  H
  C82      1.0000 0.56890  0.87240  0.73368  Biso   1.000  C
  C83      1.0000 0.51910  0.81920  0.72910  Biso   1.000  C
  C84      1.0000 0.50740  0.76690  0.68310  Biso   1.000  C
  N22      1.0000 0.62532  0.57380  0.69227  Biso   1.000  N
  N23      1.0000 0.83760  0.62200  0.78604  Biso   1.000  N
  N24      1.0000 0.72310  0.40920  0.76721  Biso   1.000  N
  N25      1.0000 0.70400  0.71590  0.82575  Biso   1.000  N
  N26      1.0000 0.58620  0.92900  0.78050  Biso   1.000  N
  N27      1.0000 0.46580  0.69140  0.68610  Biso   1.000  N
  O85      1.0000 0.72569  0.69930  0.55075  Biso   1.000  O
  O86      1.0000 0.82163  0.71470  0.59141  Biso   1.000  O
  O87      1.0000 0.88430  0.66560  0.78280  Biso   1.000  O
  O88      1.0000 0.82390  0.63860  0.83170  Biso   1.000  O
  O89      1.0000 0.59210  0.56320  0.65070  Biso   1.000  O
  O90      1.0000 0.60820  0.59120  0.73700  Biso   1.000  O
  O91      1.0000 0.73040  0.75850  0.87120  Biso   1.000  O
  O92      1.0000 0.67680  0.74070  0.77450  Biso   1.000  O
  O93      1.0000 0.75689  0.42850  0.73732  Biso   1.000  O
  O94      1.0000 0.69648  0.33890  0.76619  Biso   1.000  O
  O95      1.0000 0.68329  0.39400  0.95761  Biso   1.000  O
  O96      1.0000 0.63138  0.51740  0.96188  Biso   1.000  O
  O97      1.0000 0.60703  0.78120  0.56432  Biso   1.000  O
  O98      1.0000 0.67297  0.87090  0.61696  Biso   1.000  O
  O99      1.0000 0.43760  0.67460  0.63680  Biso   1.000  O
  O100     1.0000 0.45430  0.66300  0.72700  Biso   1.000  O
  O101     1.0000 0.58470  0.88440  0.82530  Biso   1.000  O
  O102     1.0000 0.61250  0.98790  0.78070  Biso   1.000  O
  N28      1.0000 0.44530  0.72190  0.66280  Biso   1.000  N
  O103     1.0000 0.88580  0.61220  0.78150  Biso   1.000  O
  O104     1.0000 0.83490  0.57450  0.82360  Biso   1.000  O
  O105     1.0000 0.58420  0.60230  0.65820  Biso   1.000  O
  O106     1.0000 0.61830  0.50600  0.72040  Biso   1.000  O
  O107     1.0000 0.70590  0.76570  0.86160  Biso   1.000  O
  O108     1.0000 0.70400  0.74640  0.78430  Biso   1.000  O
  O109     1.0000 0.44890  0.64880  0.64430  Biso   1.000  O
  O110     1.0000 0.40020  0.75710  0.67170  Biso   1.000  O
  O111     1.0000 0.53730  0.98790  0.78500  Biso   1.000  O
  O112     1.0000 0.63350  0.95890  0.80090  Biso   1.000  O
  Gd5      1.0000 0.14046  0.76386  0.98561  Biso   1.000  Gd
  C85      1.0000 0.26860  0.80560  0.09115  Biso   1.000  C
  C86      1.0000 0.25540  0.84000  0.14340  Biso   1.000  C
  C87      1.0000 0.19820  0.86750  0.14550  Biso   1.000  C
  H25      1.0000 0.16750  0.86520  0.11440  Biso   1.000  H
  C88      1.0000 0.18710  0.89840  0.19404  Biso   1.000  C
  C89      1.0000 0.23060  0.90320  0.24257  Biso   1.000  C
  C90      1.0000 0.28730  0.87470  0.23852  Biso   1.000  C
  C91      1.0000 0.30020  0.84460  0.19024  Biso   1.000  C
  H26      1.0000 0.33890  0.82740  0.18940  Biso   1.000  H
  C92      1.0000 0.21650  0.93590  0.29487  Biso   1.000  C
  C93      1.0000 0.21320  0.02460  0.30714  Biso   1.000  C
  C94      1.0000 0.19810  0.05560  0.35412  Biso   1.000  C
  H27      1.0000 0.19670  0.11570  0.36040  Biso   1.000  H
  C95      1.0000 0.18510  0.99670  0.39164  Biso   1.000  C
  C96      1.0000 0.18810  0.90790  0.38179  Biso   1.000  C
  H28      1.0000 0.17960  0.86730  0.40670  Biso   1.000  H
  C97      1.0000 0.20370  0.87950  0.33442  Biso   1.000  C
  C98      1.0000 0.16470  0.03010  0.44135  Biso   1.000  C
  C99      1.0000 0.12700  0.67490  0.10690  Biso   1.000  C
  C100     1.0000 0.04080  0.73200  0.14370  Biso   1.000  C
  H29      1.0000 0.03040  0.76780  0.11310  Biso   1.000  H
  C101     1.0000 0.08970  0.67770  0.14990  Biso   1.000  C
  C102     1.0000 0.10450  0.62540  0.19550  Biso   1.000  C
  H30      1.0000 0.13790  0.58900  0.20070  Biso   1.000  H
  C103     1.0000 0.06890  0.62760  0.23368  Biso   1.000  C
  C104     1.0000 0.01910  0.68080  0.22910  Biso   1.000  C
  C105     1.0000 0.00740  0.73310  0.18310  Biso   1.000  C
  N29      1.0000 0.12532  0.92620  0.19227  Biso   1.000  N
  N30      1.0000 0.33760  0.87800  0.28604  Biso   1.000  N
  N31      1.0000 0.22310  0.09080  0.26721  Biso   1.000  N
  N32      1.0000 0.20400  0.78410  0.32575  Biso   1.000  N
  N33      1.0000 0.08620  0.57100  0.28050  Biso   1.000  N
  N34      1.0000 0.96580  0.80860  0.18610  Biso   1.000  N
  O113     1.0000 0.22569  0.80070  0.05075  Biso   1.000  O
  O114     1.0000 0.32163  0.78530  0.09141  Biso   1.000  O
  O115     1.0000 0.38430  0.83440  0.28280  Biso   1.000  O
  O116     1.0000 0.32390  0.86140  0.33170  Biso   1.000  O
  O117     1.0000 0.09210  0.93680  0.15070  Biso   1.000  O
  O118     1.0000 0.10820  0.90880  0.23700  Biso   1.000  O
  O119     1.0000 0.23040  0.74150  0.37120  Biso   1.000  O
  O120     1.0000 0.17680  0.75930  0.27450  Biso   1.000  O
  O121     1.0000 0.25689  0.07150  0.23732  Biso   1.000  O
  O122     1.0000 0.19648  0.16110  0.26619  Biso   1.000  O
  O123     1.0000 0.18329  0.10600  0.45761  Biso   1.000  O
  O124     1.0000 0.13138  0.98260  0.46188  Biso   1.000  O
  O125     1.0000 0.10703  0.71880  0.06432  Biso   1.000  O
  O126     1.0000 0.17297  0.62910  0.11696  Biso   1.000  O
  O127     1.0000 0.93760  0.82540  0.13680  Biso   1.000  O
  O128     1.0000 0.95430  0.83700  0.22700  Biso   1.000  O
  O129     1.0000 0.08470  0.61560  0.32530  Biso   1.000  O
  O130     1.0000 0.11250  0.51210  0.28070  Biso   1.000  O
  N35      1.0000 0.94530  0.77810  0.16280  Biso   1.000  N
  O131     1.0000 0.38580  0.88780  0.28150  Biso   1.000  O
  O132     1.0000 0.33490  0.92550  0.32360  Biso   1.000  O
  O133     1.0000 0.08420  0.89770  0.15820  Biso   1.000  O
  O134     1.0000 0.11830  0.99400  0.22040  Biso   1.000  O
  O135     1.0000 0.20590  0.73430  0.36160  Biso   1.000  O
  O136     1.0000 0.20400  0.75360  0.28430  Biso   1.000  O
  O137     1.0000 0.94890  0.85120  0.14430  Biso   1.000  O
  O138     1.0000 0.90020  0.74290  0.17170  Biso   1.000  O
  O139     1.0000 0.03730  0.51210  0.28500  Biso   1.000  O
  O140     1.0000 0.13350  0.54110  0.30090  Biso   1.000  O
  Gd6      1.0000 0.64046  0.26386  0.98561  Biso   1.000  Gd
  C106     1.0000 0.76860  0.30560  0.09115  Biso   1.000  C
  C107     1.0000 0.75540  0.34000  0.14340  Biso   1.000  C
  C108     1.0000 0.69820  0.36750  0.14550  Biso   1.000  C
  H31      1.0000 0.66750  0.36520  0.11440  Biso   1.000  H
  C109     1.0000 0.68710  0.39840  0.19404  Biso   1.000  C
  C110     1.0000 0.73060  0.40320  0.24257  Biso   1.000  C
  C111     1.0000 0.78730  0.37470  0.23852  Biso   1.000  C
  C112     1.0000 0.80020  0.34460  0.19024  Biso   1.000  C
  H32      1.0000 0.83890  0.32740  0.18940  Biso   1.000  H
  C113     1.0000 0.71650  0.43590  0.29487  Biso   1.000  C
  C114     1.0000 0.71320  0.52460  0.30714  Biso   1.000  C
  C115     1.0000 0.69810  0.55560  0.35412  Biso   1.000  C
  H33      1.0000 0.69670  0.61570  0.36040  Biso   1.000  H
  C116     1.0000 0.68510  0.49670  0.39164  Biso   1.000  C
  C117     1.0000 0.68810  0.40790  0.38179  Biso   1.000  C
  H34      1.0000 0.67960  0.36730  0.40670  Biso   1.000  H
  C118     1.0000 0.70370  0.37950  0.33442  Biso   1.000  C
  C119     1.0000 0.66470  0.53010  0.44135  Biso   1.000  C
  C120     1.0000 0.62700  0.17490  0.10690  Biso   1.000  C
  C121     1.0000 0.54080  0.23200  0.14370  Biso   1.000  C
  H35      1.0000 0.53040  0.26780  0.11310  Biso   1.000  H
  C122     1.0000 0.58970  0.17770  0.14990  Biso   1.000  C
  C123     1.0000 0.60450  0.12540  0.19550  Biso   1.000  C
  H36      1.0000 0.63790  0.08900  0.20070  Biso   1.000  H
  C124     1.0000 0.56890  0.12760  0.23368  Biso   1.000  C
  C125     1.0000 0.51910  0.18080  0.22910  Biso   1.000  C
  C126     1.0000 0.50740  0.23310  0.18310  Biso   1.000  C
  N36      1.0000 0.62532  0.42620  0.19227  Biso   1.000  N
  N37      1.0000 0.83760  0.37800  0.28604  Biso   1.000  N
  N38      1.0000 0.72310  0.59080  0.26721  Biso   1.000  N
  N39      1.0000 0.70400  0.28410  0.32575  Biso   1.000  N
  N40      1.0000 0.58620  0.07100  0.28050  Biso   1.000  N
  N41      1.0000 0.46580  0.30860  0.18610  Biso   1.000  N
  O141     1.0000 0.72569  0.30070  0.05075  Biso   1.000  O
  O142     1.0000 0.82163  0.28530  0.09141  Biso   1.000  O
  O143     1.0000 0.88430  0.33440  0.28280  Biso   1.000  O
  O144     1.0000 0.82390  0.36140  0.33170  Biso   1.000  O
  O145     1.0000 0.59210  0.43680  0.15070  Biso   1.000  O
  O146     1.0000 0.60820  0.40880  0.23700  Biso   1.000  O
  O147     1.0000 0.73040  0.24150  0.37120  Biso   1.000  O
  O148     1.0000 0.67680  0.25930  0.27450  Biso   1.000  O
  O149     1.0000 0.75689  0.57150  0.23732  Biso   1.000  O
  O150     1.0000 0.69648  0.66110  0.26619  Biso   1.000  O
  O151     1.0000 0.68329  0.60600  0.45761  Biso   1.000  O
  O152     1.0000 0.63138  0.48260  0.46188  Biso   1.000  O
  O153     1.0000 0.60703  0.21880  0.06432  Biso   1.000  O
  O154     1.0000 0.67297  0.12910  0.11696  Biso   1.000  O
  O155     1.0000 0.43760  0.32540  0.13680  Biso   1.000  O
  O156     1.0000 0.45430  0.33700  0.22700  Biso   1.000  O
  O157     1.0000 0.58470  0.11560  0.32530  Biso   1.000  O
  O158     1.0000 0.61250  0.01210  0.28070  Biso   1.000  O
  N42      1.0000 0.44530  0.27810  0.16280  Biso   1.000  N
  O159     1.0000 0.88580  0.38780  0.28150  Biso   1.000  O
  O160     1.0000 0.83490  0.42550  0.32360  Biso   1.000  O
  O161     1.0000 0.58420  0.39770  0.15820  Biso   1.000  O
  O162     1.0000 0.61830  0.49400  0.22040  Biso   1.000  O
  O163     1.0000 0.70590  0.23430  0.36160  Biso   1.000  O
  O164     1.0000 0.70400  0.25360  0.28430  Biso   1.000  O
  O165     1.0000 0.44890  0.35120  0.14430  Biso   1.000  O
  O166     1.0000 0.40020  0.24290  0.17170  Biso   1.000  O
  O167     1.0000 0.53730  0.01210  0.28500  Biso   1.000  O
  O168     1.0000 0.63350  0.04110  0.30090  Biso   1.000  O
  Gd7      1.0000 0.85954  0.76386  0.51439  Biso   1.000  Gd
  C127     1.0000 0.73140  0.80560  0.40885  Biso   1.000  C
  C128     1.0000 0.74460  0.84000  0.35660  Biso   1.000  C
  C129     1.0000 0.80180  0.86750  0.35450  Biso   1.000  C
  H37      1.0000 0.83250  0.86520  0.38560  Biso   1.000  H
  C130     1.0000 0.81290  0.89840  0.30596  Biso   1.000  C
  C131     1.0000 0.76940  0.90320  0.25743  Biso   1.000  C
  C132     1.0000 0.71270  0.87470  0.26148  Biso   1.000  C
  C133     1.0000 0.69980  0.84460  0.30976  Biso   1.000  C
  H38      1.0000 0.66110  0.82740  0.31060  Biso   1.000  H
  C134     1.0000 0.78350  0.93590  0.20513  Biso   1.000  C
  C135     1.0000 0.78680  0.02460  0.19286  Biso   1.000  C
  C136     1.0000 0.80190  0.05560  0.14588  Biso   1.000  C
  H39      1.0000 0.80330  0.11570  0.13960  Biso   1.000  H
  C137     1.0000 0.81490  0.99670  0.10836  Biso   1.000  C
  C138     1.0000 0.81190  0.90790  0.11821  Biso   1.000  C
  H40      1.0000 0.82040  0.86730  0.09330  Biso   1.000  H
  C139     1.0000 0.79630  0.87950  0.16558  Biso   1.000  C
  C140     1.0000 0.83530  0.03010  0.05865  Biso   1.000  C
  C141     1.0000 0.87300  0.67490  0.39310  Biso   1.000  C
  C142     1.0000 0.95920  0.73200  0.35630  Biso   1.000  C
  H41      1.0000 0.96960  0.76780  0.38690  Biso   1.000  H
  C143     1.0000 0.91030  0.67770  0.35010  Biso   1.000  C
  C144     1.0000 0.89550  0.62540  0.30450  Biso   1.000  C
  H42      1.0000 0.86210  0.58900  0.29930  Biso   1.000  H
  C145     1.0000 0.93110  0.62760  0.26632  Biso   1.000  C
  C146     1.0000 0.98090  0.68080  0.27090  Biso   1.000  C
  C147     1.0000 0.99260  0.73310  0.31690  Biso   1.000  C
  N43      1.0000 0.87468  0.92620  0.30773  Biso   1.000  N
  N44      1.0000 0.66240  0.87800  0.21396  Biso   1.000  N
  N45      1.0000 0.77690  0.09080  0.23279  Biso   1.000  N
  N46      1.0000 0.79600  0.78410  0.17425  Biso   1.000  N
  N47      1.0000 0.91380  0.57100  0.21950  Biso   1.000  N
  N48      1.0000 0.03420  0.80860  0.31390  Biso   1.000  N
  O169     1.0000 0.77431  0.80070  0.44925  Biso   1.000  O
  O170     1.0000 0.67837  0.78530  0.40859  Biso   1.000  O
  O171     1.0000 0.61570  0.83440  0.21720  Biso   1.000  O
  O172     1.0000 0.67610  0.86140  0.16830  Biso   1.000  O
  O173     1.0000 0.90790  0.93680  0.34930  Biso   1.000  O
  O174     1.0000 0.89180  0.90880  0.26300  Biso   1.000  O
  O175     1.0000 0.76960  0.74150  0.12880  Biso   1.000  O
  O176     1.0000 0.82320  0.75930  0.22550  Biso   1.000  O
  O177     1.0000 0.74311  0.07150  0.26268  Biso   1.000  O
  O178     1.0000 0.80352  0.16110  0.23381  Biso   1.000  O
  O179     1.0000 0.81671  0.10600  0.04239  Biso   1.000  O
  O180     1.0000 0.86862  0.98260  0.03812  Biso   1.000  O
  O181     1.0000 0.89297  0.71880  0.43568  Biso   1.000  O
  O182     1.0000 0.82703  0.62910  0.38304  Biso   1.000  O
  O183     1.0000 0.06240  0.82540  0.36320  Biso   1.000  O
  O184     1.0000 0.04570  0.83700  0.27300  Biso   1.000  O
  O185     1.0000 0.91530  0.61560  0.17470  Biso   1.000  O
  O186     1.0000 0.88750  0.51210  0.21930  Biso   1.000  O
  N49      1.0000 0.05470  0.77810  0.33720  Biso   1.000  N
  O187     1.0000 0.61420  0.88780  0.21850  Biso   1.000  O
  O188     1.0000 0.66510  0.92550  0.17640  Biso   1.000  O
  O189     1.0000 0.91580  0.89770  0.34180  Biso   1.000  O
  O190     1.0000 0.88170  0.99400  0.27960  Biso   1.000  O
  O191     1.0000 0.79410  0.73430  0.13840  Biso   1.000  O
  O192     1.0000 0.79600  0.75360  0.21570  Biso   1.000  O
  O193     1.0000 0.05110  0.85120  0.35570  Biso   1.000  O
  O194     1.0000 0.09980  0.74290  0.32830  Biso   1.000  O
  O195     1.0000 0.96270  0.51210  0.21500  Biso   1.000  O
  O196     1.0000 0.86650  0.54110  0.19910  Biso   1.000  O
  Gd8      1.0000 0.35954  0.26386  0.51439  Biso   1.000  Gd
  C148     1.0000 0.23140  0.30560  0.40885  Biso   1.000  C
  C149     1.0000 0.24460  0.34000  0.35660  Biso   1.000  C
  C150     1.0000 0.30180  0.36750  0.35450  Biso   1.000  C
  H43      1.0000 0.33250  0.36520  0.38560  Biso   1.000  H
  C151     1.0000 0.31290  0.39840  0.30596  Biso   1.000  C
  C152     1.0000 0.26940  0.40320  0.25743  Biso   1.000  C
  C153     1.0000 0.21270  0.37470  0.26148  Biso   1.000  C
  C154     1.0000 0.19980  0.34460  0.30976  Biso   1.000  C
  H44      1.0000 0.16110  0.32740  0.31060  Biso   1.000  H
  C155     1.0000 0.28350  0.43590  0.20513  Biso   1.000  C
  C156     1.0000 0.28680  0.52460  0.19286  Biso   1.000  C
  C157     1.0000 0.30190  0.55560  0.14588  Biso   1.000  C
  H45      1.0000 0.30330  0.61570  0.13960  Biso   1.000  H
  C158     1.0000 0.31490  0.49670  0.10836  Biso   1.000  C
  C159     1.0000 0.31190  0.40790  0.11821  Biso   1.000  C
  H46      1.0000 0.32040  0.36730  0.09330  Biso   1.000  H
  C160     1.0000 0.29630  0.37950  0.16558  Biso   1.000  C
  C161     1.0000 0.33530  0.53010  0.05865  Biso   1.000  C
  C162     1.0000 0.37300  0.17490  0.39310  Biso   1.000  C
  C163     1.0000 0.45920  0.23200  0.35630  Biso   1.000  C
  H47      1.0000 0.46960  0.26780  0.38690  Biso   1.000  H
  C164     1.0000 0.41030  0.17770  0.35010  Biso   1.000  C
  C165     1.0000 0.39550  0.12540  0.30450  Biso   1.000  C
  H48      1.0000 0.36210  0.08900  0.29930  Biso   1.000  H
  C166     1.0000 0.43110  0.12760  0.26632  Biso   1.000  C
  C167     1.0000 0.48090  0.18080  0.27090  Biso   1.000  C
  C168     1.0000 0.49260  0.23310  0.31690  Biso   1.000  C
  N50      1.0000 0.37468  0.42620  0.30773  Biso   1.000  N
  N51      1.0000 0.16240  0.37800  0.21396  Biso   1.000  N
  N52      1.0000 0.27690  0.59080  0.23279  Biso   1.000  N
  N53      1.0000 0.29600  0.28410  0.17425  Biso   1.000  N
  N54      1.0000 0.41380  0.07100  0.21950  Biso   1.000  N
  N55      1.0000 0.53420  0.30860  0.31390  Biso   1.000  N
  O197     1.0000 0.27431  0.30070  0.44925  Biso   1.000  O
  O198     1.0000 0.17837  0.28530  0.40859  Biso   1.000  O
  O199     1.0000 0.11570  0.33440  0.21720  Biso   1.000  O
  O200     1.0000 0.17610  0.36140  0.16830  Biso   1.000  O
  O201     1.0000 0.40790  0.43680  0.34930  Biso   1.000  O
  O202     1.0000 0.39180  0.40880  0.26300  Biso   1.000  O
  O203     1.0000 0.26960  0.24150  0.12880  Biso   1.000  O
  O204     1.0000 0.32320  0.25930  0.22550  Biso   1.000  O
  O205     1.0000 0.24311  0.57150  0.26268  Biso   1.000  O
  O206     1.0000 0.30352  0.66110  0.23381  Biso   1.000  O
  O207     1.0000 0.31671  0.60600  0.04239  Biso   1.000  O
  O208     1.0000 0.36862  0.48260  0.03812  Biso   1.000  O
  O209     1.0000 0.39297  0.21880  0.43568  Biso   1.000  O
  O210     1.0000 0.32703  0.12910  0.38304  Biso   1.000  O
  O211     1.0000 0.56240  0.32540  0.36320  Biso   1.000  O
  O212     1.0000 0.54570  0.33700  0.27300  Biso   1.000  O
  O213     1.0000 0.41530  0.11560  0.17470  Biso   1.000  O
  O214     1.0000 0.38750  0.01210  0.21930  Biso   1.000  O
  N56      1.0000 0.55470  0.27810  0.33720  Biso   1.000  N
  O215     1.0000 0.11420  0.38780  0.21850  Biso   1.000  O
  O216     1.0000 0.16510  0.42550  0.17640  Biso   1.000  O
  O217     1.0000 0.41580  0.39770  0.34180  Biso   1.000  O
  O218     1.0000 0.38170  0.49400  0.27960  Biso   1.000  O
  O219     1.0000 0.29410  0.23430  0.13840  Biso   1.000  O
  O220     1.0000 0.29600  0.25360  0.21570  Biso   1.000  O
  O221     1.0000 0.55110  0.35120  0.35570  Biso   1.000  O
  O222     1.0000 0.59980  0.24290  0.32830  Biso   1.000  O
  O223     1.0000 0.46270  0.01210  0.21500  Biso   1.000  O
  O224     1.0000 0.36650  0.04110  0.19910  Biso   1.000  O
