data_image0
_cell_length_a       11.7079
_cell_length_b       12.8554
_cell_length_c       16.8605
_cell_angle_alpha    90
_cell_angle_beta     100.666
_cell_angle_gamma    90

_symmetry_space_group_name_H-M    "P 1"
_symmetry_int_tables_number       1

loop_
  _symmetry_equiv_pos_as_xyz
  'x, y, z'

loop_
  _atom_site_label
  _atom_site_occupancy
  _atom_site_fract_x
  _atom_site_fract_y
  _atom_site_fract_z
  _atom_site_thermal_displace_type
  _atom_site_B_iso_or_equiv
  _atom_site_type_symbol
  Mn1      1.0000 0.74628  0.76846  0.22839  Biso   1.000  Mn
  N1       1.0000 0.61074  0.89564  0.19832  Biso   1.000  N
  N2       1.0000 0.39155  0.16138  0.24729  Biso   1.000  N
  N3       1.0000 0.87200  0.88691  0.20105  Biso   1.000  N
  N4       1.0000 0.75660  0.82617  0.35578  Biso   1.000  N
  N5       1.0000 0.70787  0.78840  0.60278  Biso   1.000  N
  N6       1.0000 0.11265  0.15605  0.22827  Biso   1.000  N
  N7       1.0000 0.99200  0.01770  0.15650  Biso   1.000  N
  N8       1.0000 0.55914  0.07753  0.20807  Biso   1.000  N
  N9       1.0000 0.67251  0.87664  0.47185  Biso   1.000  N
  C1       1.0000 0.58035  0.97855  0.20509  Biso   1.000  C
  C2       1.0000 0.46705  0.11580  0.23033  Biso   1.000  C
  C3       1.0000 0.92101  0.95737  0.18454  Biso   1.000  C
  C4       1.0000 0.71835  0.84555  0.41181  Biso   1.000  C
  C5       1.0000 0.69296  0.82596  0.54026  Biso   1.000  C
  C6       1.0000 0.04553  0.09709  0.19934  Biso   1.000  C
  N10      1.0000 0.95510  0.04970  0.15950  Biso   1.000  N
  Mn2      1.0000 0.25372  0.26846  0.27162  Biso   1.000  Mn
  N11      1.0000 0.38926  0.39564  0.30168  Biso   1.000  N
  N12      1.0000 0.60845  0.66138  0.25271  Biso   1.000  N
  N13      1.0000 0.12800  0.38691  0.29895  Biso   1.000  N
  N14      1.0000 0.24340  0.32617  0.14422  Biso   1.000  N
  N15      1.0000 0.29213  0.28840  0.89722  Biso   1.000  N
  N16      1.0000 0.88735  0.65605  0.27173  Biso   1.000  N
  N17      1.0000 0.00800  0.51770  0.34350  Biso   1.000  N
  N18      1.0000 0.44086  0.57753  0.29193  Biso   1.000  N
  N19      1.0000 0.32749  0.37664  0.02815  Biso   1.000  N
  C7       1.0000 0.41965  0.47855  0.29491  Biso   1.000  C
  C8       1.0000 0.53295  0.61580  0.26967  Biso   1.000  C
  C9       1.0000 0.07899  0.45737  0.31546  Biso   1.000  C
  C10      1.0000 0.28165  0.34555  0.08819  Biso   1.000  C
  C11      1.0000 0.30704  0.32596  0.95974  Biso   1.000  C
  C12      1.0000 0.95447  0.59709  0.30066  Biso   1.000  C
  N20      1.0000 0.04490  0.54970  0.34050  Biso   1.000  N
  Mn3      1.0000 0.25372  0.23154  0.77162  Biso   1.000  Mn
  N21      1.0000 0.38926  0.10436  0.80168  Biso   1.000  N
  N22      1.0000 0.60845  0.83862  0.75271  Biso   1.000  N
  N23      1.0000 0.12800  0.11309  0.79895  Biso   1.000  N
  N24      1.0000 0.24340  0.17383  0.64422  Biso   1.000  N
  N25      1.0000 0.29213  0.21160  0.39722  Biso   1.000  N
  N26      1.0000 0.88735  0.84395  0.77173  Biso   1.000  N
  N27      1.0000 0.00800  0.98230  0.84350  Biso   1.000  N
  N28      1.0000 0.44086  0.92247  0.79193  Biso   1.000  N
  N29      1.0000 0.32749  0.12336  0.52815  Biso   1.000  N
  C13      1.0000 0.41965  0.02145  0.79491  Biso   1.000  C
  C14      1.0000 0.53295  0.88420  0.76967  Biso   1.000  C
  C15      1.0000 0.07899  0.04263  0.81546  Biso   1.000  C
  C16      1.0000 0.28165  0.15445  0.58819  Biso   1.000  C
  C17      1.0000 0.30704  0.17404  0.45974  Biso   1.000  C
  C18      1.0000 0.95447  0.90291  0.80066  Biso   1.000  C
  N30      1.0000 0.04490  0.95030  0.84050  Biso   1.000  N
  Mn4      1.0000 0.74628  0.73154  0.72839  Biso   1.000  Mn
  N31      1.0000 0.61074  0.60436  0.69832  Biso   1.000  N
  N32      1.0000 0.39155  0.33862  0.74729  Biso   1.000  N
  N33      1.0000 0.87200  0.61309  0.70105  Biso   1.000  N
  N34      1.0000 0.75660  0.67383  0.85578  Biso   1.000  N
  N35      1.0000 0.70787  0.71160  0.10278  Biso   1.000  N
  N36      1.0000 0.11265  0.34395  0.72827  Biso   1.000  N
  N37      1.0000 0.99200  0.48230  0.65650  Biso   1.000  N
  N38      1.0000 0.55914  0.42247  0.70807  Biso   1.000  N
  N39      1.0000 0.67251  0.62336  0.97185  Biso   1.000  N
  C19      1.0000 0.58035  0.52145  0.70509  Biso   1.000  C
  C20      1.0000 0.46705  0.38420  0.73033  Biso   1.000  C
  C21      1.0000 0.92101  0.54263  0.68454  Biso   1.000  C
  C22      1.0000 0.71835  0.65445  0.91181  Biso   1.000  C
  C23      1.0000 0.69296  0.67404  0.04026  Biso   1.000  C
  C24      1.0000 0.04553  0.40291  0.69934  Biso   1.000  C
  N40      1.0000 0.95510  0.45030  0.65950  Biso   1.000  N
