data_image0
_cell_length_a       21.9177
_cell_length_b       21.9177
_cell_length_c       12.2351
_cell_angle_alpha    90
_cell_angle_beta     90
_cell_angle_gamma    120

_symmetry_space_group_name_H-M    "P 1"
_symmetry_int_tables_number       1

loop_
  _symmetry_equiv_pos_as_xyz
  'x, y, z'

loop_
  _atom_site_label
  _atom_site_occupancy
  _atom_site_fract_x
  _atom_site_fract_y
  _atom_site_fract_z
  _atom_site_thermal_displace_type
  _atom_site_B_iso_or_equiv
  _atom_site_type_symbol
  C1       1.0000 0.31460  0.43890  0.10600  Biso   1.000  C
  C2       1.0000 0.35190  0.47320  0.00030  Biso   1.000  C
  C3       1.0000 0.30920  0.66280  0.95440  Biso   1.000  C
  C4       1.0000 0.24320  0.59040  0.93500  Biso   1.000  C
  O1       1.0000 0.29140  0.47450  0.15730  Biso   1.000  O
  O2       1.0000 0.36590  0.53690  0.98440  Biso   1.000  O
  O3       1.0000 0.30530  0.37810  0.12210  Biso   1.000  O
  O4       1.0000 0.37150  0.43710  0.94000  Biso   1.000  O
  O5       1.0000 0.35280  0.66950  0.02840  Biso   1.000  O
  O6       1.0000 0.23900  0.54320  0.99430  Biso   1.000  O
  O7       1.0000 0.31710  0.71280  0.89950  Biso   1.000  O
  O8       1.0000 0.20540  0.58600  0.85730  Biso   1.000  O
  Cr1      1.0000 0.32517  0.57269  0.09640  Biso   1.000  Cr
  C5       1.0000 0.22960  0.20090  0.04480  Biso   1.000  C
  O9       1.0000 0.29270  0.24280  0.07410  Biso   1.000  O
  O10      1.0000 0.18980  0.14060  0.07820  Biso   1.000  O
  O11      1.0000 0.12780  0.04220  0.89820  Biso   1.000  O
  O12      1.0000 0.00730  0.04400  0.89580  Biso   1.000  O
  Mn1      1.0000 0.24752  0.67483  0.76307  Biso   1.000  Mn
  C6       1.0000 0.56110  0.87570  0.43933  Biso   1.000  C
  C7       1.0000 0.52680  0.87870  0.33363  Biso   1.000  C
  C8       1.0000 0.33720  0.64640  0.28773  Biso   1.000  C
  C9       1.0000 0.40960  0.65280  0.26833  Biso   1.000  C
  O13      1.0000 0.52550  0.81690  0.49063  Biso   1.000  O
  O14      1.0000 0.46310  0.82900  0.31773  Biso   1.000  O
  O15      1.0000 0.62190  0.92720  0.45543  Biso   1.000  O
  O16      1.0000 0.56290  0.93440  0.27333  Biso   1.000  O
  O17      1.0000 0.33050  0.68330  0.36173  Biso   1.000  O
  O18      1.0000 0.45680  0.69580  0.32763  Biso   1.000  O
  O19      1.0000 0.28720  0.60430  0.23283  Biso   1.000  O
  O20      1.0000 0.41400  0.61940  0.19063  Biso   1.000  O
  Cr2      1.0000 0.42731  0.75248  0.42973  Biso   1.000  Cr
  C10      1.0000 0.79910  0.02870  0.37813  Biso   1.000  C
  O21      1.0000 0.75720  0.04990  0.40743  Biso   1.000  O
  O22      1.0000 0.85940  0.04920  0.41153  Biso   1.000  O
  O23      1.0000 0.95780  0.08560  0.23153  Biso   1.000  O
  O24      1.0000 0.95600  0.96330  0.22913  Biso   1.000  O
  C11      1.0000 0.12430  0.68540  0.77267  Biso   1.000  C
  C12      1.0000 0.12130  0.64810  0.66697  Biso   1.000  C
  C13      1.0000 0.35360  0.69080  0.62107  Biso   1.000  C
  C14      1.0000 0.34720  0.75680  0.60167  Biso   1.000  C
  O25      1.0000 0.18310  0.70860  0.82397  Biso   1.000  O
  O26      1.0000 0.17100  0.63410  0.65107  Biso   1.000  O
  O27      1.0000 0.07280  0.69470  0.78877  Biso   1.000  O
  O28      1.0000 0.06560  0.62850  0.60667  Biso   1.000  O
  O29      1.0000 0.31670  0.64720  0.69507  Biso   1.000  O
  O30      1.0000 0.30420  0.76100  0.66097  Biso   1.000  O
  O31      1.0000 0.39570  0.68290  0.56617  Biso   1.000  O
  O32      1.0000 0.38060  0.79460  0.52397  Biso   1.000  O
  C15      1.0000 0.97130  0.77040  0.71147  Biso   1.000  C
  O33      1.0000 0.95010  0.70730  0.74077  Biso   1.000  O
  O34      1.0000 0.95080  0.81020  0.74487  Biso   1.000  O
  O35      1.0000 0.91440  0.87220  0.56487  Biso   1.000  O
  O36      1.0000 0.03670  0.99270  0.56247  Biso   1.000  O
  C16      1.0000 0.43890  0.31460  0.89400  Biso   1.000  C
  C17      1.0000 0.47320  0.35190  0.99970  Biso   1.000  C
  C18      1.0000 0.66280  0.30920  0.04560  Biso   1.000  C
  C19      1.0000 0.59040  0.24320  0.06500  Biso   1.000  C
  O37      1.0000 0.47450  0.29140  0.84270  Biso   1.000  O
  O38      1.0000 0.53690  0.36590  0.01560  Biso   1.000  O
  O39      1.0000 0.37810  0.30530  0.87790  Biso   1.000  O
  O40      1.0000 0.43710  0.37150  0.06000  Biso   1.000  O
  O41      1.0000 0.66950  0.35280  0.97160  Biso   1.000  O
  O42      1.0000 0.54320  0.23900  0.00570  Biso   1.000  O
  O43      1.0000 0.71280  0.31710  0.10050  Biso   1.000  O
  O44      1.0000 0.58600  0.20540  0.14270  Biso   1.000  O
  Cr3      1.0000 0.57269  0.32517  0.90360  Biso   1.000  Cr
  C20      1.0000 0.20090  0.22960  0.95520  Biso   1.000  C
  O45      1.0000 0.24280  0.29270  0.92590  Biso   1.000  O
  O46      1.0000 0.14060  0.18980  0.92180  Biso   1.000  O
  O47      1.0000 0.04220  0.12780  0.10180  Biso   1.000  O
  O48      1.0000 0.04400  0.00730  0.10420  Biso   1.000  O
  Mn2      1.0000 0.67483  0.24752  0.23693  Biso   1.000  Mn
  C21      1.0000 0.87570  0.56110  0.56067  Biso   1.000  C
  C22      1.0000 0.87870  0.52680  0.66637  Biso   1.000  C
  C23      1.0000 0.64640  0.33720  0.71227  Biso   1.000  C
  C24      1.0000 0.65280  0.40960  0.73167  Biso   1.000  C
  O49      1.0000 0.81690  0.52550  0.50937  Biso   1.000  O
  O50      1.0000 0.82900  0.46310  0.68227  Biso   1.000  O
  O51      1.0000 0.92720  0.62190  0.54457  Biso   1.000  O
  O52      1.0000 0.93440  0.56290  0.72667  Biso   1.000  O
  O53      1.0000 0.68330  0.33050  0.63827  Biso   1.000  O
  O54      1.0000 0.69580  0.45680  0.67237  Biso   1.000  O
  O55      1.0000 0.60430  0.28720  0.76717  Biso   1.000  O
  O56      1.0000 0.61940  0.41400  0.80937  Biso   1.000  O
  Cr4      1.0000 0.75248  0.42731  0.57027  Biso   1.000  Cr
  C25      1.0000 0.02870  0.79910  0.62187  Biso   1.000  C
  O57      1.0000 0.04990  0.75720  0.59257  Biso   1.000  O
  O58      1.0000 0.04920  0.85940  0.58847  Biso   1.000  O
  O59      1.0000 0.08560  0.95780  0.76847  Biso   1.000  O
  O60      1.0000 0.96330  0.95600  0.77087  Biso   1.000  O
  C26      1.0000 0.68540  0.12430  0.22733  Biso   1.000  C
  C27      1.0000 0.64810  0.12130  0.33303  Biso   1.000  C
  C28      1.0000 0.69080  0.35360  0.37893  Biso   1.000  C
  C29      1.0000 0.75680  0.34720  0.39833  Biso   1.000  C
  O61      1.0000 0.70860  0.18310  0.17603  Biso   1.000  O
  O62      1.0000 0.63410  0.17100  0.34893  Biso   1.000  O
  O63      1.0000 0.69470  0.07280  0.21123  Biso   1.000  O
  O64      1.0000 0.62850  0.06560  0.39333  Biso   1.000  O
  O65      1.0000 0.64720  0.31670  0.30493  Biso   1.000  O
  O66      1.0000 0.76100  0.30420  0.33903  Biso   1.000  O
  O67      1.0000 0.68290  0.39570  0.43383  Biso   1.000  O
  O68      1.0000 0.79460  0.38060  0.47603  Biso   1.000  O
  C30      1.0000 0.77040  0.97130  0.28853  Biso   1.000  C
  O69      1.0000 0.70730  0.95010  0.25923  Biso   1.000  O
  O70      1.0000 0.81020  0.95080  0.25513  Biso   1.000  O
  O71      1.0000 0.87220  0.91440  0.43513  Biso   1.000  O
  O72      1.0000 0.99270  0.03670  0.43753  Biso   1.000  O
  Cr5      1.0000 0.34138  0.34138  0.00000  Biso   1.000  Cr
  Cr6      1.0000 0.09387  0.09387  0.00000  Biso   1.000  Cr
  Cr7      1.0000 0.65862  0.00000  0.33333  Biso   1.000  Cr
  Cr8      1.0000 0.90613  0.00000  0.33333  Biso   1.000  Cr
  Cr9      1.0000 0.00000  0.65862  0.66667  Biso   1.000  Cr
  Cr10     1.0000 0.00000  0.90613  0.66667  Biso   1.000  Cr
  C31      1.0000 0.08280  0.00000  0.83333  Biso   1.000  C
  C32      1.0000 0.01230  0.00000  0.83333  Biso   1.000  C
  C33      1.0000 0.00000  0.08280  0.16667  Biso   1.000  C
  C34      1.0000 0.00000  0.01230  0.16667  Biso   1.000  C
  C35      1.0000 0.91720  0.91720  0.50000  Biso   1.000  C
  C36      1.0000 0.98770  0.98770  0.50000  Biso   1.000  C
  N1       1.0000 0.70020  0.69060  0.10120  Biso   1.000  N
  N2       1.0000 0.55050  0.58790  0.88470  Biso   1.000  N
  N3       1.0000 0.58440  0.68420  0.02730  Biso   1.000  N
  C37      1.0000 0.67860  0.73460  0.14780  Biso   1.000  C
  C38      1.0000 0.76200  0.69370  0.13630  Biso   1.000  C
  C39      1.0000 0.53040  0.53630  0.80940  Biso   1.000  C
  C40      1.0000 0.51800  0.62550  0.87350  Biso   1.000  C
  C41      1.0000 0.53520  0.67860  0.96190  Biso   1.000  C
  C42      1.0000 0.61420  0.73430  0.10800  Biso   1.000  C
  C43      1.0000 0.71890  0.78170  0.22950  Biso   1.000  C
  C44      1.0000 0.80230  0.74080  0.21800  Biso   1.000  C
  H1       1.0000 0.77670  0.66370  0.10450  Biso   1.000  H
  N4       1.0000 0.48570  0.52670  0.72310  Biso   1.000  N
  N5       1.0000 0.55590  0.49450  0.81370  Biso   1.000  N
  N6       1.0000 0.47620  0.62420  0.79510  Biso   1.000  N
  C45      1.0000 0.50840  0.72370  0.97720  Biso   1.000  C
  C46      1.0000 0.58580  0.77870  0.12500  Biso   1.000  C
  H2       1.0000 0.70420  0.81170  0.26130  Biso   1.000  H
  C47      1.0000 0.78070  0.78480  0.26460  Biso   1.000  C
  H3       1.0000 0.84450  0.74300  0.24200  Biso   1.000  H
  C48      1.0000 0.46290  0.57260  0.72190  Biso   1.000  C
  H4       1.0000 0.58610  0.49980  0.86530  Biso   1.000  H
  H5       1.0000 0.54310  0.46070  0.76490  Biso   1.000  H
  H6       1.0000 0.47280  0.72080  0.92950  Biso   1.000  H
  C49      1.0000 0.53220  0.77110  0.05900  Biso   1.000  C
  H7       1.0000 0.60350  0.81310  0.18120  Biso   1.000  H
  H8       1.0000 0.80820  0.81700  0.32040  Biso   1.000  H
  N7       1.0000 0.42070  0.56680  0.63660  Biso   1.000  N
  H9       1.0000 0.51160  0.79980  0.07020  Biso   1.000  H
  H10      1.0000 0.41010  0.53410  0.58670  Biso   1.000  H
  H11      1.0000 0.40390  0.59570  0.63120  Biso   1.000  H
  N8       1.0000 0.68080  0.69320  0.14390  Biso   1.000  N
  C50      1.0000 0.65570  0.73380  0.19200  Biso   1.000  C
  C51      1.0000 0.68680  0.77160  0.28700  Biso   1.000  C
  H12      1.0000 0.66960  0.79940  0.31940  Biso   1.000  H
  C52      1.0000 0.74300  0.76880  0.33300  Biso   1.000  C
  H13      1.0000 0.76440  0.79470  0.39820  Biso   1.000  H
  C53      1.0000 0.76830  0.72820  0.28600  Biso   1.000  C
  H14      1.0000 0.80680  0.72630  0.31750  Biso   1.000  H
  C54      1.0000 0.73720  0.69040  0.19100  Biso   1.000  C
  H15      1.0000 0.75440  0.66270  0.15790  Biso   1.000  H
  N9       1.0000 0.69060  0.70020  0.89880  Biso   1.000  N
  N10      1.0000 0.58790  0.55050  0.11530  Biso   1.000  N
  N11      1.0000 0.68420  0.58440  0.97270  Biso   1.000  N
  C55      1.0000 0.73460  0.67860  0.85220  Biso   1.000  C
  C56      1.0000 0.69370  0.76200  0.86370  Biso   1.000  C
  C57      1.0000 0.53630  0.53040  0.19060  Biso   1.000  C
  C58      1.0000 0.62550  0.51800  0.12650  Biso   1.000  C
  C59      1.0000 0.67860  0.53520  0.03810  Biso   1.000  C
  C60      1.0000 0.73430  0.61420  0.89200  Biso   1.000  C
  C61      1.0000 0.78170  0.71890  0.77050  Biso   1.000  C
  C62      1.0000 0.74080  0.80230  0.78200  Biso   1.000  C
  H16      1.0000 0.66370  0.77670  0.89550  Biso   1.000  H
  N12      1.0000 0.52670  0.48570  0.27690  Biso   1.000  N
  N13      1.0000 0.49450  0.55590  0.18630  Biso   1.000  N
  N14      1.0000 0.62420  0.47620  0.20490  Biso   1.000  N
  C63      1.0000 0.72370  0.50840  0.02280  Biso   1.000  C
  C64      1.0000 0.77870  0.58580  0.87500  Biso   1.000  C
  H17      1.0000 0.81170  0.70420  0.73870  Biso   1.000  H
  C65      1.0000 0.78480  0.78070  0.73540  Biso   1.000  C
  H18      1.0000 0.74300  0.84450  0.75800  Biso   1.000  H
  C66      1.0000 0.57260  0.46290  0.27810  Biso   1.000  C
  H19      1.0000 0.49980  0.58610  0.13470  Biso   1.000  H
  H20      1.0000 0.46070  0.54310  0.23510  Biso   1.000  H
  H21      1.0000 0.72080  0.47280  0.07050  Biso   1.000  H
  C67      1.0000 0.77110  0.53220  0.94100  Biso   1.000  C
  H22      1.0000 0.81310  0.60350  0.81880  Biso   1.000  H
  H23      1.0000 0.81700  0.80820  0.67960  Biso   1.000  H
  N15      1.0000 0.56680  0.42070  0.36340  Biso   1.000  N
  H24      1.0000 0.79980  0.51160  0.92980  Biso   1.000  H
  H25      1.0000 0.53410  0.41010  0.41330  Biso   1.000  H
  H26      1.0000 0.59570  0.40390  0.36880  Biso   1.000  H
  N16      1.0000 0.69320  0.68080  0.85610  Biso   1.000  N
  C68      1.0000 0.73380  0.65570  0.80800  Biso   1.000  C
  C69      1.0000 0.77160  0.68680  0.71300  Biso   1.000  C
  H27      1.0000 0.79940  0.66960  0.68060  Biso   1.000  H
  C70      1.0000 0.76880  0.74300  0.66700  Biso   1.000  C
  H28      1.0000 0.79470  0.76440  0.60180  Biso   1.000  H
  C71      1.0000 0.72820  0.76830  0.71400  Biso   1.000  C
  H29      1.0000 0.72630  0.80680  0.68250  Biso   1.000  H
  C72      1.0000 0.69040  0.73720  0.80900  Biso   1.000  C
  H30      1.0000 0.66270  0.75440  0.84210  Biso   1.000  H
  Fe1      1.0000 0.63178  0.63178  0.00000  Biso   1.000  Fe
  N17      1.0000 0.30940  0.00960  0.43453  Biso   1.000  N
  N18      1.0000 0.41210  0.96260  0.21803  Biso   1.000  N
  N19      1.0000 0.31580  0.90020  0.36063  Biso   1.000  N
  C73      1.0000 0.26540  0.94400  0.48113  Biso   1.000  C
  C74      1.0000 0.30630  0.06830  0.46963  Biso   1.000  C
  C75      1.0000 0.46370  0.99410  0.14273  Biso   1.000  C
  C76      1.0000 0.37450  0.89250  0.20683  Biso   1.000  C
  C77      1.0000 0.32140  0.85660  0.29523  Biso   1.000  C
  C78      1.0000 0.26570  0.87990  0.44133  Biso   1.000  C
  C79      1.0000 0.21830  0.93720  0.56283  Biso   1.000  C
  C80      1.0000 0.25920  0.06150  0.55133  Biso   1.000  C
  H31      1.0000 0.33630  0.11300  0.43783  Biso   1.000  H
  N20      1.0000 0.47330  0.95900  0.05643  Biso   1.000  N
  N21      1.0000 0.50550  0.06140  0.14703  Biso   1.000  N
  N22      1.0000 0.37580  0.85200  0.12843  Biso   1.000  N
  C81      1.0000 0.27630  0.78470  0.31053  Biso   1.000  C
  C82      1.0000 0.22130  0.80710  0.45833  Biso   1.000  C
  H32      1.0000 0.18830  0.89250  0.59463  Biso   1.000  H
  C83      1.0000 0.21520  0.99590  0.59793  Biso   1.000  C
  H33      1.0000 0.25700  0.10150  0.57533  Biso   1.000  H
  C84      1.0000 0.42740  0.89030  0.05523  Biso   1.000  C
  H34      1.0000 0.50020  0.08630  0.19863  Biso   1.000  H
  H35      1.0000 0.53930  0.08240  0.09823  Biso   1.000  H
  H36      1.0000 0.27920  0.75200  0.26283  Biso   1.000  H
  C85      1.0000 0.22890  0.76110  0.39233  Biso   1.000  C
  H37      1.0000 0.18690  0.79040  0.51453  Biso   1.000  H
  H38      1.0000 0.18300  0.99120  0.65373  Biso   1.000  H
  N23      1.0000 0.43320  0.85390  0.96993  Biso   1.000  N
  H39      1.0000 0.20020  0.71180  0.40353  Biso   1.000  H
  H40      1.0000 0.46590  0.87600  0.92003  Biso   1.000  H
  H41      1.0000 0.40430  0.80820  0.96453  Biso   1.000  H
  N24      1.0000 0.30680  0.98760  0.47723  Biso   1.000  N
  C86      1.0000 0.26620  0.92190  0.52533  Biso   1.000  C
  C87      1.0000 0.22840  0.91520  0.62033  Biso   1.000  C
  H42      1.0000 0.20060  0.87020  0.65273  Biso   1.000  H
  C88      1.0000 0.23120  0.97420  0.66633  Biso   1.000  C
  H43      1.0000 0.20530  0.96970  0.73153  Biso   1.000  H
  C89      1.0000 0.27180  0.04010  0.61933  Biso   1.000  C
  H44      1.0000 0.27370  0.08050  0.65083  Biso   1.000  H
  C90      1.0000 0.30960  0.04680  0.52433  Biso   1.000  C
  H45      1.0000 0.33730  0.09170  0.49123  Biso   1.000  H
  N25      1.0000 0.29980  0.99040  0.23213  Biso   1.000  N
  N26      1.0000 0.44950  0.03740  0.44863  Biso   1.000  N
  N27      1.0000 0.41560  0.09980  0.30603  Biso   1.000  N
  C91      1.0000 0.32140  0.05600  0.18553  Biso   1.000  C
  C92      1.0000 0.23800  0.93170  0.19703  Biso   1.000  C
  C93      1.0000 0.46960  0.00590  0.52393  Biso   1.000  C
  C94      1.0000 0.48200  0.10750  0.45983  Biso   1.000  C
  C95      1.0000 0.46480  0.14340  0.37143  Biso   1.000  C
  C96      1.0000 0.38580  0.12010  0.22533  Biso   1.000  C
  C97      1.0000 0.28110  0.06280  0.10383  Biso   1.000  C
  C98      1.0000 0.19770  0.93850  0.11533  Biso   1.000  C
  H46      1.0000 0.22330  0.88700  0.22883  Biso   1.000  H
  N28      1.0000 0.51430  0.04100  0.61023  Biso   1.000  N
  N29      1.0000 0.44410  0.93860  0.51963  Biso   1.000  N
  N30      1.0000 0.52380  0.14800  0.53823  Biso   1.000  N
  C99      1.0000 0.49160  0.21530  0.35613  Biso   1.000  C
  C100     1.0000 0.41420  0.19290  0.20833  Biso   1.000  C
  H47      1.0000 0.29580  0.10750  0.07203  Biso   1.000  H
  C101     1.0000 0.21930  0.00410  0.06873  Biso   1.000  C
  H48      1.0000 0.15550  0.89850  0.09133  Biso   1.000  H
  C102     1.0000 0.53710  0.10970  0.61143  Biso   1.000  C
  H49      1.0000 0.41390  0.91370  0.46803  Biso   1.000  H
  H50      1.0000 0.45690  0.91760  0.56843  Biso   1.000  H
  H51      1.0000 0.52720  0.24800  0.40383  Biso   1.000  H
  C103     1.0000 0.46780  0.23890  0.27433  Biso   1.000  C
  H52      1.0000 0.39650  0.20960  0.15213  Biso   1.000  H
  H53      1.0000 0.19180  0.00880  0.01293  Biso   1.000  H
  N31      1.0000 0.57930  0.14610  0.69673  Biso   1.000  N
  H54      1.0000 0.48840  0.28820  0.26313  Biso   1.000  H
  H55      1.0000 0.58990  0.12400  0.74663  Biso   1.000  H
  H56      1.0000 0.59610  0.19180  0.70213  Biso   1.000  H
  N32      1.0000 0.31920  0.01240  0.18943  Biso   1.000  N
  C104     1.0000 0.34430  0.07810  0.14133  Biso   1.000  C
  C105     1.0000 0.31320  0.08480  0.04633  Biso   1.000  C
  H57      1.0000 0.33040  0.12980  0.01393  Biso   1.000  H
  C106     1.0000 0.25700  0.02580  0.00033  Biso   1.000  C
  H58      1.0000 0.23560  0.03030  0.93513  Biso   1.000  H
  C107     1.0000 0.23170  0.95990  0.04733  Biso   1.000  C
  H59      1.0000 0.19320  0.91950  0.01583  Biso   1.000  H
  C108     1.0000 0.26280  0.95320  0.14233  Biso   1.000  C
  H60      1.0000 0.24560  0.90830  0.17543  Biso   1.000  H
  Fe2      1.0000 0.36822  0.00000  0.33333  Biso   1.000  Fe
  N33      1.0000 0.99040  0.29980  0.76787  Biso   1.000  N
  N34      1.0000 0.03740  0.44950  0.55137  Biso   1.000  N
  N35      1.0000 0.09980  0.41560  0.69397  Biso   1.000  N
  C109     1.0000 0.05600  0.32140  0.81447  Biso   1.000  C
  C110     1.0000 0.93170  0.23800  0.80297  Biso   1.000  C
  C111     1.0000 0.00590  0.46960  0.47607  Biso   1.000  C
  C112     1.0000 0.10750  0.48200  0.54017  Biso   1.000  C
  C113     1.0000 0.14340  0.46480  0.62857  Biso   1.000  C
  C114     1.0000 0.12010  0.38580  0.77467  Biso   1.000  C
  C115     1.0000 0.06280  0.28110  0.89617  Biso   1.000  C
  C116     1.0000 0.93850  0.19770  0.88467  Biso   1.000  C
  H61      1.0000 0.88700  0.22330  0.77117  Biso   1.000  H
  N36      1.0000 0.04100  0.51430  0.38977  Biso   1.000  N
  N37      1.0000 0.93860  0.44410  0.48037  Biso   1.000  N
  N38      1.0000 0.14800  0.52380  0.46177  Biso   1.000  N
  C117     1.0000 0.21530  0.49160  0.64387  Biso   1.000  C
  C118     1.0000 0.19290  0.41420  0.79167  Biso   1.000  C
  H62      1.0000 0.10750  0.29580  0.92797  Biso   1.000  H
  C119     1.0000 0.00410  0.21930  0.93127  Biso   1.000  C
  H63      1.0000 0.89850  0.15550  0.90867  Biso   1.000  H
  C120     1.0000 0.10970  0.53710  0.38857  Biso   1.000  C
  H64      1.0000 0.91370  0.41390  0.53197  Biso   1.000  H
  H65      1.0000 0.91760  0.45690  0.43157  Biso   1.000  H
  H66      1.0000 0.24800  0.52720  0.59617  Biso   1.000  H
  C121     1.0000 0.23890  0.46780  0.72567  Biso   1.000  C
  H67      1.0000 0.20960  0.39650  0.84787  Biso   1.000  H
  H68      1.0000 0.00880  0.19180  0.98707  Biso   1.000  H
  N39      1.0000 0.14610  0.57930  0.30327  Biso   1.000  N
  H69      1.0000 0.28820  0.48840  0.73687  Biso   1.000  H
  H70      1.0000 0.12400  0.58990  0.25337  Biso   1.000  H
  H71      1.0000 0.19180  0.59610  0.29787  Biso   1.000  H
  N40      1.0000 0.01240  0.31920  0.81057  Biso   1.000  N
  C122     1.0000 0.07810  0.34430  0.85867  Biso   1.000  C
  C123     1.0000 0.08480  0.31320  0.95367  Biso   1.000  C
  H72      1.0000 0.12980  0.33040  0.98607  Biso   1.000  H
  C124     1.0000 0.02580  0.25700  0.99967  Biso   1.000  C
  H73      1.0000 0.03030  0.23560  0.06487  Biso   1.000  H
  C125     1.0000 0.95990  0.23170  0.95267  Biso   1.000  C
  H74      1.0000 0.91950  0.19320  0.98417  Biso   1.000  H
  C126     1.0000 0.95320  0.26280  0.85767  Biso   1.000  C
  H75      1.0000 0.90830  0.24560  0.82457  Biso   1.000  H
  N41      1.0000 0.00960  0.30940  0.56547  Biso   1.000  N
  N42      1.0000 0.96260  0.41210  0.78197  Biso   1.000  N
  N43      1.0000 0.90020  0.31580  0.63937  Biso   1.000  N
  C127     1.0000 0.94400  0.26540  0.51887  Biso   1.000  C
  C128     1.0000 0.06830  0.30630  0.53037  Biso   1.000  C
  C129     1.0000 0.99410  0.46370  0.85727  Biso   1.000  C
  C130     1.0000 0.89250  0.37450  0.79317  Biso   1.000  C
  C131     1.0000 0.85660  0.32140  0.70477  Biso   1.000  C
  C132     1.0000 0.87990  0.26570  0.55867  Biso   1.000  C
  C133     1.0000 0.93720  0.21830  0.43717  Biso   1.000  C
  C134     1.0000 0.06150  0.25920  0.44867  Biso   1.000  C
  H76      1.0000 0.11300  0.33630  0.56217  Biso   1.000  H
  N44      1.0000 0.95900  0.47330  0.94357  Biso   1.000  N
  N45      1.0000 0.06140  0.50550  0.85297  Biso   1.000  N
  N46      1.0000 0.85200  0.37580  0.87157  Biso   1.000  N
  C135     1.0000 0.78470  0.27630  0.68947  Biso   1.000  C
  C136     1.0000 0.80710  0.22130  0.54167  Biso   1.000  C
  H77      1.0000 0.89250  0.18830  0.40537  Biso   1.000  H
  C137     1.0000 0.99590  0.21520  0.40207  Biso   1.000  C
  H78      1.0000 0.10150  0.25700  0.42467  Biso   1.000  H
  C138     1.0000 0.89030  0.42740  0.94477  Biso   1.000  C
  H79      1.0000 0.08630  0.50020  0.80137  Biso   1.000  H
  H80      1.0000 0.08240  0.53930  0.90177  Biso   1.000  H
  H81      1.0000 0.75200  0.27920  0.73717  Biso   1.000  H
  C139     1.0000 0.76110  0.22890  0.60767  Biso   1.000  C
  H82      1.0000 0.79040  0.18690  0.48547  Biso   1.000  H
  H83      1.0000 0.99120  0.18300  0.34627  Biso   1.000  H
  N47      1.0000 0.85390  0.43320  0.03007  Biso   1.000  N
  H84      1.0000 0.71180  0.20020  0.59647  Biso   1.000  H
  H85      1.0000 0.87600  0.46590  0.07997  Biso   1.000  H
  H86      1.0000 0.80820  0.40430  0.03547  Biso   1.000  H
  N48      1.0000 0.98760  0.30680  0.52277  Biso   1.000  N
  C140     1.0000 0.92190  0.26620  0.47467  Biso   1.000  C
  C141     1.0000 0.91520  0.22840  0.37967  Biso   1.000  C
  H87      1.0000 0.87020  0.20060  0.34727  Biso   1.000  H
  C142     1.0000 0.97420  0.23120  0.33367  Biso   1.000  C
  H88      1.0000 0.96970  0.20530  0.26847  Biso   1.000  H
  C143     1.0000 0.04010  0.27180  0.38067  Biso   1.000  C
  H89      1.0000 0.08050  0.27370  0.34917  Biso   1.000  H
  C144     1.0000 0.04680  0.30960  0.47567  Biso   1.000  C
  H90      1.0000 0.09170  0.33730  0.50877  Biso   1.000  H
  Fe3      1.0000 0.00000  0.36822  0.66667  Biso   1.000  Fe
