data_image0
_cell_length_a       9.593
_cell_length_b       13.795
_cell_length_c       16.875
_cell_angle_alpha    90
_cell_angle_beta     90
_cell_angle_gamma    90

_symmetry_space_group_name_H-M    "P 1"
_symmetry_int_tables_number       1

loop_
  _symmetry_equiv_pos_as_xyz
  'x, y, z'

loop_
  _atom_site_label
  _atom_site_occupancy
  _atom_site_fract_x
  _atom_site_fract_y
  _atom_site_fract_z
  _atom_site_thermal_displace_type
  _atom_site_B_iso_or_equiv
  _atom_site_type_symbol
  C1       1.0000 0.07900  0.59800  0.46520  Biso   1.000  C
  O1       1.0000 0.62000  0.90600  0.07830  Biso   1.000  O
  O2       1.0000 0.38940  0.60240  0.41600  Biso   1.000  O
  Br1      1.0000 0.28100  0.80970  0.39150  Biso   1.000  Br
  Br2      1.0000 0.27700  0.69250  0.10960  Biso   1.000  Br
  C2       1.0000 0.39400  0.67900  0.26000  Biso   1.000  C
  C3       1.0000 0.40600  0.73700  0.19200  Biso   1.000  C
  C4       1.0000 0.40100  0.76100  0.30600  Biso   1.000  C
  C5       1.0000 0.58300  0.83000  0.23200  Biso   1.000  C
  C6       1.0000 0.92100  0.40200  0.46520  Biso   1.000  C
  O3       1.0000 0.38000  0.09400  0.07830  Biso   1.000  O
  O4       1.0000 0.61060  0.39760  0.41600  Biso   1.000  O
  Br3      1.0000 0.71900  0.19030  0.39150  Biso   1.000  Br
  Br4      1.0000 0.72300  0.30750  0.10960  Biso   1.000  Br
  C7       1.0000 0.60600  0.32100  0.26000  Biso   1.000  C
  C8       1.0000 0.59400  0.26300  0.19200  Biso   1.000  C
  C9       1.0000 0.59900  0.23900  0.30600  Biso   1.000  C
  C10      1.0000 0.41700  0.17000  0.23200  Biso   1.000  C
  C11      1.0000 0.92100  0.59800  0.53480  Biso   1.000  C
  O5       1.0000 0.38000  0.90600  0.92170  Biso   1.000  O
  O6       1.0000 0.61060  0.60240  0.58400  Biso   1.000  O
  Br5      1.0000 0.71900  0.80970  0.60850  Biso   1.000  Br
  Br6      1.0000 0.72300  0.69250  0.89040  Biso   1.000  Br
  C12      1.0000 0.60600  0.67900  0.74000  Biso   1.000  C
  C13      1.0000 0.59400  0.73700  0.80800  Biso   1.000  C
  C14      1.0000 0.59900  0.76100  0.69400  Biso   1.000  C
  C15      1.0000 0.41700  0.83000  0.76800  Biso   1.000  C
  C16      1.0000 0.07900  0.40200  0.53480  Biso   1.000  C
  O7       1.0000 0.62000  0.09400  0.92170  Biso   1.000  O
  O8       1.0000 0.38940  0.39760  0.58400  Biso   1.000  O
  Br7      1.0000 0.28100  0.19030  0.60850  Biso   1.000  Br
  Br8      1.0000 0.27700  0.30750  0.89040  Biso   1.000  Br
  C17      1.0000 0.39400  0.32100  0.74000  Biso   1.000  C
  C18      1.0000 0.40600  0.26300  0.80800  Biso   1.000  C
  C19      1.0000 0.40100  0.23900  0.69400  Biso   1.000  C
  C20      1.0000 0.58300  0.17000  0.76800  Biso   1.000  C
  C21      1.0000 0.92100  0.40200  0.53480  Biso   1.000  C
  O9       1.0000 0.38000  0.09400  0.92170  Biso   1.000  O
  O10      1.0000 0.61060  0.39760  0.58400  Biso   1.000  O
  Br9      1.0000 0.71900  0.19030  0.60850  Biso   1.000  Br
  Br10     1.0000 0.72300  0.30750  0.89040  Biso   1.000  Br
  C22      1.0000 0.60600  0.32100  0.74000  Biso   1.000  C
  C23      1.0000 0.59400  0.26300  0.80800  Biso   1.000  C
  C24      1.0000 0.59900  0.23900  0.69400  Biso   1.000  C
  C25      1.0000 0.41700  0.17000  0.76800  Biso   1.000  C
  C26      1.0000 0.07900  0.59800  0.53480  Biso   1.000  C
  O11      1.0000 0.62000  0.90600  0.92170  Biso   1.000  O
  O12      1.0000 0.38940  0.60240  0.58400  Biso   1.000  O
  Br11     1.0000 0.28100  0.80970  0.60850  Biso   1.000  Br
  Br12     1.0000 0.27700  0.69250  0.89040  Biso   1.000  Br
  C27      1.0000 0.39400  0.67900  0.74000  Biso   1.000  C
  C28      1.0000 0.40600  0.73700  0.80800  Biso   1.000  C
  C29      1.0000 0.40100  0.76100  0.69400  Biso   1.000  C
  C30      1.0000 0.58300  0.83000  0.76800  Biso   1.000  C
  C31      1.0000 0.07900  0.40200  0.46520  Biso   1.000  C
  O13      1.0000 0.62000  0.09400  0.07830  Biso   1.000  O
  O14      1.0000 0.38940  0.39760  0.41600  Biso   1.000  O
  Br13     1.0000 0.28100  0.19030  0.39150  Biso   1.000  Br
  Br14     1.0000 0.27700  0.30750  0.10960  Biso   1.000  Br
  C32      1.0000 0.39400  0.32100  0.26000  Biso   1.000  C
  C33      1.0000 0.40600  0.26300  0.19200  Biso   1.000  C
  C34      1.0000 0.40100  0.23900  0.30600  Biso   1.000  C
  C35      1.0000 0.58300  0.17000  0.23200  Biso   1.000  C
  C36      1.0000 0.92100  0.59800  0.46520  Biso   1.000  C
  O15      1.0000 0.38000  0.90600  0.07830  Biso   1.000  O
  O16      1.0000 0.61060  0.60240  0.41600  Biso   1.000  O
  Br15     1.0000 0.71900  0.80970  0.39150  Biso   1.000  Br
  Br16     1.0000 0.72300  0.69250  0.10960  Biso   1.000  Br
  C37      1.0000 0.60600  0.67900  0.26000  Biso   1.000  C
  C38      1.0000 0.59400  0.73700  0.19200  Biso   1.000  C
  C39      1.0000 0.59900  0.76100  0.30600  Biso   1.000  C
  C40      1.0000 0.41700  0.83000  0.23200  Biso   1.000  C
  C41      1.0000 0.50000  0.87300  0.11400  Biso   1.000  C
  C42      1.0000 0.50000  0.80700  0.18280  Biso   1.000  C
  C43      1.0000 0.50000  0.63000  0.38680  Biso   1.000  C
  C44      1.0000 0.50000  0.69000  0.32280  Biso   1.000  C
  C45      1.0000 0.50000  0.12700  0.11400  Biso   1.000  C
  C46      1.0000 0.50000  0.19300  0.18280  Biso   1.000  C
  C47      1.0000 0.50000  0.37000  0.38680  Biso   1.000  C
  C48      1.0000 0.50000  0.31000  0.32280  Biso   1.000  C
  C49      1.0000 0.50000  0.87300  0.88600  Biso   1.000  C
  C50      1.0000 0.50000  0.80700  0.81720  Biso   1.000  C
  C51      1.0000 0.50000  0.63000  0.61320  Biso   1.000  C
  C52      1.0000 0.50000  0.69000  0.67720  Biso   1.000  C
  C53      1.0000 0.50000  0.12700  0.88600  Biso   1.000  C
  C54      1.0000 0.50000  0.19300  0.81720  Biso   1.000  C
  C55      1.0000 0.50000  0.37000  0.61320  Biso   1.000  C
  C56      1.0000 0.50000  0.31000  0.67720  Biso   1.000  C
  C57      1.0000 0.06200  0.50000  0.42200  Biso   1.000  C
  C58      1.0000 0.93800  0.50000  0.42200  Biso   1.000  C
  C59      1.0000 0.93800  0.50000  0.57800  Biso   1.000  C
  C60      1.0000 0.06200  0.50000  0.57800  Biso   1.000  C
  Zn1      1.0000 0.64790  0.00000  0.00000  Biso   1.000  Zn
  Zn2      1.0000 0.35210  0.00000  0.00000  Biso   1.000  Zn
  N1       1.0000 0.13500  0.50000  0.50000  Biso   1.000  N
  Zn3      1.0000 0.34860  0.50000  0.50000  Biso   1.000  Zn
  N2       1.0000 0.86500  0.50000  0.50000  Biso   1.000  N
  Zn4      1.0000 0.65140  0.50000  0.50000  Biso   1.000  Zn
