data_image0
_cell_length_a       21.944
_cell_length_b       21.944
_cell_length_c       9.58
_cell_angle_alpha    90
_cell_angle_beta     90
_cell_angle_gamma    90

_symmetry_space_group_name_H-M    "P 1"
_symmetry_int_tables_number       1

loop_
  _symmetry_equiv_pos_as_xyz
  'x, y, z'

loop_
  _atom_site_label
  _atom_site_occupancy
  _atom_site_fract_x
  _atom_site_fract_y
  _atom_site_fract_z
  _atom_site_thermal_displace_type
  _atom_site_B_iso_or_equiv
  _atom_site_type_symbol
  O1       1.0000 0.84970  0.74670  0.38750  Biso   1.000  O
  O2       1.0000 0.17000  0.75640  0.61800  Biso   1.000  O
  C1       1.0000 0.03720  0.71360  0.60200  Biso   1.000  C
  C2       1.0000 0.03290  0.79490  0.41200  Biso   1.000  C
  C3       1.0000 0.98270  0.71390  0.60600  Biso   1.000  C
  C4       1.0000 0.97610  0.78970  0.42700  Biso   1.000  C
  Cl1      1.0000 0.07200  0.84300  0.27800  Biso   1.000  Cl
  C5       1.0000 0.78700  0.79700  0.09300  Biso   1.000  C
  C6       1.0000 0.73300  0.81900  0.07500  Biso   1.000  C
  C7       1.0000 0.77610  0.67280  0.10100  Biso   1.000  C
  Cl2      1.0000 0.94700  0.84200  0.32000  Biso   1.000  Cl
  O3       1.0000 0.15030  0.25330  0.38750  Biso   1.000  O
  O4       1.0000 0.83000  0.24360  0.61800  Biso   1.000  O
  C8       1.0000 0.96280  0.28640  0.60200  Biso   1.000  C
  C9       1.0000 0.96710  0.20510  0.41200  Biso   1.000  C
  C10      1.0000 0.01730  0.28610  0.60600  Biso   1.000  C
  C11      1.0000 0.02390  0.21030  0.42700  Biso   1.000  C
  Cl3      1.0000 0.92800  0.15700  0.27800  Biso   1.000  Cl
  C12      1.0000 0.21300  0.20300  0.09300  Biso   1.000  C
  C13      1.0000 0.26700  0.18100  0.07500  Biso   1.000  C
  C14      1.0000 0.22390  0.32720  0.10100  Biso   1.000  C
  Cl4      1.0000 0.05300  0.15800  0.32000  Biso   1.000  Cl
  O5       1.0000 0.25330  0.84970  0.38750  Biso   1.000  O
  O6       1.0000 0.24360  0.17000  0.61800  Biso   1.000  O
  C15      1.0000 0.28640  0.03720  0.60200  Biso   1.000  C
  C16      1.0000 0.20510  0.03290  0.41200  Biso   1.000  C
  C17      1.0000 0.28610  0.98270  0.60600  Biso   1.000  C
  C18      1.0000 0.21030  0.97610  0.42700  Biso   1.000  C
  Cl5      1.0000 0.15700  0.07200  0.27800  Biso   1.000  Cl
  C19      1.0000 0.20300  0.78700  0.09300  Biso   1.000  C
  C20      1.0000 0.18100  0.73300  0.07500  Biso   1.000  C
  C21      1.0000 0.32720  0.77610  0.10100  Biso   1.000  C
  Cl6      1.0000 0.15800  0.94700  0.32000  Biso   1.000  Cl
  O7       1.0000 0.74670  0.15030  0.38750  Biso   1.000  O
  O8       1.0000 0.75640  0.83000  0.61800  Biso   1.000  O
  C22      1.0000 0.71360  0.96280  0.60200  Biso   1.000  C
  C23      1.0000 0.79490  0.96710  0.41200  Biso   1.000  C
  C24      1.0000 0.71390  0.01730  0.60600  Biso   1.000  C
  C25      1.0000 0.78970  0.02390  0.42700  Biso   1.000  C
  Cl7      1.0000 0.84300  0.92800  0.27800  Biso   1.000  Cl
  C26      1.0000 0.79700  0.21300  0.09300  Biso   1.000  C
  C27      1.0000 0.81900  0.26700  0.07500  Biso   1.000  C
  C28      1.0000 0.67280  0.22390  0.10100  Biso   1.000  C
  Cl8      1.0000 0.84200  0.05300  0.32000  Biso   1.000  Cl
  O9       1.0000 0.65030  0.24670  0.61250  Biso   1.000  O
  O10      1.0000 0.33000  0.25640  0.38200  Biso   1.000  O
  C29      1.0000 0.46280  0.21360  0.39800  Biso   1.000  C
  C30      1.0000 0.46710  0.29490  0.58800  Biso   1.000  C
  C31      1.0000 0.51730  0.21390  0.39400  Biso   1.000  C
  C32      1.0000 0.52390  0.28970  0.57300  Biso   1.000  C
  Cl9      1.0000 0.42800  0.34300  0.72200  Biso   1.000  Cl
  C33      1.0000 0.71300  0.29700  0.90700  Biso   1.000  C
  C34      1.0000 0.76700  0.31900  0.92500  Biso   1.000  C
  C35      1.0000 0.72390  0.17280  0.89900  Biso   1.000  C
  Cl10     1.0000 0.55300  0.34200  0.68000  Biso   1.000  Cl
  O11      1.0000 0.34970  0.75330  0.61250  Biso   1.000  O
  O12      1.0000 0.67000  0.74360  0.38200  Biso   1.000  O
  C36      1.0000 0.53720  0.78640  0.39800  Biso   1.000  C
  C37      1.0000 0.53290  0.70510  0.58800  Biso   1.000  C
  C38      1.0000 0.48270  0.78610  0.39400  Biso   1.000  C
  C39      1.0000 0.47610  0.71030  0.57300  Biso   1.000  C
  Cl11     1.0000 0.57200  0.65700  0.72200  Biso   1.000  Cl
  C40      1.0000 0.28700  0.70300  0.90700  Biso   1.000  C
  C41      1.0000 0.23300  0.68100  0.92500  Biso   1.000  C
  C42      1.0000 0.27610  0.82720  0.89900  Biso   1.000  C
  Cl12     1.0000 0.44700  0.65800  0.68000  Biso   1.000  Cl
  O13      1.0000 0.24670  0.34970  0.61250  Biso   1.000  O
  O14      1.0000 0.25640  0.67000  0.38200  Biso   1.000  O
  C43      1.0000 0.21360  0.53720  0.39800  Biso   1.000  C
  C44      1.0000 0.29490  0.53290  0.58800  Biso   1.000  C
  C45      1.0000 0.21390  0.48270  0.39400  Biso   1.000  C
  C46      1.0000 0.28970  0.47610  0.57300  Biso   1.000  C
  Cl13     1.0000 0.34300  0.57200  0.72200  Biso   1.000  Cl
  C47      1.0000 0.29700  0.28700  0.90700  Biso   1.000  C
  C48      1.0000 0.31900  0.23300  0.92500  Biso   1.000  C
  C49      1.0000 0.17280  0.27610  0.89900  Biso   1.000  C
  Cl14     1.0000 0.34200  0.44700  0.68000  Biso   1.000  Cl
  O15      1.0000 0.75330  0.65030  0.61250  Biso   1.000  O
  O16      1.0000 0.74360  0.33000  0.38200  Biso   1.000  O
  C50      1.0000 0.78640  0.46280  0.39800  Biso   1.000  C
  C51      1.0000 0.70510  0.46710  0.58800  Biso   1.000  C
  C52      1.0000 0.78610  0.51730  0.39400  Biso   1.000  C
  C53      1.0000 0.71030  0.52390  0.57300  Biso   1.000  C
  Cl15     1.0000 0.65700  0.42800  0.72200  Biso   1.000  Cl
  C54      1.0000 0.70300  0.71300  0.90700  Biso   1.000  C
  C55      1.0000 0.68100  0.76700  0.92500  Biso   1.000  C
  C56      1.0000 0.82720  0.72390  0.89900  Biso   1.000  C
  Cl16     1.0000 0.65800  0.55300  0.68000  Biso   1.000  Cl
  O17      1.0000 0.15030  0.25330  0.61250  Biso   1.000  O
  O18      1.0000 0.83000  0.24360  0.38200  Biso   1.000  O
  C57      1.0000 0.96280  0.28640  0.39800  Biso   1.000  C
  C58      1.0000 0.96710  0.20510  0.58800  Biso   1.000  C
  C59      1.0000 0.01730  0.28610  0.39400  Biso   1.000  C
  C60      1.0000 0.02390  0.21030  0.57300  Biso   1.000  C
  Cl17     1.0000 0.92800  0.15700  0.72200  Biso   1.000  Cl
  C61      1.0000 0.21300  0.20300  0.90700  Biso   1.000  C
  C62      1.0000 0.26700  0.18100  0.92500  Biso   1.000  C
  C63      1.0000 0.22390  0.32720  0.89900  Biso   1.000  C
  Cl18     1.0000 0.05300  0.15800  0.68000  Biso   1.000  Cl
  O19      1.0000 0.84970  0.74670  0.61250  Biso   1.000  O
  O20      1.0000 0.17000  0.75640  0.38200  Biso   1.000  O
  C64      1.0000 0.03720  0.71360  0.39800  Biso   1.000  C
  C65      1.0000 0.03290  0.79490  0.58800  Biso   1.000  C
  C66      1.0000 0.98270  0.71390  0.39400  Biso   1.000  C
  C67      1.0000 0.97610  0.78970  0.57300  Biso   1.000  C
  Cl19     1.0000 0.07200  0.84300  0.72200  Biso   1.000  Cl
  C68      1.0000 0.78700  0.79700  0.90700  Biso   1.000  C
  C69      1.0000 0.73300  0.81900  0.92500  Biso   1.000  C
  C70      1.0000 0.77610  0.67280  0.89900  Biso   1.000  C
  Cl20     1.0000 0.94700  0.84200  0.68000  Biso   1.000  Cl
  O21      1.0000 0.74670  0.15030  0.61250  Biso   1.000  O
  O22      1.0000 0.75640  0.83000  0.38200  Biso   1.000  O
  C71      1.0000 0.71360  0.96280  0.39800  Biso   1.000  C
  C72      1.0000 0.79490  0.96710  0.58800  Biso   1.000  C
  C73      1.0000 0.71390  0.01730  0.39400  Biso   1.000  C
  C74      1.0000 0.78970  0.02390  0.57300  Biso   1.000  C
  Cl21     1.0000 0.84300  0.92800  0.72200  Biso   1.000  Cl
  C75      1.0000 0.79700  0.21300  0.90700  Biso   1.000  C
  C76      1.0000 0.81900  0.26700  0.92500  Biso   1.000  C
  C77      1.0000 0.67280  0.22390  0.89900  Biso   1.000  C
  Cl22     1.0000 0.84200  0.05300  0.68000  Biso   1.000  Cl
  O23      1.0000 0.25330  0.84970  0.61250  Biso   1.000  O
  O24      1.0000 0.24360  0.17000  0.38200  Biso   1.000  O
  C78      1.0000 0.28640  0.03720  0.39800  Biso   1.000  C
  C79      1.0000 0.20510  0.03290  0.58800  Biso   1.000  C
  C80      1.0000 0.28610  0.98270  0.39400  Biso   1.000  C
  C81      1.0000 0.21030  0.97610  0.57300  Biso   1.000  C
  Cl23     1.0000 0.15700  0.07200  0.72200  Biso   1.000  Cl
  C82      1.0000 0.20300  0.78700  0.90700  Biso   1.000  C
  C83      1.0000 0.18100  0.73300  0.92500  Biso   1.000  C
  C84      1.0000 0.32720  0.77610  0.89900  Biso   1.000  C
  Cl24     1.0000 0.15800  0.94700  0.68000  Biso   1.000  Cl
  O25      1.0000 0.34970  0.75330  0.38750  Biso   1.000  O
  O26      1.0000 0.67000  0.74360  0.61800  Biso   1.000  O
  C85      1.0000 0.53720  0.78640  0.60200  Biso   1.000  C
  C86      1.0000 0.53290  0.70510  0.41200  Biso   1.000  C
  C87      1.0000 0.48270  0.78610  0.60600  Biso   1.000  C
  C88      1.0000 0.47610  0.71030  0.42700  Biso   1.000  C
  Cl25     1.0000 0.57200  0.65700  0.27800  Biso   1.000  Cl
  C89      1.0000 0.28700  0.70300  0.09300  Biso   1.000  C
  C90      1.0000 0.23300  0.68100  0.07500  Biso   1.000  C
  C91      1.0000 0.27610  0.82720  0.10100  Biso   1.000  C
  Cl26     1.0000 0.44700  0.65800  0.32000  Biso   1.000  Cl
  O27      1.0000 0.65030  0.24670  0.38750  Biso   1.000  O
  O28      1.0000 0.33000  0.25640  0.61800  Biso   1.000  O
  C92      1.0000 0.46280  0.21360  0.60200  Biso   1.000  C
  C93      1.0000 0.46710  0.29490  0.41200  Biso   1.000  C
  C94      1.0000 0.51730  0.21390  0.60600  Biso   1.000  C
  C95      1.0000 0.52390  0.28970  0.42700  Biso   1.000  C
  Cl27     1.0000 0.42800  0.34300  0.27800  Biso   1.000  Cl
  C96      1.0000 0.71300  0.29700  0.09300  Biso   1.000  C
  C97      1.0000 0.76700  0.31900  0.07500  Biso   1.000  C
  C98      1.0000 0.72390  0.17280  0.10100  Biso   1.000  C
  Cl28     1.0000 0.55300  0.34200  0.32000  Biso   1.000  Cl
  O29      1.0000 0.75330  0.65030  0.38750  Biso   1.000  O
  O30      1.0000 0.74360  0.33000  0.61800  Biso   1.000  O
  C99      1.0000 0.78640  0.46280  0.60200  Biso   1.000  C
  C100     1.0000 0.70510  0.46710  0.41200  Biso   1.000  C
  C101     1.0000 0.78610  0.51730  0.60600  Biso   1.000  C
  C102     1.0000 0.71030  0.52390  0.42700  Biso   1.000  C
  Cl29     1.0000 0.65700  0.42800  0.27800  Biso   1.000  Cl
  C103     1.0000 0.70300  0.71300  0.09300  Biso   1.000  C
  C104     1.0000 0.68100  0.76700  0.07500  Biso   1.000  C
  C105     1.0000 0.82720  0.72390  0.10100  Biso   1.000  C
  Cl30     1.0000 0.65800  0.55300  0.32000  Biso   1.000  Cl
  O31      1.0000 0.24670  0.34970  0.38750  Biso   1.000  O
  O32      1.0000 0.25640  0.67000  0.61800  Biso   1.000  O
  C106     1.0000 0.21360  0.53720  0.60200  Biso   1.000  C
  C107     1.0000 0.29490  0.53290  0.41200  Biso   1.000  C
  C108     1.0000 0.21390  0.48270  0.60600  Biso   1.000  C
  C109     1.0000 0.28970  0.47610  0.42700  Biso   1.000  C
  Cl31     1.0000 0.34300  0.57200  0.27800  Biso   1.000  Cl
  C110     1.0000 0.29700  0.28700  0.09300  Biso   1.000  C
  C111     1.0000 0.31900  0.23300  0.07500  Biso   1.000  C
  C112     1.0000 0.17280  0.27610  0.10100  Biso   1.000  C
  Cl32     1.0000 0.34200  0.44700  0.32000  Biso   1.000  Cl
  Zn1      1.0000 0.75739  0.74261  0.34900  Biso   1.000  Zn
  N1       1.0000 0.75760  0.74240  0.13000  Biso   1.000  N
  Zn2      1.0000 0.24261  0.25739  0.34900  Biso   1.000  Zn
  N2       1.0000 0.24240  0.25760  0.13000  Biso   1.000  N
  Zn3      1.0000 0.25739  0.75739  0.34900  Biso   1.000  Zn
  N3       1.0000 0.25760  0.75760  0.13000  Biso   1.000  N
  Zn4      1.0000 0.74261  0.24261  0.34900  Biso   1.000  Zn
  N4       1.0000 0.74240  0.24240  0.13000  Biso   1.000  N
  Zn5      1.0000 0.74261  0.24261  0.65100  Biso   1.000  Zn
  N5       1.0000 0.74240  0.24240  0.87000  Biso   1.000  N
  Zn6      1.0000 0.25739  0.75739  0.65100  Biso   1.000  Zn
  N6       1.0000 0.25760  0.75760  0.87000  Biso   1.000  N
  Zn7      1.0000 0.24261  0.25739  0.65100  Biso   1.000  Zn
  N7       1.0000 0.24240  0.25760  0.87000  Biso   1.000  N
  Zn8      1.0000 0.75739  0.74261  0.65100  Biso   1.000  Zn
  N8       1.0000 0.75760  0.74240  0.87000  Biso   1.000  N
  C113     1.0000 0.13670  0.75950  0.50000  Biso   1.000  C
  C114     1.0000 0.87830  0.75530  0.50000  Biso   1.000  C
  C115     1.0000 0.93970  0.75050  0.50000  Biso   1.000  C
  C116     1.0000 0.07480  0.75770  0.50000  Biso   1.000  C
  C117     1.0000 0.86330  0.24050  0.50000  Biso   1.000  C
  C118     1.0000 0.12170  0.24470  0.50000  Biso   1.000  C
  C119     1.0000 0.06030  0.24950  0.50000  Biso   1.000  C
  C120     1.0000 0.92520  0.24230  0.50000  Biso   1.000  C
  C121     1.0000 0.24050  0.13670  0.50000  Biso   1.000  C
  C122     1.0000 0.24470  0.87830  0.50000  Biso   1.000  C
  C123     1.0000 0.24950  0.93970  0.50000  Biso   1.000  C
  C124     1.0000 0.24230  0.07480  0.50000  Biso   1.000  C
  C125     1.0000 0.75950  0.86330  0.50000  Biso   1.000  C
  C126     1.0000 0.75530  0.12170  0.50000  Biso   1.000  C
  C127     1.0000 0.75050  0.06030  0.50000  Biso   1.000  C
  C128     1.0000 0.75770  0.92520  0.50000  Biso   1.000  C
  C129     1.0000 0.36330  0.25950  0.50000  Biso   1.000  C
  C130     1.0000 0.62170  0.25530  0.50000  Biso   1.000  C
  C131     1.0000 0.56030  0.25050  0.50000  Biso   1.000  C
  C132     1.0000 0.42520  0.25770  0.50000  Biso   1.000  C
  C133     1.0000 0.63670  0.74050  0.50000  Biso   1.000  C
  C134     1.0000 0.37830  0.74470  0.50000  Biso   1.000  C
  C135     1.0000 0.43970  0.74950  0.50000  Biso   1.000  C
  C136     1.0000 0.57480  0.74230  0.50000  Biso   1.000  C
  C137     1.0000 0.25950  0.63670  0.50000  Biso   1.000  C
  C138     1.0000 0.25530  0.37830  0.50000  Biso   1.000  C
  C139     1.0000 0.25050  0.43970  0.50000  Biso   1.000  C
  C140     1.0000 0.25770  0.57480  0.50000  Biso   1.000  C
  C141     1.0000 0.74050  0.36330  0.50000  Biso   1.000  C
  C142     1.0000 0.74470  0.62170  0.50000  Biso   1.000  C
  C143     1.0000 0.74950  0.56030  0.50000  Biso   1.000  C
  C144     1.0000 0.74230  0.42520  0.50000  Biso   1.000  C
