data_image0
_cell_length_a       15.8026
_cell_length_b       16.7756
_cell_length_c       12.8597
_cell_angle_alpha    90
_cell_angle_beta     90
_cell_angle_gamma    90

_symmetry_space_group_name_H-M    "P 1"
_symmetry_int_tables_number       1

loop_
  _symmetry_equiv_pos_as_xyz
  'x, y, z'

loop_
  _atom_site_label
  _atom_site_occupancy
  _atom_site_fract_x
  _atom_site_fract_y
  _atom_site_fract_z
  _atom_site_thermal_displace_type
  _atom_site_B_iso_or_equiv
  _atom_site_type_symbol
  O1       1.0000 0.09020  0.08852  0.74760  Biso   1.000  O
  O2       1.0000 0.39880  0.40781  0.74240  Biso   1.000  O
  O3       1.0000 0.30870  0.43550  0.61210  Biso   1.000  O
  O4       1.0000 0.13310  0.10613  0.91000  Biso   1.000  O
  C1       1.0000 0.33210  0.39630  0.69010  Biso   1.000  C
  C2       1.0000 0.27640  0.32930  0.72560  Biso   1.000  C
  C3       1.0000 0.13090  0.12490  0.81640  Biso   1.000  C
  C4       1.0000 0.18020  0.19820  0.78510  Biso   1.000  C
  C5       1.0000 0.24280  0.22620  0.84820  Biso   1.000  C
  H1       1.0000 0.25300  0.20160  0.91180  Biso   1.000  H
  C6       1.0000 0.29150  0.29120  0.81820  Biso   1.000  C
  H2       1.0000 0.33470  0.30900  0.86130  Biso   1.000  H
  C7       1.0000 0.20920  0.30280  0.66350  Biso   1.000  C
  H3       1.0000 0.19550  0.33090  0.60350  Biso   1.000  H
  C8       1.0000 0.16280  0.23600  0.68910  Biso   1.000  C
  O5       1.0000 0.10610  0.21140  0.62530  Biso   1.000  O
  H4       1.0000 0.06510  0.19350  0.57900  Biso   1.000  H
  O6       1.0000 0.99325  0.01908  0.07985  Biso   1.000  O
  H5       1.0000 0.83710  0.03650  0.94820  Biso   1.000  H
  H6       1.0000 0.83710  0.94730  0.98460  Biso   1.000  H
  H7       1.0000 0.83710  0.01610  0.06720  Biso   1.000  H
  O7       1.0000 0.59020  0.58852  0.74760  Biso   1.000  O
  O8       1.0000 0.89880  0.90781  0.74240  Biso   1.000  O
  O9       1.0000 0.80870  0.93550  0.61210  Biso   1.000  O
  O10      1.0000 0.63310  0.60613  0.91000  Biso   1.000  O
  C9       1.0000 0.83210  0.89630  0.69010  Biso   1.000  C
  C10      1.0000 0.77640  0.82930  0.72560  Biso   1.000  C
  C11      1.0000 0.63090  0.62490  0.81640  Biso   1.000  C
  C12      1.0000 0.68020  0.69820  0.78510  Biso   1.000  C
  C13      1.0000 0.74280  0.72620  0.84820  Biso   1.000  C
  H8       1.0000 0.75300  0.70160  0.91180  Biso   1.000  H
  C14      1.0000 0.79150  0.79120  0.81820  Biso   1.000  C
  H9       1.0000 0.83470  0.80900  0.86130  Biso   1.000  H
  C15      1.0000 0.70920  0.80280  0.66350  Biso   1.000  C
  H10      1.0000 0.69550  0.83090  0.60350  Biso   1.000  H
  C16      1.0000 0.66280  0.73600  0.68910  Biso   1.000  C
  O11      1.0000 0.60610  0.71140  0.62530  Biso   1.000  O
  H11      1.0000 0.56510  0.69350  0.57900  Biso   1.000  H
  O12      1.0000 0.49325  0.51908  0.07985  Biso   1.000  O
  H12      1.0000 0.33710  0.53650  0.94820  Biso   1.000  H
  H13      1.0000 0.33710  0.44730  0.98460  Biso   1.000  H
  H14      1.0000 0.33710  0.51610  0.06720  Biso   1.000  H
  O13      1.0000 0.90980  0.91148  0.24760  Biso   1.000  O
  O14      1.0000 0.60120  0.59219  0.24240  Biso   1.000  O
  O15      1.0000 0.69130  0.56450  0.11210  Biso   1.000  O
  O16      1.0000 0.86690  0.89387  0.41000  Biso   1.000  O
  C17      1.0000 0.66790  0.60370  0.19010  Biso   1.000  C
  C18      1.0000 0.72360  0.67070  0.22560  Biso   1.000  C
  C19      1.0000 0.86910  0.87510  0.31640  Biso   1.000  C
  C20      1.0000 0.81980  0.80180  0.28510  Biso   1.000  C
  C21      1.0000 0.75720  0.77380  0.34820  Biso   1.000  C
  H15      1.0000 0.74700  0.79840  0.41180  Biso   1.000  H
  C22      1.0000 0.70850  0.70880  0.31820  Biso   1.000  C
  H16      1.0000 0.66530  0.69100  0.36130  Biso   1.000  H
  C23      1.0000 0.79080  0.69720  0.16350  Biso   1.000  C
  H17      1.0000 0.80450  0.66910  0.10350  Biso   1.000  H
  C24      1.0000 0.83720  0.76400  0.18910  Biso   1.000  C
  O17      1.0000 0.89390  0.78860  0.12530  Biso   1.000  O
  H18      1.0000 0.93490  0.80650  0.07900  Biso   1.000  H
  O18      1.0000 0.00675  0.98092  0.57985  Biso   1.000  O
  H19      1.0000 0.16290  0.96350  0.44820  Biso   1.000  H
  H20      1.0000 0.16290  0.05270  0.48460  Biso   1.000  H
  H21      1.0000 0.16290  0.98390  0.56720  Biso   1.000  H
  O19      1.0000 0.40980  0.41148  0.24760  Biso   1.000  O
  O20      1.0000 0.10120  0.09219  0.24240  Biso   1.000  O
  O21      1.0000 0.19130  0.06450  0.11210  Biso   1.000  O
  O22      1.0000 0.36690  0.39387  0.41000  Biso   1.000  O
  C25      1.0000 0.16790  0.10370  0.19010  Biso   1.000  C
  C26      1.0000 0.22360  0.17070  0.22560  Biso   1.000  C
  C27      1.0000 0.36910  0.37510  0.31640  Biso   1.000  C
  C28      1.0000 0.31980  0.30180  0.28510  Biso   1.000  C
  C29      1.0000 0.25720  0.27380  0.34820  Biso   1.000  C
  H22      1.0000 0.24700  0.29840  0.41180  Biso   1.000  H
  C30      1.0000 0.20850  0.20880  0.31820  Biso   1.000  C
  H23      1.0000 0.16530  0.19100  0.36130  Biso   1.000  H
  C31      1.0000 0.29080  0.19720  0.16350  Biso   1.000  C
  H24      1.0000 0.30450  0.16910  0.10350  Biso   1.000  H
  C32      1.0000 0.33720  0.26400  0.18910  Biso   1.000  C
  O23      1.0000 0.39390  0.28860  0.12530  Biso   1.000  O
  H25      1.0000 0.43490  0.30650  0.07900  Biso   1.000  H
  O24      1.0000 0.50675  0.48092  0.57985  Biso   1.000  O
  H26      1.0000 0.66290  0.46350  0.44820  Biso   1.000  H
  H27      1.0000 0.66290  0.55270  0.48460  Biso   1.000  H
  H28      1.0000 0.66290  0.48390  0.56720  Biso   1.000  H
  O25      1.0000 0.90980  0.08852  0.75240  Biso   1.000  O
  O26      1.0000 0.60120  0.40781  0.75760  Biso   1.000  O
  O27      1.0000 0.69130  0.43550  0.88790  Biso   1.000  O
  O28      1.0000 0.86690  0.10613  0.59000  Biso   1.000  O
  C33      1.0000 0.66790  0.39630  0.80990  Biso   1.000  C
  C34      1.0000 0.72360  0.32930  0.77440  Biso   1.000  C
  C35      1.0000 0.86910  0.12490  0.68360  Biso   1.000  C
  C36      1.0000 0.81980  0.19820  0.71490  Biso   1.000  C
  C37      1.0000 0.75720  0.22620  0.65180  Biso   1.000  C
  H29      1.0000 0.74700  0.20160  0.58820  Biso   1.000  H
  C38      1.0000 0.70850  0.29120  0.68180  Biso   1.000  C
  H30      1.0000 0.66530  0.30900  0.63870  Biso   1.000  H
  C39      1.0000 0.79080  0.30280  0.83650  Biso   1.000  C
  H31      1.0000 0.80450  0.33090  0.89650  Biso   1.000  H
  C40      1.0000 0.83720  0.23600  0.81090  Biso   1.000  C
  O29      1.0000 0.89390  0.21140  0.87470  Biso   1.000  O
  H32      1.0000 0.93490  0.19350  0.92100  Biso   1.000  H
  O30      1.0000 0.00675  0.01908  0.42015  Biso   1.000  O
  H33      1.0000 0.16290  0.03650  0.55180  Biso   1.000  H
  H34      1.0000 0.16290  0.94730  0.51540  Biso   1.000  H
  H35      1.0000 0.16290  0.01610  0.43280  Biso   1.000  H
  O31      1.0000 0.40980  0.58852  0.75240  Biso   1.000  O
  O32      1.0000 0.10120  0.90781  0.75760  Biso   1.000  O
  O33      1.0000 0.19130  0.93550  0.88790  Biso   1.000  O
  O34      1.0000 0.36690  0.60613  0.59000  Biso   1.000  O
  C41      1.0000 0.16790  0.89630  0.80990  Biso   1.000  C
  C42      1.0000 0.22360  0.82930  0.77440  Biso   1.000  C
  C43      1.0000 0.36910  0.62490  0.68360  Biso   1.000  C
  C44      1.0000 0.31980  0.69820  0.71490  Biso   1.000  C
  C45      1.0000 0.25720  0.72620  0.65180  Biso   1.000  C
  H36      1.0000 0.24700  0.70160  0.58820  Biso   1.000  H
  C46      1.0000 0.20850  0.79120  0.68180  Biso   1.000  C
  H37      1.0000 0.16530  0.80900  0.63870  Biso   1.000  H
  C47      1.0000 0.29080  0.80280  0.83650  Biso   1.000  C
  H38      1.0000 0.30450  0.83090  0.89650  Biso   1.000  H
  C48      1.0000 0.33720  0.73600  0.81090  Biso   1.000  C
  O35      1.0000 0.39390  0.71140  0.87470  Biso   1.000  O
  H39      1.0000 0.43490  0.69350  0.92100  Biso   1.000  H
  O36      1.0000 0.50675  0.51908  0.42015  Biso   1.000  O
  H40      1.0000 0.66290  0.53650  0.55180  Biso   1.000  H
  H41      1.0000 0.66290  0.44730  0.51540  Biso   1.000  H
  H42      1.0000 0.66290  0.51610  0.43280  Biso   1.000  H
  O37      1.0000 0.09020  0.91148  0.25240  Biso   1.000  O
  O38      1.0000 0.39880  0.59219  0.25760  Biso   1.000  O
  O39      1.0000 0.30870  0.56450  0.38790  Biso   1.000  O
  O40      1.0000 0.13310  0.89387  0.09000  Biso   1.000  O
  C49      1.0000 0.33210  0.60370  0.30990  Biso   1.000  C
  C50      1.0000 0.27640  0.67070  0.27440  Biso   1.000  C
  C51      1.0000 0.13090  0.87510  0.18360  Biso   1.000  C
  C52      1.0000 0.18020  0.80180  0.21490  Biso   1.000  C
  C53      1.0000 0.24280  0.77380  0.15180  Biso   1.000  C
  H43      1.0000 0.25300  0.79840  0.08820  Biso   1.000  H
  C54      1.0000 0.29150  0.70880  0.18180  Biso   1.000  C
  H44      1.0000 0.33470  0.69100  0.13870  Biso   1.000  H
  C55      1.0000 0.20920  0.69720  0.33650  Biso   1.000  C
  H45      1.0000 0.19550  0.66910  0.39650  Biso   1.000  H
  C56      1.0000 0.16280  0.76400  0.31090  Biso   1.000  C
  O41      1.0000 0.10610  0.78860  0.37470  Biso   1.000  O
  H46      1.0000 0.06510  0.80650  0.42100  Biso   1.000  H
  O42      1.0000 0.99325  0.98092  0.92015  Biso   1.000  O
  H47      1.0000 0.83710  0.96350  0.05180  Biso   1.000  H
  H48      1.0000 0.83710  0.05270  0.01540  Biso   1.000  H
  H49      1.0000 0.83710  0.98390  0.93280  Biso   1.000  H
  O43      1.0000 0.59020  0.41148  0.25240  Biso   1.000  O
  O44      1.0000 0.89880  0.09219  0.25760  Biso   1.000  O
  O45      1.0000 0.80870  0.06450  0.38790  Biso   1.000  O
  O46      1.0000 0.63310  0.39387  0.09000  Biso   1.000  O
  C57      1.0000 0.83210  0.10370  0.30990  Biso   1.000  C
  C58      1.0000 0.77640  0.17070  0.27440  Biso   1.000  C
  C59      1.0000 0.63090  0.37510  0.18360  Biso   1.000  C
  C60      1.0000 0.68020  0.30180  0.21490  Biso   1.000  C
  C61      1.0000 0.74280  0.27380  0.15180  Biso   1.000  C
  H50      1.0000 0.75300  0.29840  0.08820  Biso   1.000  H
  C62      1.0000 0.79150  0.20880  0.18180  Biso   1.000  C
  H51      1.0000 0.83470  0.19100  0.13870  Biso   1.000  H
  C63      1.0000 0.70920  0.19720  0.33650  Biso   1.000  C
  H52      1.0000 0.69550  0.16910  0.39650  Biso   1.000  H
  C64      1.0000 0.66280  0.26400  0.31090  Biso   1.000  C
  O47      1.0000 0.60610  0.28860  0.37470  Biso   1.000  O
  H53      1.0000 0.56510  0.30650  0.42100  Biso   1.000  H
  O48      1.0000 0.49325  0.48092  0.92015  Biso   1.000  O
  H54      1.0000 0.33710  0.46350  0.05180  Biso   1.000  H
  H55      1.0000 0.33710  0.55270  0.01540  Biso   1.000  H
  H56      1.0000 0.33710  0.48390  0.93280  Biso   1.000  H
  Mn1      1.0000 0.00000  0.00796  0.25000  Biso   1.000  Mn
  Mn2      1.0000 0.50000  0.50796  0.25000  Biso   1.000  Mn
  Mn3      1.0000 0.00000  0.99204  0.75000  Biso   1.000  Mn
  Mn4      1.0000 0.50000  0.49204  0.75000  Biso   1.000  Mn
  Mn5      1.0000 0.12119  0.00000  0.00000  Biso   1.000  Mn
  C65      1.0000 0.95270  0.00000  0.00000  Biso   1.000  C
  C66      1.0000 0.85730  0.00000  0.00000  Biso   1.000  C
  Mn6      1.0000 0.62119  0.50000  0.00000  Biso   1.000  Mn
  C67      1.0000 0.45270  0.50000  0.00000  Biso   1.000  C
  C68      1.0000 0.35730  0.50000  0.00000  Biso   1.000  C
  Mn7      1.0000 0.87881  0.00000  0.50000  Biso   1.000  Mn
  C69      1.0000 0.04730  0.00000  0.50000  Biso   1.000  C
  C70      1.0000 0.14270  0.00000  0.50000  Biso   1.000  C
  Mn8      1.0000 0.37881  0.50000  0.50000  Biso   1.000  Mn
  C71      1.0000 0.54730  0.50000  0.50000  Biso   1.000  C
  C72      1.0000 0.64270  0.50000  0.50000  Biso   1.000  C
