data_image0
_cell_length_a       18.3094
_cell_length_b       18.3094
_cell_length_c       19.8946
_cell_angle_alpha    90
_cell_angle_beta     90
_cell_angle_gamma    120

_symmetry_space_group_name_H-M    "P 1"
_symmetry_int_tables_number       1

loop_
  _symmetry_equiv_pos_as_xyz
  'x, y, z'

loop_
  _atom_site_label
  _atom_site_occupancy
  _atom_site_fract_x
  _atom_site_fract_y
  _atom_site_fract_z
  _atom_site_thermal_displace_type
  _atom_site_B_iso_or_equiv
  _atom_site_type_symbol
  Sm1      1.0000 0.41655  0.50730  0.55584  Biso   1.000  Sm
  O1       1.0000 0.31520  0.36290  0.51810  Biso   1.000  O
  O2       1.0000 0.33040  0.57370  0.70380  Biso   1.000  O
  O3       1.0000 0.37730  0.49010  0.66780  Biso   1.000  O
  C1       1.0000 0.35050  0.51870  0.71350  Biso   1.000  C
  C2       1.0000 0.40900  0.52970  0.90080  Biso   1.000  C
  C3       1.0000 0.34640  0.48330  0.78130  Biso   1.000  C
  H1       1.0000 0.37380  0.44910  0.78370  Biso   1.000  H
  C4       1.0000 0.35410  0.53060  0.84630  Biso   1.000  C
  H2       1.0000 0.35490  0.58410  0.84060  Biso   1.000  H
  C5       1.0000 0.36590  0.35370  0.48260  Biso   1.000  C
  C6       1.0000 0.33810  0.26580  0.45280  Biso   1.000  C
  H3       1.0000 0.28340  0.22190  0.47010  Biso   1.000  H
  C7       1.0000 0.27120  0.45260  0.82850  Biso   1.000  C
  C8       1.0000 0.19920  0.46700  0.81170  Biso   1.000  C
  H4       1.0000 0.22050  0.51990  0.78870  Biso   1.000  H
  H5       1.0000 0.17150  0.46800  0.85240  Biso   1.000  H
  H6       1.0000 0.15970  0.42220  0.78330  Biso   1.000  H
  C9       1.0000 0.24390  0.36960  0.86540  Biso   1.000  C
  H7       1.0000 0.20320  0.32350  0.83870  Biso   1.000  H
  H8       1.0000 0.21930  0.37010  0.90780  Biso   1.000  H
  H9       1.0000 0.29220  0.36310  0.87270  Biso   1.000  H
  C10      1.0000 0.39190  0.23020  0.42440  Biso   1.000  C
  H10      1.0000 0.36470  0.16870  0.42750  Biso   1.000  H
  O4       1.0000 0.53690  0.35010  0.40850  Biso   1.000  O
  O5       1.0000 0.51750  0.22740  0.43820  Biso   1.000  O
  C11      1.0000 0.48680  0.27420  0.42640  Biso   1.000  C
  C12      1.0000 0.27480  0.19550  0.33670  Biso   1.000  C
  H11      1.0000 0.25290  0.14200  0.35890  Biso   1.000  H
  H12      1.0000 0.29410  0.19220  0.29260  Biso   1.000  H
  H13      1.0000 0.23130  0.21000  0.33320  Biso   1.000  H
  O6       1.0000 0.43810  0.41570  0.46810  Biso   1.000  O
  O7       1.0000 0.42590  0.57970  0.95010  Biso   1.000  O
  O8       1.0000 0.43470  0.47750  0.89490  Biso   1.000  O
  C13      1.0000 0.34620  0.26110  0.37620  Biso   1.000  C
  C14      1.0000 0.39100  0.33930  0.33230  Biso   1.000  C
  H14      1.0000 0.35040  0.35250  0.31400  Biso   1.000  H
  H15      1.0000 0.41950  0.32890  0.29620  Biso   1.000  H
  H16      1.0000 0.43140  0.38590  0.35880  Biso   1.000  H
  C15      1.0000 0.33240  0.23720  0.39070  Biso   1.000  C
  C16      1.0000 0.36100  0.30270  0.33650  Biso   1.000  C
  H17      1.0000 0.33190  0.33390  0.34090  Biso   1.000  H
  H18      1.0000 0.34890  0.27570  0.29330  Biso   1.000  H
  H19      1.0000 0.42060  0.34050  0.34050  Biso   1.000  H
  C17      1.0000 0.33980  0.26990  0.45940  Biso   1.000  C
  H20      1.0000 0.29480  0.22800  0.48800  Biso   1.000  H
  C18      1.0000 0.39640  0.23630  0.43410  Biso   1.000  C
  H21      1.0000 0.37420  0.17890  0.45140  Biso   1.000  H
  C19      1.0000 0.25790  0.15930  0.36530  Biso   1.000  C
  H22      1.0000 0.21380  0.17120  0.35430  Biso   1.000  H
  H23      1.0000 0.23830  0.11650  0.39930  Biso   1.000  H
  H24      1.0000 0.27340  0.14000  0.32590  Biso   1.000  H
  Sm2      1.0000 0.49270  0.90925  0.55584  Biso   1.000  Sm
  O9       1.0000 0.63710  0.95230  0.51810  Biso   1.000  O
  O10      1.0000 0.42630  0.75670  0.70380  Biso   1.000  O
  O11      1.0000 0.50990  0.88720  0.66780  Biso   1.000  O
  C20      1.0000 0.48130  0.83180  0.71350  Biso   1.000  C
  C21      1.0000 0.47030  0.87930  0.90080  Biso   1.000  C
  C22      1.0000 0.51670  0.86310  0.78130  Biso   1.000  C
  H25      1.0000 0.55090  0.92470  0.78370  Biso   1.000  H
  C23      1.0000 0.46940  0.82350  0.84630  Biso   1.000  C
  H26      1.0000 0.41590  0.77080  0.84060  Biso   1.000  H
  C24      1.0000 0.64630  0.01220  0.48260  Biso   1.000  C
  C25      1.0000 0.73420  0.07230  0.45280  Biso   1.000  C
  H27      1.0000 0.77810  0.06150  0.47010  Biso   1.000  H
  C26      1.0000 0.54740  0.81860  0.82850  Biso   1.000  C
  C27      1.0000 0.53300  0.73220  0.81170  Biso   1.000  C
  H28      1.0000 0.48010  0.70060  0.78870  Biso   1.000  H
  H29      1.0000 0.53200  0.70350  0.85240  Biso   1.000  H
  H30      1.0000 0.57780  0.73750  0.78330  Biso   1.000  H
  C28      1.0000 0.63040  0.87430  0.86540  Biso   1.000  C
  H31      1.0000 0.67650  0.87970  0.83870  Biso   1.000  H
  H32      1.0000 0.62990  0.84920  0.90780  Biso   1.000  H
  H33      1.0000 0.63690  0.92910  0.87270  Biso   1.000  H
  C29      1.0000 0.76980  0.16170  0.42440  Biso   1.000  C
  H34      1.0000 0.83130  0.19600  0.42750  Biso   1.000  H
  O12      1.0000 0.64990  0.18680  0.40850  Biso   1.000  O
  O13      1.0000 0.77260  0.29010  0.43820  Biso   1.000  O
  C30      1.0000 0.72580  0.21260  0.42640  Biso   1.000  C
  C31      1.0000 0.80450  0.07930  0.33670  Biso   1.000  C
  H35      1.0000 0.85800  0.11090  0.35890  Biso   1.000  H
  H36      1.0000 0.80780  0.10190  0.29260  Biso   1.000  H
  H37      1.0000 0.79000  0.02130  0.33320  Biso   1.000  H
  O14      1.0000 0.58430  0.02240  0.46810  Biso   1.000  O
  O15      1.0000 0.42030  0.84620  0.95010  Biso   1.000  O
  O16      1.0000 0.52250  0.95720  0.89490  Biso   1.000  O
  C32      1.0000 0.73890  0.08510  0.37620  Biso   1.000  C
  C33      1.0000 0.66070  0.05170  0.33230  Biso   1.000  C
  H38      1.0000 0.64750  0.99790  0.31400  Biso   1.000  H
  H39      1.0000 0.67110  0.09060  0.29620  Biso   1.000  H
  H40      1.0000 0.61410  0.04550  0.35880  Biso   1.000  H
  C34      1.0000 0.76280  0.09520  0.39070  Biso   1.000  C
  C35      1.0000 0.69730  0.05830  0.33650  Biso   1.000  C
  H41      1.0000 0.66610  0.99800  0.34090  Biso   1.000  H
  H42      1.0000 0.72430  0.07320  0.29330  Biso   1.000  H
  H43      1.0000 0.65950  0.08010  0.34050  Biso   1.000  H
  C36      1.0000 0.73010  0.06990  0.45940  Biso   1.000  C
  H44      1.0000 0.77200  0.06680  0.48800  Biso   1.000  H
  C37      1.0000 0.76370  0.16010  0.43410  Biso   1.000  C
  H45      1.0000 0.82110  0.19530  0.45140  Biso   1.000  H
  C38      1.0000 0.84070  0.09860  0.36530  Biso   1.000  C
  H46      1.0000 0.82880  0.04260  0.35430  Biso   1.000  H
  H47      1.0000 0.88350  0.12180  0.39930  Biso   1.000  H
  H48      1.0000 0.86000  0.13340  0.32590  Biso   1.000  H
  Sm3      1.0000 0.09075  0.58345  0.55584  Biso   1.000  Sm
  O17      1.0000 0.04770  0.68480  0.51810  Biso   1.000  O
  O18      1.0000 0.24330  0.66960  0.70380  Biso   1.000  O
  O19      1.0000 0.11280  0.62270  0.66780  Biso   1.000  O
  C39      1.0000 0.16820  0.64950  0.71350  Biso   1.000  C
  C40      1.0000 0.12070  0.59100  0.90080  Biso   1.000  C
  C41      1.0000 0.13690  0.65360  0.78130  Biso   1.000  C
  H49      1.0000 0.07530  0.62620  0.78370  Biso   1.000  H
  C42      1.0000 0.17650  0.64590  0.84630  Biso   1.000  C
  H50      1.0000 0.22920  0.64510  0.84060  Biso   1.000  H
  C43      1.0000 0.98780  0.63410  0.48260  Biso   1.000  C
  C44      1.0000 0.92770  0.66190  0.45280  Biso   1.000  C
  H51      1.0000 0.93850  0.71660  0.47010  Biso   1.000  H
  C45      1.0000 0.18140  0.72880  0.82850  Biso   1.000  C
  C46      1.0000 0.26780  0.80080  0.81170  Biso   1.000  C
  H52      1.0000 0.29940  0.77950  0.78870  Biso   1.000  H
  H53      1.0000 0.29650  0.82850  0.85240  Biso   1.000  H
  H54      1.0000 0.26250  0.84030  0.78330  Biso   1.000  H
  C47      1.0000 0.12570  0.75610  0.86540  Biso   1.000  C
  H55      1.0000 0.12030  0.79680  0.83870  Biso   1.000  H
  H56      1.0000 0.15080  0.78070  0.90780  Biso   1.000  H
  H57      1.0000 0.07090  0.70780  0.87270  Biso   1.000  H
  C48      1.0000 0.83830  0.60810  0.42440  Biso   1.000  C
  H58      1.0000 0.80400  0.63530  0.42750  Biso   1.000  H
  O20      1.0000 0.81320  0.46310  0.40850  Biso   1.000  O
  O21      1.0000 0.70990  0.48250  0.43820  Biso   1.000  O
  C49      1.0000 0.78740  0.51320  0.42640  Biso   1.000  C
  C50      1.0000 0.92070  0.72520  0.33670  Biso   1.000  C
  H59      1.0000 0.88910  0.74710  0.35890  Biso   1.000  H
  H60      1.0000 0.89810  0.70590  0.29260  Biso   1.000  H
  H61      1.0000 0.97870  0.76870  0.33320  Biso   1.000  H
  O22      1.0000 0.97760  0.56190  0.46810  Biso   1.000  O
  O23      1.0000 0.15380  0.57410  0.95010  Biso   1.000  O
  O24      1.0000 0.04280  0.56530  0.89490  Biso   1.000  O
  C51      1.0000 0.91490  0.65380  0.37620  Biso   1.000  C
  C52      1.0000 0.94830  0.60900  0.33230  Biso   1.000  C
  H62      1.0000 0.00210  0.64960  0.31400  Biso   1.000  H
  H63      1.0000 0.90940  0.58050  0.29620  Biso   1.000  H
  H64      1.0000 0.95450  0.56860  0.35880  Biso   1.000  H
  C53      1.0000 0.90480  0.66760  0.39070  Biso   1.000  C
  C54      1.0000 0.94170  0.63900  0.33650  Biso   1.000  C
  H65      1.0000 0.00200  0.66810  0.34090  Biso   1.000  H
  H66      1.0000 0.92680  0.65110  0.29330  Biso   1.000  H
  H67      1.0000 0.91990  0.57940  0.34050  Biso   1.000  H
  C55      1.0000 0.93010  0.66020  0.45940  Biso   1.000  C
  H68      1.0000 0.93320  0.70520  0.48800  Biso   1.000  H
  C56      1.0000 0.83990  0.60360  0.43410  Biso   1.000  C
  H69      1.0000 0.80470  0.62580  0.45140  Biso   1.000  H
  C57      1.0000 0.90140  0.74210  0.36530  Biso   1.000  C
  H70      1.0000 0.95740  0.78620  0.35430  Biso   1.000  H
  H71      1.0000 0.87820  0.76170  0.39930  Biso   1.000  H
  H72      1.0000 0.86660  0.72660  0.32590  Biso   1.000  H
  Sm4      1.0000 0.50730  0.41655  0.94416  Biso   1.000  Sm
  O25      1.0000 0.36290  0.31520  0.98190  Biso   1.000  O
  O26      1.0000 0.57370  0.33040  0.79620  Biso   1.000  O
  O27      1.0000 0.49010  0.37730  0.83220  Biso   1.000  O
  C58      1.0000 0.51870  0.35050  0.78650  Biso   1.000  C
  C59      1.0000 0.52970  0.40900  0.59920  Biso   1.000  C
  C60      1.0000 0.48330  0.34640  0.71870  Biso   1.000  C
  H73      1.0000 0.44910  0.37380  0.71630  Biso   1.000  H
  C61      1.0000 0.53060  0.35410  0.65370  Biso   1.000  C
  H74      1.0000 0.58410  0.35490  0.65940  Biso   1.000  H
  C62      1.0000 0.35370  0.36590  0.01740  Biso   1.000  C
  C63      1.0000 0.26580  0.33810  0.04720  Biso   1.000  C
  H75      1.0000 0.22190  0.28340  0.02990  Biso   1.000  H
  C64      1.0000 0.45260  0.27120  0.67150  Biso   1.000  C
  C65      1.0000 0.46700  0.19920  0.68830  Biso   1.000  C
  H76      1.0000 0.51990  0.22050  0.71130  Biso   1.000  H
  H77      1.0000 0.46800  0.17150  0.64760  Biso   1.000  H
  H78      1.0000 0.42220  0.15970  0.71670  Biso   1.000  H
  C66      1.0000 0.36960  0.24390  0.63460  Biso   1.000  C
  H79      1.0000 0.32350  0.20320  0.66130  Biso   1.000  H
  H80      1.0000 0.37010  0.21930  0.59220  Biso   1.000  H
  H81      1.0000 0.36310  0.29220  0.62730  Biso   1.000  H
  C67      1.0000 0.23020  0.39190  0.07560  Biso   1.000  C
  H82      1.0000 0.16870  0.36470  0.07250  Biso   1.000  H
  O28      1.0000 0.35010  0.53690  0.09150  Biso   1.000  O
  O29      1.0000 0.22740  0.51750  0.06180  Biso   1.000  O
  C68      1.0000 0.27420  0.48680  0.07360  Biso   1.000  C
  C69      1.0000 0.19550  0.27480  0.16330  Biso   1.000  C
  H83      1.0000 0.14200  0.25290  0.14110  Biso   1.000  H
  H84      1.0000 0.19220  0.29410  0.20740  Biso   1.000  H
  H85      1.0000 0.21000  0.23130  0.16680  Biso   1.000  H
  O30      1.0000 0.41570  0.43810  0.03190  Biso   1.000  O
  O31      1.0000 0.57970  0.42590  0.54990  Biso   1.000  O
  O32      1.0000 0.47750  0.43470  0.60510  Biso   1.000  O
  C70      1.0000 0.26110  0.34620  0.12380  Biso   1.000  C
  C71      1.0000 0.33930  0.39100  0.16770  Biso   1.000  C
  H86      1.0000 0.35250  0.35040  0.18600  Biso   1.000  H
  H87      1.0000 0.32890  0.41950  0.20380  Biso   1.000  H
  H88      1.0000 0.38590  0.43140  0.14120  Biso   1.000  H
  C72      1.0000 0.23720  0.33240  0.10930  Biso   1.000  C
  C73      1.0000 0.30270  0.36100  0.16350  Biso   1.000  C
  H89      1.0000 0.33390  0.33190  0.15910  Biso   1.000  H
  H90      1.0000 0.27570  0.34890  0.20670  Biso   1.000  H
  H91      1.0000 0.34050  0.42060  0.15950  Biso   1.000  H
  C74      1.0000 0.26990  0.33980  0.04060  Biso   1.000  C
  H92      1.0000 0.22800  0.29480  0.01200  Biso   1.000  H
  C75      1.0000 0.23630  0.39640  0.06590  Biso   1.000  C
  H93      1.0000 0.17890  0.37420  0.04860  Biso   1.000  H
  C76      1.0000 0.15930  0.25790  0.13470  Biso   1.000  C
  H94      1.0000 0.17120  0.21380  0.14570  Biso   1.000  H
  H95      1.0000 0.11650  0.23830  0.10070  Biso   1.000  H
  H96      1.0000 0.14000  0.27340  0.17410  Biso   1.000  H
  Sm5      1.0000 0.90925  0.49270  0.94416  Biso   1.000  Sm
  O33      1.0000 0.95230  0.63710  0.98190  Biso   1.000  O
  O34      1.0000 0.75670  0.42630  0.79620  Biso   1.000  O
  O35      1.0000 0.88720  0.50990  0.83220  Biso   1.000  O
  C77      1.0000 0.83180  0.48130  0.78650  Biso   1.000  C
  C78      1.0000 0.87930  0.47030  0.59920  Biso   1.000  C
  C79      1.0000 0.86310  0.51670  0.71870  Biso   1.000  C
  H97      1.0000 0.92470  0.55090  0.71630  Biso   1.000  H
  C80      1.0000 0.82350  0.46940  0.65370  Biso   1.000  C
  H98      1.0000 0.77080  0.41590  0.65940  Biso   1.000  H
  C81      1.0000 0.01220  0.64630  0.01740  Biso   1.000  C
  C82      1.0000 0.07230  0.73420  0.04720  Biso   1.000  C
  H99      1.0000 0.06150  0.77810  0.02990  Biso   1.000  H
  C83      1.0000 0.81860  0.54740  0.67150  Biso   1.000  C
  C84      1.0000 0.73220  0.53300  0.68830  Biso   1.000  C
  H100     1.0000 0.70060  0.48010  0.71130  Biso   1.000  H
  H101     1.0000 0.70350  0.53200  0.64760  Biso   1.000  H
  H102     1.0000 0.73750  0.57780  0.71670  Biso   1.000  H
  C85      1.0000 0.87430  0.63040  0.63460  Biso   1.000  C
  H103     1.0000 0.87970  0.67650  0.66130  Biso   1.000  H
  H104     1.0000 0.84920  0.62990  0.59220  Biso   1.000  H
  H105     1.0000 0.92910  0.63690  0.62730  Biso   1.000  H
  C86      1.0000 0.16170  0.76980  0.07560  Biso   1.000  C
  H106     1.0000 0.19600  0.83130  0.07250  Biso   1.000  H
  O36      1.0000 0.18680  0.64990  0.09150  Biso   1.000  O
  O37      1.0000 0.29010  0.77260  0.06180  Biso   1.000  O
  C87      1.0000 0.21260  0.72580  0.07360  Biso   1.000  C
  C88      1.0000 0.07930  0.80450  0.16330  Biso   1.000  C
  H107     1.0000 0.11090  0.85800  0.14110  Biso   1.000  H
  H108     1.0000 0.10190  0.80780  0.20740  Biso   1.000  H
  H109     1.0000 0.02130  0.79000  0.16680  Biso   1.000  H
  O38      1.0000 0.02240  0.58430  0.03190  Biso   1.000  O
  O39      1.0000 0.84620  0.42030  0.54990  Biso   1.000  O
  O40      1.0000 0.95720  0.52250  0.60510  Biso   1.000  O
  C89      1.0000 0.08510  0.73890  0.12380  Biso   1.000  C
  C90      1.0000 0.05170  0.66070  0.16770  Biso   1.000  C
  H110     1.0000 0.99790  0.64750  0.18600  Biso   1.000  H
  H111     1.0000 0.09060  0.67110  0.20380  Biso   1.000  H
  H112     1.0000 0.04550  0.61410  0.14120  Biso   1.000  H
  C91      1.0000 0.09520  0.76280  0.10930  Biso   1.000  C
  C92      1.0000 0.05830  0.69730  0.16350  Biso   1.000  C
  H113     1.0000 0.99800  0.66610  0.15910  Biso   1.000  H
  H114     1.0000 0.07320  0.72430  0.20670  Biso   1.000  H
  H115     1.0000 0.08010  0.65950  0.15950  Biso   1.000  H
  C93      1.0000 0.06990  0.73010  0.04060  Biso   1.000  C
  H116     1.0000 0.06680  0.77200  0.01200  Biso   1.000  H
  C94      1.0000 0.16010  0.76370  0.06590  Biso   1.000  C
  H117     1.0000 0.19530  0.82110  0.04860  Biso   1.000  H
  C95      1.0000 0.09860  0.84070  0.13470  Biso   1.000  C
  H118     1.0000 0.04260  0.82880  0.14570  Biso   1.000  H
  H119     1.0000 0.12180  0.88350  0.10070  Biso   1.000  H
  H120     1.0000 0.13340  0.86000  0.17410  Biso   1.000  H
  Sm6      1.0000 0.58345  0.09075  0.94416  Biso   1.000  Sm
  O41      1.0000 0.68480  0.04770  0.98190  Biso   1.000  O
  O42      1.0000 0.66960  0.24330  0.79620  Biso   1.000  O
  O43      1.0000 0.62270  0.11280  0.83220  Biso   1.000  O
  C96      1.0000 0.64950  0.16820  0.78650  Biso   1.000  C
  C97      1.0000 0.59100  0.12070  0.59920  Biso   1.000  C
  C98      1.0000 0.65360  0.13690  0.71870  Biso   1.000  C
  H121     1.0000 0.62620  0.07530  0.71630  Biso   1.000  H
  C99      1.0000 0.64590  0.17650  0.65370  Biso   1.000  C
  H122     1.0000 0.64510  0.22920  0.65940  Biso   1.000  H
  C100     1.0000 0.63410  0.98780  0.01740  Biso   1.000  C
  C101     1.0000 0.66190  0.92770  0.04720  Biso   1.000  C
  H123     1.0000 0.71660  0.93850  0.02990  Biso   1.000  H
  C102     1.0000 0.72880  0.18140  0.67150  Biso   1.000  C
  C103     1.0000 0.80080  0.26780  0.68830  Biso   1.000  C
  H124     1.0000 0.77950  0.29940  0.71130  Biso   1.000  H
  H125     1.0000 0.82850  0.29650  0.64760  Biso   1.000  H
  H126     1.0000 0.84030  0.26250  0.71670  Biso   1.000  H
  C104     1.0000 0.75610  0.12570  0.63460  Biso   1.000  C
  H127     1.0000 0.79680  0.12030  0.66130  Biso   1.000  H
  H128     1.0000 0.78070  0.15080  0.59220  Biso   1.000  H
  H129     1.0000 0.70780  0.07090  0.62730  Biso   1.000  H
  C105     1.0000 0.60810  0.83830  0.07560  Biso   1.000  C
  H130     1.0000 0.63530  0.80400  0.07250  Biso   1.000  H
  O44      1.0000 0.46310  0.81320  0.09150  Biso   1.000  O
  O45      1.0000 0.48250  0.70990  0.06180  Biso   1.000  O
  C106     1.0000 0.51320  0.78740  0.07360  Biso   1.000  C
  C107     1.0000 0.72520  0.92070  0.16330  Biso   1.000  C
  H131     1.0000 0.74710  0.88910  0.14110  Biso   1.000  H
  H132     1.0000 0.70590  0.89810  0.20740  Biso   1.000  H
  H133     1.0000 0.76870  0.97870  0.16680  Biso   1.000  H
  O46      1.0000 0.56190  0.97760  0.03190  Biso   1.000  O
  O47      1.0000 0.57410  0.15380  0.54990  Biso   1.000  O
  O48      1.0000 0.56530  0.04280  0.60510  Biso   1.000  O
  C108     1.0000 0.65380  0.91490  0.12380  Biso   1.000  C
  C109     1.0000 0.60900  0.94830  0.16770  Biso   1.000  C
  H134     1.0000 0.64960  0.00210  0.18600  Biso   1.000  H
  H135     1.0000 0.58050  0.90940  0.20380  Biso   1.000  H
  H136     1.0000 0.56860  0.95450  0.14120  Biso   1.000  H
  C110     1.0000 0.66760  0.90480  0.10930  Biso   1.000  C
  C111     1.0000 0.63900  0.94170  0.16350  Biso   1.000  C
  H137     1.0000 0.66810  0.00200  0.15910  Biso   1.000  H
  H138     1.0000 0.65110  0.92680  0.20670  Biso   1.000  H
  H139     1.0000 0.57940  0.91990  0.15950  Biso   1.000  H
  C112     1.0000 0.66020  0.93010  0.04060  Biso   1.000  C
  H140     1.0000 0.70520  0.93320  0.01200  Biso   1.000  H
  C113     1.0000 0.60360  0.83990  0.06590  Biso   1.000  C
  H141     1.0000 0.62580  0.80470  0.04860  Biso   1.000  H
  C114     1.0000 0.74210  0.90140  0.13470  Biso   1.000  C
  H142     1.0000 0.78620  0.95740  0.14570  Biso   1.000  H
  H143     1.0000 0.76170  0.87820  0.10070  Biso   1.000  H
  H144     1.0000 0.72660  0.86660  0.17410  Biso   1.000  H
  Sm7      1.0000 0.58345  0.49270  0.44416  Biso   1.000  Sm
  O49      1.0000 0.68480  0.63710  0.48190  Biso   1.000  O
  O50      1.0000 0.66960  0.42630  0.29620  Biso   1.000  O
  O51      1.0000 0.62270  0.50990  0.33220  Biso   1.000  O
  C115     1.0000 0.64950  0.48130  0.28650  Biso   1.000  C
  C116     1.0000 0.59100  0.47030  0.09920  Biso   1.000  C
  C117     1.0000 0.65360  0.51670  0.21870  Biso   1.000  C
  H145     1.0000 0.62620  0.55090  0.21630  Biso   1.000  H
  C118     1.0000 0.64590  0.46940  0.15370  Biso   1.000  C
  H146     1.0000 0.64510  0.41590  0.15940  Biso   1.000  H
  C119     1.0000 0.63410  0.64630  0.51740  Biso   1.000  C
  C120     1.0000 0.66190  0.73420  0.54720  Biso   1.000  C
  H147     1.0000 0.71660  0.77810  0.52990  Biso   1.000  H
  C121     1.0000 0.72880  0.54740  0.17150  Biso   1.000  C
  C122     1.0000 0.80080  0.53300  0.18830  Biso   1.000  C
  H148     1.0000 0.77950  0.48010  0.21130  Biso   1.000  H
  H149     1.0000 0.82850  0.53200  0.14760  Biso   1.000  H
  H150     1.0000 0.84030  0.57780  0.21670  Biso   1.000  H
  C123     1.0000 0.75610  0.63040  0.13460  Biso   1.000  C
  H151     1.0000 0.79680  0.67650  0.16130  Biso   1.000  H
  H152     1.0000 0.78070  0.62990  0.09220  Biso   1.000  H
  H153     1.0000 0.70780  0.63690  0.12730  Biso   1.000  H
  C124     1.0000 0.60810  0.76980  0.57560  Biso   1.000  C
  H154     1.0000 0.63530  0.83130  0.57250  Biso   1.000  H
  O52      1.0000 0.46310  0.64990  0.59150  Biso   1.000  O
  O53      1.0000 0.48250  0.77260  0.56180  Biso   1.000  O
  C125     1.0000 0.51320  0.72580  0.57360  Biso   1.000  C
  C126     1.0000 0.72520  0.80450  0.66330  Biso   1.000  C
  H155     1.0000 0.74710  0.85800  0.64110  Biso   1.000  H
  H156     1.0000 0.70590  0.80780  0.70740  Biso   1.000  H
  H157     1.0000 0.76870  0.79000  0.66680  Biso   1.000  H
  O54      1.0000 0.56190  0.58430  0.53190  Biso   1.000  O
  O55      1.0000 0.57410  0.42030  0.04990  Biso   1.000  O
  O56      1.0000 0.56530  0.52250  0.10510  Biso   1.000  O
  C127     1.0000 0.65380  0.73890  0.62380  Biso   1.000  C
  C128     1.0000 0.60900  0.66070  0.66770  Biso   1.000  C
  H158     1.0000 0.64960  0.64750  0.68600  Biso   1.000  H
  H159     1.0000 0.58050  0.67110  0.70380  Biso   1.000  H
  H160     1.0000 0.56860  0.61410  0.64120  Biso   1.000  H
  C129     1.0000 0.66760  0.76280  0.60930  Biso   1.000  C
  C130     1.0000 0.63900  0.69730  0.66350  Biso   1.000  C
  H161     1.0000 0.66810  0.66610  0.65910  Biso   1.000  H
  H162     1.0000 0.65110  0.72430  0.70670  Biso   1.000  H
  H163     1.0000 0.57940  0.65950  0.65950  Biso   1.000  H
  C131     1.0000 0.66020  0.73010  0.54060  Biso   1.000  C
  H164     1.0000 0.70520  0.77200  0.51200  Biso   1.000  H
  C132     1.0000 0.60360  0.76370  0.56590  Biso   1.000  C
  H165     1.0000 0.62580  0.82110  0.54860  Biso   1.000  H
  C133     1.0000 0.74210  0.84070  0.63470  Biso   1.000  C
  H166     1.0000 0.78620  0.82880  0.64570  Biso   1.000  H
  H167     1.0000 0.76170  0.88350  0.60070  Biso   1.000  H
  H168     1.0000 0.72660  0.86000  0.67410  Biso   1.000  H
  Sm8      1.0000 0.50730  0.09075  0.44416  Biso   1.000  Sm
  O57      1.0000 0.36290  0.04770  0.48190  Biso   1.000  O
  O58      1.0000 0.57370  0.24330  0.29620  Biso   1.000  O
  O59      1.0000 0.49010  0.11280  0.33220  Biso   1.000  O
  C134     1.0000 0.51870  0.16820  0.28650  Biso   1.000  C
  C135     1.0000 0.52970  0.12070  0.09920  Biso   1.000  C
  C136     1.0000 0.48330  0.13690  0.21870  Biso   1.000  C
  H169     1.0000 0.44910  0.07530  0.21630  Biso   1.000  H
  C137     1.0000 0.53060  0.17650  0.15370  Biso   1.000  C
  H170     1.0000 0.58410  0.22920  0.15940  Biso   1.000  H
  C138     1.0000 0.35370  0.98780  0.51740  Biso   1.000  C
  C139     1.0000 0.26580  0.92770  0.54720  Biso   1.000  C
  H171     1.0000 0.22190  0.93850  0.52990  Biso   1.000  H
  C140     1.0000 0.45260  0.18140  0.17150  Biso   1.000  C
  C141     1.0000 0.46700  0.26780  0.18830  Biso   1.000  C
  H172     1.0000 0.51990  0.29940  0.21130  Biso   1.000  H
  H173     1.0000 0.46800  0.29650  0.14760  Biso   1.000  H
  H174     1.0000 0.42220  0.26250  0.21670  Biso   1.000  H
  C142     1.0000 0.36960  0.12570  0.13460  Biso   1.000  C
  H175     1.0000 0.32350  0.12030  0.16130  Biso   1.000  H
  H176     1.0000 0.37010  0.15080  0.09220  Biso   1.000  H
  H177     1.0000 0.36310  0.07090  0.12730  Biso   1.000  H
  C143     1.0000 0.23020  0.83830  0.57560  Biso   1.000  C
  H178     1.0000 0.16870  0.80400  0.57250  Biso   1.000  H
  O60      1.0000 0.35010  0.81320  0.59150  Biso   1.000  O
  O61      1.0000 0.22740  0.70990  0.56180  Biso   1.000  O
  C144     1.0000 0.27420  0.78740  0.57360  Biso   1.000  C
  C145     1.0000 0.19550  0.92070  0.66330  Biso   1.000  C
  H179     1.0000 0.14200  0.88910  0.64110  Biso   1.000  H
  H180     1.0000 0.19220  0.89810  0.70740  Biso   1.000  H
  H181     1.0000 0.21000  0.97870  0.66680  Biso   1.000  H
  O62      1.0000 0.41570  0.97760  0.53190  Biso   1.000  O
  O63      1.0000 0.57970  0.15380  0.04990  Biso   1.000  O
  O64      1.0000 0.47750  0.04280  0.10510  Biso   1.000  O
  C146     1.0000 0.26110  0.91490  0.62380  Biso   1.000  C
  C147     1.0000 0.33930  0.94830  0.66770  Biso   1.000  C
  H182     1.0000 0.35250  0.00210  0.68600  Biso   1.000  H
  H183     1.0000 0.32890  0.90940  0.70380  Biso   1.000  H
  H184     1.0000 0.38590  0.95450  0.64120  Biso   1.000  H
  C148     1.0000 0.23720  0.90480  0.60930  Biso   1.000  C
  C149     1.0000 0.30270  0.94170  0.66350  Biso   1.000  C
  H185     1.0000 0.33390  0.00200  0.65910  Biso   1.000  H
  H186     1.0000 0.27570  0.92680  0.70670  Biso   1.000  H
  H187     1.0000 0.34050  0.91990  0.65950  Biso   1.000  H
  C150     1.0000 0.26990  0.93010  0.54060  Biso   1.000  C
  H188     1.0000 0.22800  0.93320  0.51200  Biso   1.000  H
  C151     1.0000 0.23630  0.83990  0.56590  Biso   1.000  C
  H189     1.0000 0.17890  0.80470  0.54860  Biso   1.000  H
  C152     1.0000 0.15930  0.90140  0.63470  Biso   1.000  C
  H190     1.0000 0.17120  0.95740  0.64570  Biso   1.000  H
  H191     1.0000 0.11650  0.87820  0.60070  Biso   1.000  H
  H192     1.0000 0.14000  0.86660  0.67410  Biso   1.000  H
  Sm9      1.0000 0.90925  0.41655  0.44416  Biso   1.000  Sm
  O65      1.0000 0.95230  0.31520  0.48190  Biso   1.000  O
  O66      1.0000 0.75670  0.33040  0.29620  Biso   1.000  O
  O67      1.0000 0.88720  0.37730  0.33220  Biso   1.000  O
  C153     1.0000 0.83180  0.35050  0.28650  Biso   1.000  C
  C154     1.0000 0.87930  0.40900  0.09920  Biso   1.000  C
  C155     1.0000 0.86310  0.34640  0.21870  Biso   1.000  C
  H193     1.0000 0.92470  0.37380  0.21630  Biso   1.000  H
  C156     1.0000 0.82350  0.35410  0.15370  Biso   1.000  C
  H194     1.0000 0.77080  0.35490  0.15940  Biso   1.000  H
  C157     1.0000 0.01220  0.36590  0.51740  Biso   1.000  C
  C158     1.0000 0.07230  0.33810  0.54720  Biso   1.000  C
  H195     1.0000 0.06150  0.28340  0.52990  Biso   1.000  H
  C159     1.0000 0.81860  0.27120  0.17150  Biso   1.000  C
  C160     1.0000 0.73220  0.19920  0.18830  Biso   1.000  C
  H196     1.0000 0.70060  0.22050  0.21130  Biso   1.000  H
  H197     1.0000 0.70350  0.17150  0.14760  Biso   1.000  H
  H198     1.0000 0.73750  0.15970  0.21670  Biso   1.000  H
  C161     1.0000 0.87430  0.24390  0.13460  Biso   1.000  C
  H199     1.0000 0.87970  0.20320  0.16130  Biso   1.000  H
  H200     1.0000 0.84920  0.21930  0.09220  Biso   1.000  H
  H201     1.0000 0.92910  0.29220  0.12730  Biso   1.000  H
  C162     1.0000 0.16170  0.39190  0.57560  Biso   1.000  C
  H202     1.0000 0.19600  0.36470  0.57250  Biso   1.000  H
  O68      1.0000 0.18680  0.53690  0.59150  Biso   1.000  O
  O69      1.0000 0.29010  0.51750  0.56180  Biso   1.000  O
  C163     1.0000 0.21260  0.48680  0.57360  Biso   1.000  C
  C164     1.0000 0.07930  0.27480  0.66330  Biso   1.000  C
  H203     1.0000 0.11090  0.25290  0.64110  Biso   1.000  H
  H204     1.0000 0.10190  0.29410  0.70740  Biso   1.000  H
  H205     1.0000 0.02130  0.23130  0.66680  Biso   1.000  H
  O70      1.0000 0.02240  0.43810  0.53190  Biso   1.000  O
  O71      1.0000 0.84620  0.42590  0.04990  Biso   1.000  O
  O72      1.0000 0.95720  0.43470  0.10510  Biso   1.000  O
  C165     1.0000 0.08510  0.34620  0.62380  Biso   1.000  C
  C166     1.0000 0.05170  0.39100  0.66770  Biso   1.000  C
  H206     1.0000 0.99790  0.35040  0.68600  Biso   1.000  H
  H207     1.0000 0.09060  0.41950  0.70380  Biso   1.000  H
  H208     1.0000 0.04550  0.43140  0.64120  Biso   1.000  H
  C167     1.0000 0.09520  0.33240  0.60930  Biso   1.000  C
  C168     1.0000 0.05830  0.36100  0.66350  Biso   1.000  C
  H209     1.0000 0.99800  0.33190  0.65910  Biso   1.000  H
  H210     1.0000 0.07320  0.34890  0.70670  Biso   1.000  H
  H211     1.0000 0.08010  0.42060  0.65950  Biso   1.000  H
  C169     1.0000 0.06990  0.33980  0.54060  Biso   1.000  C
  H212     1.0000 0.06680  0.29480  0.51200  Biso   1.000  H
  C170     1.0000 0.16010  0.39640  0.56590  Biso   1.000  C
  H213     1.0000 0.19530  0.37420  0.54860  Biso   1.000  H
  C171     1.0000 0.09860  0.25790  0.63470  Biso   1.000  C
  H214     1.0000 0.04260  0.21380  0.64570  Biso   1.000  H
  H215     1.0000 0.12180  0.23830  0.60070  Biso   1.000  H
  H216     1.0000 0.13340  0.27340  0.67410  Biso   1.000  H
  Sm10     1.0000 0.49270  0.58345  0.05584  Biso   1.000  Sm
  O73      1.0000 0.63710  0.68480  0.01810  Biso   1.000  O
  O74      1.0000 0.42630  0.66960  0.20380  Biso   1.000  O
  O75      1.0000 0.50990  0.62270  0.16780  Biso   1.000  O
  C172     1.0000 0.48130  0.64950  0.21350  Biso   1.000  C
  C173     1.0000 0.47030  0.59100  0.40080  Biso   1.000  C
  C174     1.0000 0.51670  0.65360  0.28130  Biso   1.000  C
  H217     1.0000 0.55090  0.62620  0.28370  Biso   1.000  H
  C175     1.0000 0.46940  0.64590  0.34630  Biso   1.000  C
  H218     1.0000 0.41590  0.64510  0.34060  Biso   1.000  H
  C176     1.0000 0.64630  0.63410  0.98260  Biso   1.000  C
  C177     1.0000 0.73420  0.66190  0.95280  Biso   1.000  C
  H219     1.0000 0.77810  0.71660  0.97010  Biso   1.000  H
  C178     1.0000 0.54740  0.72880  0.32850  Biso   1.000  C
  C179     1.0000 0.53300  0.80080  0.31170  Biso   1.000  C
  H220     1.0000 0.48010  0.77950  0.28870  Biso   1.000  H
  H221     1.0000 0.53200  0.82850  0.35240  Biso   1.000  H
  H222     1.0000 0.57780  0.84030  0.28330  Biso   1.000  H
  C180     1.0000 0.63040  0.75610  0.36540  Biso   1.000  C
  H223     1.0000 0.67650  0.79680  0.33870  Biso   1.000  H
  H224     1.0000 0.62990  0.78070  0.40780  Biso   1.000  H
  H225     1.0000 0.63690  0.70780  0.37270  Biso   1.000  H
  C181     1.0000 0.76980  0.60810  0.92440  Biso   1.000  C
  H226     1.0000 0.83130  0.63530  0.92750  Biso   1.000  H
  O76      1.0000 0.64990  0.46310  0.90850  Biso   1.000  O
  O77      1.0000 0.77260  0.48250  0.93820  Biso   1.000  O
  C182     1.0000 0.72580  0.51320  0.92640  Biso   1.000  C
  C183     1.0000 0.80450  0.72520  0.83670  Biso   1.000  C
  H227     1.0000 0.85800  0.74710  0.85890  Biso   1.000  H
  H228     1.0000 0.80780  0.70590  0.79260  Biso   1.000  H
  H229     1.0000 0.79000  0.76870  0.83320  Biso   1.000  H
  O78      1.0000 0.58430  0.56190  0.96810  Biso   1.000  O
  O79      1.0000 0.42030  0.57410  0.45010  Biso   1.000  O
  O80      1.0000 0.52250  0.56530  0.39490  Biso   1.000  O
  C184     1.0000 0.73890  0.65380  0.87620  Biso   1.000  C
  C185     1.0000 0.66070  0.60900  0.83230  Biso   1.000  C
  H230     1.0000 0.64750  0.64960  0.81400  Biso   1.000  H
  H231     1.0000 0.67110  0.58050  0.79620  Biso   1.000  H
  H232     1.0000 0.61410  0.56860  0.85880  Biso   1.000  H
  C186     1.0000 0.76280  0.66760  0.89070  Biso   1.000  C
  C187     1.0000 0.69730  0.63900  0.83650  Biso   1.000  C
  H233     1.0000 0.66610  0.66810  0.84090  Biso   1.000  H
  H234     1.0000 0.72430  0.65110  0.79330  Biso   1.000  H
  H235     1.0000 0.65950  0.57940  0.84050  Biso   1.000  H
  C188     1.0000 0.73010  0.66020  0.95940  Biso   1.000  C
  H236     1.0000 0.77200  0.70520  0.98800  Biso   1.000  H
  C189     1.0000 0.76370  0.60360  0.93410  Biso   1.000  C
  H237     1.0000 0.82110  0.62580  0.95140  Biso   1.000  H
  C190     1.0000 0.84070  0.74210  0.86530  Biso   1.000  C
  H238     1.0000 0.82880  0.78620  0.85430  Biso   1.000  H
  H239     1.0000 0.88350  0.76170  0.89930  Biso   1.000  H
  H240     1.0000 0.86000  0.72660  0.82590  Biso   1.000  H
  Sm11     1.0000 0.09075  0.50730  0.05584  Biso   1.000  Sm
  O81      1.0000 0.04770  0.36290  0.01810  Biso   1.000  O
  O82      1.0000 0.24330  0.57370  0.20380  Biso   1.000  O
  O83      1.0000 0.11280  0.49010  0.16780  Biso   1.000  O
  C191     1.0000 0.16820  0.51870  0.21350  Biso   1.000  C
  C192     1.0000 0.12070  0.52970  0.40080  Biso   1.000  C
  C193     1.0000 0.13690  0.48330  0.28130  Biso   1.000  C
  H241     1.0000 0.07530  0.44910  0.28370  Biso   1.000  H
  C194     1.0000 0.17650  0.53060  0.34630  Biso   1.000  C
  H242     1.0000 0.22920  0.58410  0.34060  Biso   1.000  H
  C195     1.0000 0.98780  0.35370  0.98260  Biso   1.000  C
  C196     1.0000 0.92770  0.26580  0.95280  Biso   1.000  C
  H243     1.0000 0.93850  0.22190  0.97010  Biso   1.000  H
  C197     1.0000 0.18140  0.45260  0.32850  Biso   1.000  C
  C198     1.0000 0.26780  0.46700  0.31170  Biso   1.000  C
  H244     1.0000 0.29940  0.51990  0.28870  Biso   1.000  H
  H245     1.0000 0.29650  0.46800  0.35240  Biso   1.000  H
  H246     1.0000 0.26250  0.42220  0.28330  Biso   1.000  H
  C199     1.0000 0.12570  0.36960  0.36540  Biso   1.000  C
  H247     1.0000 0.12030  0.32350  0.33870  Biso   1.000  H
  H248     1.0000 0.15080  0.37010  0.40780  Biso   1.000  H
  H249     1.0000 0.07090  0.36310  0.37270  Biso   1.000  H
  C200     1.0000 0.83830  0.23020  0.92440  Biso   1.000  C
  H250     1.0000 0.80400  0.16870  0.92750  Biso   1.000  H
  O84      1.0000 0.81320  0.35010  0.90850  Biso   1.000  O
  O85      1.0000 0.70990  0.22740  0.93820  Biso   1.000  O
  C201     1.0000 0.78740  0.27420  0.92640  Biso   1.000  C
  C202     1.0000 0.92070  0.19550  0.83670  Biso   1.000  C
  H251     1.0000 0.88910  0.14200  0.85890  Biso   1.000  H
  H252     1.0000 0.89810  0.19220  0.79260  Biso   1.000  H
  H253     1.0000 0.97870  0.21000  0.83320  Biso   1.000  H
  O86      1.0000 0.97760  0.41570  0.96810  Biso   1.000  O
  O87      1.0000 0.15380  0.57970  0.45010  Biso   1.000  O
  O88      1.0000 0.04280  0.47750  0.39490  Biso   1.000  O
  C203     1.0000 0.91490  0.26110  0.87620  Biso   1.000  C
  C204     1.0000 0.94830  0.33930  0.83230  Biso   1.000  C
  H254     1.0000 0.00210  0.35250  0.81400  Biso   1.000  H
  H255     1.0000 0.90940  0.32890  0.79620  Biso   1.000  H
  H256     1.0000 0.95450  0.38590  0.85880  Biso   1.000  H
  C205     1.0000 0.90480  0.23720  0.89070  Biso   1.000  C
  C206     1.0000 0.94170  0.30270  0.83650  Biso   1.000  C
  H257     1.0000 0.00200  0.33390  0.84090  Biso   1.000  H
  H258     1.0000 0.92680  0.27570  0.79330  Biso   1.000  H
  H259     1.0000 0.91990  0.34050  0.84050  Biso   1.000  H
  C207     1.0000 0.93010  0.26990  0.95940  Biso   1.000  C
  H260     1.0000 0.93320  0.22800  0.98800  Biso   1.000  H
  C208     1.0000 0.83990  0.23630  0.93410  Biso   1.000  C
  H261     1.0000 0.80470  0.17890  0.95140  Biso   1.000  H
  C209     1.0000 0.90140  0.15930  0.86530  Biso   1.000  C
  H262     1.0000 0.95740  0.17120  0.85430  Biso   1.000  H
  H263     1.0000 0.87820  0.11650  0.89930  Biso   1.000  H
  H264     1.0000 0.86660  0.14000  0.82590  Biso   1.000  H
  Sm12     1.0000 0.41655  0.90925  0.05584  Biso   1.000  Sm
  O89      1.0000 0.31520  0.95230  0.01810  Biso   1.000  O
  O90      1.0000 0.33040  0.75670  0.20380  Biso   1.000  O
  O91      1.0000 0.37730  0.88720  0.16780  Biso   1.000  O
  C210     1.0000 0.35050  0.83180  0.21350  Biso   1.000  C
  C211     1.0000 0.40900  0.87930  0.40080  Biso   1.000  C
  C212     1.0000 0.34640  0.86310  0.28130  Biso   1.000  C
  H265     1.0000 0.37380  0.92470  0.28370  Biso   1.000  H
  C213     1.0000 0.35410  0.82350  0.34630  Biso   1.000  C
  H266     1.0000 0.35490  0.77080  0.34060  Biso   1.000  H
  C214     1.0000 0.36590  0.01220  0.98260  Biso   1.000  C
  C215     1.0000 0.33810  0.07230  0.95280  Biso   1.000  C
  H267     1.0000 0.28340  0.06150  0.97010  Biso   1.000  H
  C216     1.0000 0.27120  0.81860  0.32850  Biso   1.000  C
  C217     1.0000 0.19920  0.73220  0.31170  Biso   1.000  C
  H268     1.0000 0.22050  0.70060  0.28870  Biso   1.000  H
  H269     1.0000 0.17150  0.70350  0.35240  Biso   1.000  H
  H270     1.0000 0.15970  0.73750  0.28330  Biso   1.000  H
  C218     1.0000 0.24390  0.87430  0.36540  Biso   1.000  C
  H271     1.0000 0.20320  0.87970  0.33870  Biso   1.000  H
  H272     1.0000 0.21930  0.84920  0.40780  Biso   1.000  H
  H273     1.0000 0.29220  0.92910  0.37270  Biso   1.000  H
  C219     1.0000 0.39190  0.16170  0.92440  Biso   1.000  C
  H274     1.0000 0.36470  0.19600  0.92750  Biso   1.000  H
  O92      1.0000 0.53690  0.18680  0.90850  Biso   1.000  O
  O93      1.0000 0.51750  0.29010  0.93820  Biso   1.000  O
  C220     1.0000 0.48680  0.21260  0.92640  Biso   1.000  C
  C221     1.0000 0.27480  0.07930  0.83670  Biso   1.000  C
  H275     1.0000 0.25290  0.11090  0.85890  Biso   1.000  H
  H276     1.0000 0.29410  0.10190  0.79260  Biso   1.000  H
  H277     1.0000 0.23130  0.02130  0.83320  Biso   1.000  H
  O94      1.0000 0.43810  0.02240  0.96810  Biso   1.000  O
  O95      1.0000 0.42590  0.84620  0.45010  Biso   1.000  O
  O96      1.0000 0.43470  0.95720  0.39490  Biso   1.000  O
  C222     1.0000 0.34620  0.08510  0.87620  Biso   1.000  C
  C223     1.0000 0.39100  0.05170  0.83230  Biso   1.000  C
  H278     1.0000 0.35040  0.99790  0.81400  Biso   1.000  H
  H279     1.0000 0.41950  0.09060  0.79620  Biso   1.000  H
  H280     1.0000 0.43140  0.04550  0.85880  Biso   1.000  H
  C224     1.0000 0.33240  0.09520  0.89070  Biso   1.000  C
  C225     1.0000 0.36100  0.05830  0.83650  Biso   1.000  C
  H281     1.0000 0.33190  0.99800  0.84090  Biso   1.000  H
  H282     1.0000 0.34890  0.07320  0.79330  Biso   1.000  H
  H283     1.0000 0.42060  0.08010  0.84050  Biso   1.000  H
  C226     1.0000 0.33980  0.06990  0.95940  Biso   1.000  C
  H284     1.0000 0.29480  0.06680  0.98800  Biso   1.000  H
  C227     1.0000 0.39640  0.16010  0.93410  Biso   1.000  C
  H285     1.0000 0.37420  0.19530  0.95140  Biso   1.000  H
  C228     1.0000 0.25790  0.09860  0.86530  Biso   1.000  C
  H286     1.0000 0.21380  0.04260  0.85430  Biso   1.000  H
  H287     1.0000 0.23830  0.12180  0.89930  Biso   1.000  H
  H288     1.0000 0.27340  0.13340  0.82590  Biso   1.000  H
  Sm13     1.0000 0.33333  0.66667  0.61872  Biso   1.000  Sm
  Sm14     1.0000 0.66667  0.33333  0.88128  Biso   1.000  Sm
  Sm15     1.0000 0.66667  0.33333  0.38128  Biso   1.000  Sm
  Sm16     1.0000 0.33333  0.66667  0.11872  Biso   1.000  Sm
