data_image0
_cell_length_a       18.2874
_cell_length_b       18.2874
_cell_length_c       19.8488
_cell_angle_alpha    90
_cell_angle_beta     90
_cell_angle_gamma    120

_symmetry_space_group_name_H-M    "P 1"
_symmetry_int_tables_number       1

loop_
  _symmetry_equiv_pos_as_xyz
  'x, y, z'

loop_
  _atom_site_label
  _atom_site_occupancy
  _atom_site_fract_x
  _atom_site_fract_y
  _atom_site_fract_z
  _atom_site_thermal_displace_type
  _atom_site_B_iso_or_equiv
  _atom_site_type_symbol
  Eu1      1.0000 0.41688  0.50759  0.55600  Biso   1.000  Eu
  O1       1.0000 0.31572  0.36343  0.51937  Biso   1.000  O
  O2       1.0000 0.33016  0.57419  0.70344  Biso   1.000  O
  O3       1.0000 0.37750  0.49010  0.66758  Biso   1.000  O
  C1       1.0000 0.35120  0.51960  0.71301  Biso   1.000  C
  C2       1.0000 0.40970  0.52960  0.90101  Biso   1.000  C
  C3       1.0000 0.34650  0.48330  0.78126  Biso   1.000  C
  H1       1.0000 0.37410  0.44920  0.78370  Biso   1.000  H
  C4       1.0000 0.35420  0.53110  0.84641  Biso   1.000  C
  H2       1.0000 0.35500  0.58480  0.84090  Biso   1.000  H
  C5       1.0000 0.36620  0.35390  0.48255  Biso   1.000  C
  C6       1.0000 0.33740  0.26610  0.45370  Biso   1.000  C
  H3       1.0000 0.28280  0.22250  0.47150  Biso   1.000  H
  C7       1.0000 0.27140  0.45260  0.82834  Biso   1.000  C
  C8       1.0000 0.19950  0.46680  0.81190  Biso   1.000  C
  H4       1.0000 0.22030  0.51880  0.78750  Biso   1.000  H
  H5       1.0000 0.17310  0.46970  0.85280  Biso   1.000  H
  H6       1.0000 0.15890  0.42100  0.78470  Biso   1.000  H
  C9       1.0000 0.24380  0.37010  0.86420  Biso   1.000  C
  H7       1.0000 0.20290  0.32430  0.83720  Biso   1.000  H
  H8       1.0000 0.21900  0.37040  0.90680  Biso   1.000  H
  H9       1.0000 0.29180  0.36310  0.87150  Biso   1.000  H
  C10      1.0000 0.39190  0.23020  0.42440  Biso   1.000  C
  H10      1.0000 0.36460  0.16860  0.42750  Biso   1.000  H
  O4       1.0000 0.53699  0.34987  0.40864  Biso   1.000  O
  O5       1.0000 0.51801  0.22684  0.43797  Biso   1.000  O
  C11      1.0000 0.48730  0.27400  0.42652  Biso   1.000  C
  C12      1.0000 0.27270  0.19030  0.33940  Biso   1.000  C
  H11      1.0000 0.25550  0.13750  0.36160  Biso   1.000  H
  H12      1.0000 0.28930  0.18770  0.29400  Biso   1.000  H
  H13      1.0000 0.22650  0.20120  0.33890  Biso   1.000  H
  O6       1.0000 0.43802  0.41615  0.46835  Biso   1.000  O
  O7       1.0000 0.42652  0.58007  0.95033  Biso   1.000  O
  O8       1.0000 0.43484  0.47741  0.89508  Biso   1.000  O
  C13      1.0000 0.34600  0.26010  0.37660  Biso   1.000  C
  C14      1.0000 0.39070  0.33860  0.33250  Biso   1.000  C
  H14      1.0000 0.35630  0.36450  0.32880  Biso   1.000  H
  H15      1.0000 0.39980  0.32300  0.28850  Biso   1.000  H
  H16      1.0000 0.44400  0.37790  0.35240  Biso   1.000  H
  C15      1.0000 0.33240  0.23720  0.39070  Biso   1.000  C
  C16      1.0000 0.36160  0.30310  0.33740  Biso   1.000  C
  H17      1.0000 0.37950  0.35710  0.35770  Biso   1.000  H
  H18      1.0000 0.31620  0.28980  0.30660  Biso   1.000  H
  H19      1.0000 0.40810  0.30490  0.31340  Biso   1.000  H
  C17      1.0000 0.33980  0.26990  0.45940  Biso   1.000  C
  H20      1.0000 0.29410  0.22820  0.48780  Biso   1.000  H
  C18      1.0000 0.39610  0.23550  0.43540  Biso   1.000  C
  H21      1.0000 0.37370  0.17810  0.45290  Biso   1.000  H
  C19      1.0000 0.25570  0.15840  0.36840  Biso   1.000  C
  H22      1.0000 0.21170  0.17060  0.35790  Biso   1.000  H
  H23      1.0000 0.23720  0.11720  0.40380  Biso   1.000  H
  H24      1.0000 0.26890  0.13670  0.32900  Biso   1.000  H
  Eu2      1.0000 0.49241  0.90929  0.55600  Biso   1.000  Eu
  O9       1.0000 0.63657  0.95229  0.51937  Biso   1.000  O
  O10      1.0000 0.42581  0.75597  0.70344  Biso   1.000  O
  O11      1.0000 0.50990  0.88740  0.66758  Biso   1.000  O
  C20      1.0000 0.48040  0.83160  0.71301  Biso   1.000  C
  C21      1.0000 0.47040  0.88010  0.90101  Biso   1.000  C
  C22      1.0000 0.51670  0.86320  0.78126  Biso   1.000  C
  H25      1.0000 0.55080  0.92490  0.78370  Biso   1.000  H
  C23      1.0000 0.46890  0.82310  0.84641  Biso   1.000  C
  H26      1.0000 0.41520  0.77020  0.84090  Biso   1.000  H
  C24      1.0000 0.64610  0.01230  0.48255  Biso   1.000  C
  C25      1.0000 0.73390  0.07130  0.45370  Biso   1.000  C
  H27      1.0000 0.77750  0.06030  0.47150  Biso   1.000  H
  C26      1.0000 0.54740  0.81880  0.82834  Biso   1.000  C
  C27      1.0000 0.53320  0.73270  0.81190  Biso   1.000  C
  H28      1.0000 0.48120  0.70150  0.78750  Biso   1.000  H
  H29      1.0000 0.53030  0.70340  0.85280  Biso   1.000  H
  H30      1.0000 0.57900  0.73790  0.78470  Biso   1.000  H
  C28      1.0000 0.62990  0.87370  0.86420  Biso   1.000  C
  H31      1.0000 0.67570  0.87860  0.83720  Biso   1.000  H
  H32      1.0000 0.62960  0.84860  0.90680  Biso   1.000  H
  H33      1.0000 0.63690  0.92870  0.87150  Biso   1.000  H
  C29      1.0000 0.76980  0.16170  0.42440  Biso   1.000  C
  H34      1.0000 0.83140  0.19600  0.42750  Biso   1.000  H
  O12      1.0000 0.65013  0.18712  0.40864  Biso   1.000  O
  O13      1.0000 0.77316  0.29117  0.43797  Biso   1.000  O
  C30      1.0000 0.72600  0.21330  0.42652  Biso   1.000  C
  C31      1.0000 0.80970  0.08240  0.33940  Biso   1.000  C
  H35      1.0000 0.86250  0.11800  0.36160  Biso   1.000  H
  H36      1.0000 0.81230  0.10160  0.29400  Biso   1.000  H
  H37      1.0000 0.79880  0.02530  0.33890  Biso   1.000  H
  O14      1.0000 0.58385  0.02187  0.46835  Biso   1.000  O
  O15      1.0000 0.41993  0.84645  0.95033  Biso   1.000  O
  O16      1.0000 0.52259  0.95743  0.89508  Biso   1.000  O
  C32      1.0000 0.73990  0.08590  0.37660  Biso   1.000  C
  C33      1.0000 0.66140  0.05210  0.33250  Biso   1.000  C
  H38      1.0000 0.63550  0.99180  0.32880  Biso   1.000  H
  H39      1.0000 0.67700  0.07680  0.28850  Biso   1.000  H
  H40      1.0000 0.62210  0.06610  0.35240  Biso   1.000  H
  C34      1.0000 0.76280  0.09520  0.39070  Biso   1.000  C
  C35      1.0000 0.69690  0.05850  0.33740  Biso   1.000  C
  H41      1.0000 0.64290  0.02240  0.35770  Biso   1.000  H
  H42      1.0000 0.71020  0.02640  0.30660  Biso   1.000  H
  H43      1.0000 0.69510  0.10320  0.31340  Biso   1.000  H
  C36      1.0000 0.73010  0.06990  0.45940  Biso   1.000  C
  H44      1.0000 0.77180  0.06590  0.48780  Biso   1.000  H
  C37      1.0000 0.76450  0.16060  0.43540  Biso   1.000  C
  H45      1.0000 0.82190  0.19560  0.45290  Biso   1.000  H
  C38      1.0000 0.84160  0.09730  0.36840  Biso   1.000  C
  H46      1.0000 0.82940  0.04110  0.35790  Biso   1.000  H
  H47      1.0000 0.88280  0.12000  0.40380  Biso   1.000  H
  H48      1.0000 0.86330  0.13220  0.32900  Biso   1.000  H
  Eu3      1.0000 0.09071  0.58312  0.55600  Biso   1.000  Eu
  O17      1.0000 0.04771  0.68428  0.51937  Biso   1.000  O
  O18      1.0000 0.24403  0.66984  0.70344  Biso   1.000  O
  O19      1.0000 0.11260  0.62250  0.66758  Biso   1.000  O
  C39      1.0000 0.16840  0.64880  0.71301  Biso   1.000  C
  C40      1.0000 0.11990  0.59030  0.90101  Biso   1.000  C
  C41      1.0000 0.13680  0.65350  0.78126  Biso   1.000  C
  H49      1.0000 0.07510  0.62590  0.78370  Biso   1.000  H
  C42      1.0000 0.17690  0.64580  0.84641  Biso   1.000  C
  H50      1.0000 0.22980  0.64500  0.84090  Biso   1.000  H
  C43      1.0000 0.98770  0.63380  0.48255  Biso   1.000  C
  C44      1.0000 0.92870  0.66260  0.45370  Biso   1.000  C
  H51      1.0000 0.93970  0.71720  0.47150  Biso   1.000  H
  C45      1.0000 0.18120  0.72860  0.82834  Biso   1.000  C
  C46      1.0000 0.26730  0.80050  0.81190  Biso   1.000  C
  H52      1.0000 0.29850  0.77970  0.78750  Biso   1.000  H
  H53      1.0000 0.29660  0.82690  0.85280  Biso   1.000  H
  H54      1.0000 0.26210  0.84110  0.78470  Biso   1.000  H
  C47      1.0000 0.12630  0.75620  0.86420  Biso   1.000  C
  H55      1.0000 0.12140  0.79710  0.83720  Biso   1.000  H
  H56      1.0000 0.15140  0.78100  0.90680  Biso   1.000  H
  H57      1.0000 0.07130  0.70820  0.87150  Biso   1.000  H
  C48      1.0000 0.83830  0.60810  0.42440  Biso   1.000  C
  H58      1.0000 0.80400  0.63540  0.42750  Biso   1.000  H
  O20      1.0000 0.81288  0.46301  0.40864  Biso   1.000  O
  O21      1.0000 0.70883  0.48199  0.43797  Biso   1.000  O
  C49      1.0000 0.78670  0.51270  0.42652  Biso   1.000  C
  C50      1.0000 0.91760  0.72730  0.33940  Biso   1.000  C
  H59      1.0000 0.88200  0.74450  0.36160  Biso   1.000  H
  H60      1.0000 0.89840  0.71070  0.29400  Biso   1.000  H
  H61      1.0000 0.97470  0.77350  0.33890  Biso   1.000  H
  O22      1.0000 0.97813  0.56198  0.46835  Biso   1.000  O
  O23      1.0000 0.15355  0.57348  0.95033  Biso   1.000  O
  O24      1.0000 0.04257  0.56516  0.89508  Biso   1.000  O
  C51      1.0000 0.91410  0.65400  0.37660  Biso   1.000  C
  C52      1.0000 0.94790  0.60930  0.33250  Biso   1.000  C
  H62      1.0000 0.00820  0.64370  0.32880  Biso   1.000  H
  H63      1.0000 0.92320  0.60020  0.28850  Biso   1.000  H
  H64      1.0000 0.93390  0.55600  0.35240  Biso   1.000  H
  C53      1.0000 0.90480  0.66760  0.39070  Biso   1.000  C
  C54      1.0000 0.94150  0.63840  0.33740  Biso   1.000  C
  H65      1.0000 0.97760  0.62050  0.35770  Biso   1.000  H
  H66      1.0000 0.97360  0.68380  0.30660  Biso   1.000  H
  H67      1.0000 0.89680  0.59190  0.31340  Biso   1.000  H
  C55      1.0000 0.93010  0.66020  0.45940  Biso   1.000  C
  H68      1.0000 0.93410  0.70590  0.48780  Biso   1.000  H
  C56      1.0000 0.83940  0.60390  0.43540  Biso   1.000  C
  H69      1.0000 0.80440  0.62630  0.45290  Biso   1.000  H
  C57      1.0000 0.90270  0.74430  0.36840  Biso   1.000  C
  H70      1.0000 0.95890  0.78830  0.35790  Biso   1.000  H
  H71      1.0000 0.88000  0.76280  0.40380  Biso   1.000  H
  H72      1.0000 0.86780  0.73110  0.32900  Biso   1.000  H
  Eu4      1.0000 0.50759  0.41688  0.94400  Biso   1.000  Eu
  O25      1.0000 0.36343  0.31572  0.98063  Biso   1.000  O
  O26      1.0000 0.57419  0.33016  0.79656  Biso   1.000  O
  O27      1.0000 0.49010  0.37750  0.83242  Biso   1.000  O
  C58      1.0000 0.51960  0.35120  0.78699  Biso   1.000  C
  C59      1.0000 0.52960  0.40970  0.59899  Biso   1.000  C
  C60      1.0000 0.48330  0.34650  0.71874  Biso   1.000  C
  H73      1.0000 0.44920  0.37410  0.71630  Biso   1.000  H
  C61      1.0000 0.53110  0.35420  0.65359  Biso   1.000  C
  H74      1.0000 0.58480  0.35500  0.65910  Biso   1.000  H
  C62      1.0000 0.35390  0.36620  0.01745  Biso   1.000  C
  C63      1.0000 0.26610  0.33740  0.04630  Biso   1.000  C
  H75      1.0000 0.22250  0.28280  0.02850  Biso   1.000  H
  C64      1.0000 0.45260  0.27140  0.67166  Biso   1.000  C
  C65      1.0000 0.46680  0.19950  0.68810  Biso   1.000  C
  H76      1.0000 0.51880  0.22030  0.71250  Biso   1.000  H
  H77      1.0000 0.46970  0.17310  0.64720  Biso   1.000  H
  H78      1.0000 0.42100  0.15890  0.71530  Biso   1.000  H
  C66      1.0000 0.37010  0.24380  0.63580  Biso   1.000  C
  H79      1.0000 0.32430  0.20290  0.66280  Biso   1.000  H
  H80      1.0000 0.37040  0.21900  0.59320  Biso   1.000  H
  H81      1.0000 0.36310  0.29180  0.62850  Biso   1.000  H
  C67      1.0000 0.23020  0.39190  0.07560  Biso   1.000  C
  H82      1.0000 0.16860  0.36460  0.07250  Biso   1.000  H
  O28      1.0000 0.34987  0.53699  0.09136  Biso   1.000  O
  O29      1.0000 0.22684  0.51801  0.06203  Biso   1.000  O
  C68      1.0000 0.27400  0.48730  0.07348  Biso   1.000  C
  C69      1.0000 0.19030  0.27270  0.16060  Biso   1.000  C
  H83      1.0000 0.13750  0.25550  0.13840  Biso   1.000  H
  H84      1.0000 0.18770  0.28930  0.20600  Biso   1.000  H
  H85      1.0000 0.20120  0.22650  0.16110  Biso   1.000  H
  O30      1.0000 0.41615  0.43802  0.03165  Biso   1.000  O
  O31      1.0000 0.58007  0.42652  0.54967  Biso   1.000  O
  O32      1.0000 0.47741  0.43484  0.60492  Biso   1.000  O
  C70      1.0000 0.26010  0.34600  0.12340  Biso   1.000  C
  C71      1.0000 0.33860  0.39070  0.16750  Biso   1.000  C
  H86      1.0000 0.36450  0.35630  0.17120  Biso   1.000  H
  H87      1.0000 0.32300  0.39980  0.21150  Biso   1.000  H
  H88      1.0000 0.37790  0.44400  0.14760  Biso   1.000  H
  C72      1.0000 0.23720  0.33240  0.10930  Biso   1.000  C
  C73      1.0000 0.30310  0.36160  0.16260  Biso   1.000  C
  H89      1.0000 0.35710  0.37950  0.14230  Biso   1.000  H
  H90      1.0000 0.28980  0.31620  0.19340  Biso   1.000  H
  H91      1.0000 0.30490  0.40810  0.18660  Biso   1.000  H
  C74      1.0000 0.26990  0.33980  0.04060  Biso   1.000  C
  H92      1.0000 0.22820  0.29410  0.01220  Biso   1.000  H
  C75      1.0000 0.23550  0.39610  0.06460  Biso   1.000  C
  H93      1.0000 0.17810  0.37370  0.04710  Biso   1.000  H
  C76      1.0000 0.15840  0.25570  0.13160  Biso   1.000  C
  H94      1.0000 0.17060  0.21170  0.14210  Biso   1.000  H
  H95      1.0000 0.11720  0.23720  0.09620  Biso   1.000  H
  H96      1.0000 0.13670  0.26890  0.17100  Biso   1.000  H
  Eu5      1.0000 0.90929  0.49241  0.94400  Biso   1.000  Eu
  O33      1.0000 0.95229  0.63657  0.98063  Biso   1.000  O
  O34      1.0000 0.75597  0.42581  0.79656  Biso   1.000  O
  O35      1.0000 0.88740  0.50990  0.83242  Biso   1.000  O
  C77      1.0000 0.83160  0.48040  0.78699  Biso   1.000  C
  C78      1.0000 0.88010  0.47040  0.59899  Biso   1.000  C
  C79      1.0000 0.86320  0.51670  0.71874  Biso   1.000  C
  H97      1.0000 0.92490  0.55080  0.71630  Biso   1.000  H
  C80      1.0000 0.82310  0.46890  0.65359  Biso   1.000  C
  H98      1.0000 0.77020  0.41520  0.65910  Biso   1.000  H
  C81      1.0000 0.01230  0.64610  0.01745  Biso   1.000  C
  C82      1.0000 0.07130  0.73390  0.04630  Biso   1.000  C
  H99      1.0000 0.06030  0.77750  0.02850  Biso   1.000  H
  C83      1.0000 0.81880  0.54740  0.67166  Biso   1.000  C
  C84      1.0000 0.73270  0.53320  0.68810  Biso   1.000  C
  H100     1.0000 0.70150  0.48120  0.71250  Biso   1.000  H
  H101     1.0000 0.70340  0.53030  0.64720  Biso   1.000  H
  H102     1.0000 0.73790  0.57900  0.71530  Biso   1.000  H
  C85      1.0000 0.87370  0.62990  0.63580  Biso   1.000  C
  H103     1.0000 0.87860  0.67570  0.66280  Biso   1.000  H
  H104     1.0000 0.84860  0.62960  0.59320  Biso   1.000  H
  H105     1.0000 0.92870  0.63690  0.62850  Biso   1.000  H
  C86      1.0000 0.16170  0.76980  0.07560  Biso   1.000  C
  H106     1.0000 0.19600  0.83140  0.07250  Biso   1.000  H
  O36      1.0000 0.18712  0.65013  0.09136  Biso   1.000  O
  O37      1.0000 0.29117  0.77316  0.06203  Biso   1.000  O
  C87      1.0000 0.21330  0.72600  0.07348  Biso   1.000  C
  C88      1.0000 0.08240  0.80970  0.16060  Biso   1.000  C
  H107     1.0000 0.11800  0.86250  0.13840  Biso   1.000  H
  H108     1.0000 0.10160  0.81230  0.20600  Biso   1.000  H
  H109     1.0000 0.02530  0.79880  0.16110  Biso   1.000  H
  O38      1.0000 0.02187  0.58385  0.03165  Biso   1.000  O
  O39      1.0000 0.84645  0.41993  0.54967  Biso   1.000  O
  O40      1.0000 0.95743  0.52259  0.60492  Biso   1.000  O
  C89      1.0000 0.08590  0.73990  0.12340  Biso   1.000  C
  C90      1.0000 0.05210  0.66140  0.16750  Biso   1.000  C
  H110     1.0000 0.99180  0.63550  0.17120  Biso   1.000  H
  H111     1.0000 0.07680  0.67700  0.21150  Biso   1.000  H
  H112     1.0000 0.06610  0.62210  0.14760  Biso   1.000  H
  C91      1.0000 0.09520  0.76280  0.10930  Biso   1.000  C
  C92      1.0000 0.05850  0.69690  0.16260  Biso   1.000  C
  H113     1.0000 0.02240  0.64290  0.14230  Biso   1.000  H
  H114     1.0000 0.02640  0.71020  0.19340  Biso   1.000  H
  H115     1.0000 0.10320  0.69510  0.18660  Biso   1.000  H
  C93      1.0000 0.06990  0.73010  0.04060  Biso   1.000  C
  H116     1.0000 0.06590  0.77180  0.01220  Biso   1.000  H
  C94      1.0000 0.16060  0.76450  0.06460  Biso   1.000  C
  H117     1.0000 0.19560  0.82190  0.04710  Biso   1.000  H
  C95      1.0000 0.09730  0.84160  0.13160  Biso   1.000  C
  H118     1.0000 0.04110  0.82940  0.14210  Biso   1.000  H
  H119     1.0000 0.12000  0.88280  0.09620  Biso   1.000  H
  H120     1.0000 0.13220  0.86330  0.17100  Biso   1.000  H
  Eu6      1.0000 0.58312  0.09071  0.94400  Biso   1.000  Eu
  O41      1.0000 0.68428  0.04771  0.98063  Biso   1.000  O
  O42      1.0000 0.66984  0.24403  0.79656  Biso   1.000  O
  O43      1.0000 0.62250  0.11260  0.83242  Biso   1.000  O
  C96      1.0000 0.64880  0.16840  0.78699  Biso   1.000  C
  C97      1.0000 0.59030  0.11990  0.59899  Biso   1.000  C
  C98      1.0000 0.65350  0.13680  0.71874  Biso   1.000  C
  H121     1.0000 0.62590  0.07510  0.71630  Biso   1.000  H
  C99      1.0000 0.64580  0.17690  0.65359  Biso   1.000  C
  H122     1.0000 0.64500  0.22980  0.65910  Biso   1.000  H
  C100     1.0000 0.63380  0.98770  0.01745  Biso   1.000  C
  C101     1.0000 0.66260  0.92870  0.04630  Biso   1.000  C
  H123     1.0000 0.71720  0.93970  0.02850  Biso   1.000  H
  C102     1.0000 0.72860  0.18120  0.67166  Biso   1.000  C
  C103     1.0000 0.80050  0.26730  0.68810  Biso   1.000  C
  H124     1.0000 0.77970  0.29850  0.71250  Biso   1.000  H
  H125     1.0000 0.82690  0.29660  0.64720  Biso   1.000  H
  H126     1.0000 0.84110  0.26210  0.71530  Biso   1.000  H
  C104     1.0000 0.75620  0.12630  0.63580  Biso   1.000  C
  H127     1.0000 0.79710  0.12140  0.66280  Biso   1.000  H
  H128     1.0000 0.78100  0.15140  0.59320  Biso   1.000  H
  H129     1.0000 0.70820  0.07130  0.62850  Biso   1.000  H
  C105     1.0000 0.60810  0.83830  0.07560  Biso   1.000  C
  H130     1.0000 0.63540  0.80400  0.07250  Biso   1.000  H
  O44      1.0000 0.46301  0.81288  0.09136  Biso   1.000  O
  O45      1.0000 0.48199  0.70883  0.06203  Biso   1.000  O
  C106     1.0000 0.51270  0.78670  0.07348  Biso   1.000  C
  C107     1.0000 0.72730  0.91760  0.16060  Biso   1.000  C
  H131     1.0000 0.74450  0.88200  0.13840  Biso   1.000  H
  H132     1.0000 0.71070  0.89840  0.20600  Biso   1.000  H
  H133     1.0000 0.77350  0.97470  0.16110  Biso   1.000  H
  O46      1.0000 0.56198  0.97813  0.03165  Biso   1.000  O
  O47      1.0000 0.57348  0.15355  0.54967  Biso   1.000  O
  O48      1.0000 0.56516  0.04257  0.60492  Biso   1.000  O
  C108     1.0000 0.65400  0.91410  0.12340  Biso   1.000  C
  C109     1.0000 0.60930  0.94790  0.16750  Biso   1.000  C
  H134     1.0000 0.64370  0.00820  0.17120  Biso   1.000  H
  H135     1.0000 0.60020  0.92320  0.21150  Biso   1.000  H
  H136     1.0000 0.55600  0.93390  0.14760  Biso   1.000  H
  C110     1.0000 0.66760  0.90480  0.10930  Biso   1.000  C
  C111     1.0000 0.63840  0.94150  0.16260  Biso   1.000  C
  H137     1.0000 0.62050  0.97760  0.14230  Biso   1.000  H
  H138     1.0000 0.68380  0.97360  0.19340  Biso   1.000  H
  H139     1.0000 0.59190  0.89680  0.18660  Biso   1.000  H
  C112     1.0000 0.66020  0.93010  0.04060  Biso   1.000  C
  H140     1.0000 0.70590  0.93410  0.01220  Biso   1.000  H
  C113     1.0000 0.60390  0.83940  0.06460  Biso   1.000  C
  H141     1.0000 0.62630  0.80440  0.04710  Biso   1.000  H
  C114     1.0000 0.74430  0.90270  0.13160  Biso   1.000  C
  H142     1.0000 0.78830  0.95890  0.14210  Biso   1.000  H
  H143     1.0000 0.76280  0.88000  0.09620  Biso   1.000  H
  H144     1.0000 0.73110  0.86780  0.17100  Biso   1.000  H
  Eu7      1.0000 0.58312  0.49241  0.44400  Biso   1.000  Eu
  O49      1.0000 0.68428  0.63657  0.48063  Biso   1.000  O
  O50      1.0000 0.66984  0.42581  0.29656  Biso   1.000  O
  O51      1.0000 0.62250  0.50990  0.33242  Biso   1.000  O
  C115     1.0000 0.64880  0.48040  0.28699  Biso   1.000  C
  C116     1.0000 0.59030  0.47040  0.09899  Biso   1.000  C
  C117     1.0000 0.65350  0.51670  0.21874  Biso   1.000  C
  H145     1.0000 0.62590  0.55080  0.21630  Biso   1.000  H
  C118     1.0000 0.64580  0.46890  0.15359  Biso   1.000  C
  H146     1.0000 0.64500  0.41520  0.15910  Biso   1.000  H
  C119     1.0000 0.63380  0.64610  0.51745  Biso   1.000  C
  C120     1.0000 0.66260  0.73390  0.54630  Biso   1.000  C
  H147     1.0000 0.71720  0.77750  0.52850  Biso   1.000  H
  C121     1.0000 0.72860  0.54740  0.17166  Biso   1.000  C
  C122     1.0000 0.80050  0.53320  0.18810  Biso   1.000  C
  H148     1.0000 0.77970  0.48120  0.21250  Biso   1.000  H
  H149     1.0000 0.82690  0.53030  0.14720  Biso   1.000  H
  H150     1.0000 0.84110  0.57900  0.21530  Biso   1.000  H
  C123     1.0000 0.75620  0.62990  0.13580  Biso   1.000  C
  H151     1.0000 0.79710  0.67570  0.16280  Biso   1.000  H
  H152     1.0000 0.78100  0.62960  0.09320  Biso   1.000  H
  H153     1.0000 0.70820  0.63690  0.12850  Biso   1.000  H
  C124     1.0000 0.60810  0.76980  0.57560  Biso   1.000  C
  H154     1.0000 0.63540  0.83140  0.57250  Biso   1.000  H
  O52      1.0000 0.46301  0.65013  0.59136  Biso   1.000  O
  O53      1.0000 0.48199  0.77316  0.56203  Biso   1.000  O
  C125     1.0000 0.51270  0.72600  0.57348  Biso   1.000  C
  C126     1.0000 0.72730  0.80970  0.66060  Biso   1.000  C
  H155     1.0000 0.74450  0.86250  0.63840  Biso   1.000  H
  H156     1.0000 0.71070  0.81230  0.70600  Biso   1.000  H
  H157     1.0000 0.77350  0.79880  0.66110  Biso   1.000  H
  O54      1.0000 0.56198  0.58385  0.53165  Biso   1.000  O
  O55      1.0000 0.57348  0.41993  0.04967  Biso   1.000  O
  O56      1.0000 0.56516  0.52259  0.10492  Biso   1.000  O
  C127     1.0000 0.65400  0.73990  0.62340  Biso   1.000  C
  C128     1.0000 0.60930  0.66140  0.66750  Biso   1.000  C
  H158     1.0000 0.64370  0.63550  0.67120  Biso   1.000  H
  H159     1.0000 0.60020  0.67700  0.71150  Biso   1.000  H
  H160     1.0000 0.55600  0.62210  0.64760  Biso   1.000  H
  C129     1.0000 0.66760  0.76280  0.60930  Biso   1.000  C
  C130     1.0000 0.63840  0.69690  0.66260  Biso   1.000  C
  H161     1.0000 0.62050  0.64290  0.64230  Biso   1.000  H
  H162     1.0000 0.68380  0.71020  0.69340  Biso   1.000  H
  H163     1.0000 0.59190  0.69510  0.68660  Biso   1.000  H
  C131     1.0000 0.66020  0.73010  0.54060  Biso   1.000  C
  H164     1.0000 0.70590  0.77180  0.51220  Biso   1.000  H
  C132     1.0000 0.60390  0.76450  0.56460  Biso   1.000  C
  H165     1.0000 0.62630  0.82190  0.54710  Biso   1.000  H
  C133     1.0000 0.74430  0.84160  0.63160  Biso   1.000  C
  H166     1.0000 0.78830  0.82940  0.64210  Biso   1.000  H
  H167     1.0000 0.76280  0.88280  0.59620  Biso   1.000  H
  H168     1.0000 0.73110  0.86330  0.67100  Biso   1.000  H
  Eu8      1.0000 0.50759  0.09071  0.44400  Biso   1.000  Eu
  O57      1.0000 0.36343  0.04771  0.48063  Biso   1.000  O
  O58      1.0000 0.57419  0.24403  0.29656  Biso   1.000  O
  O59      1.0000 0.49010  0.11260  0.33242  Biso   1.000  O
  C134     1.0000 0.51960  0.16840  0.28699  Biso   1.000  C
  C135     1.0000 0.52960  0.11990  0.09899  Biso   1.000  C
  C136     1.0000 0.48330  0.13680  0.21874  Biso   1.000  C
  H169     1.0000 0.44920  0.07510  0.21630  Biso   1.000  H
  C137     1.0000 0.53110  0.17690  0.15359  Biso   1.000  C
  H170     1.0000 0.58480  0.22980  0.15910  Biso   1.000  H
  C138     1.0000 0.35390  0.98770  0.51745  Biso   1.000  C
  C139     1.0000 0.26610  0.92870  0.54630  Biso   1.000  C
  H171     1.0000 0.22250  0.93970  0.52850  Biso   1.000  H
  C140     1.0000 0.45260  0.18120  0.17166  Biso   1.000  C
  C141     1.0000 0.46680  0.26730  0.18810  Biso   1.000  C
  H172     1.0000 0.51880  0.29850  0.21250  Biso   1.000  H
  H173     1.0000 0.46970  0.29660  0.14720  Biso   1.000  H
  H174     1.0000 0.42100  0.26210  0.21530  Biso   1.000  H
  C142     1.0000 0.37010  0.12630  0.13580  Biso   1.000  C
  H175     1.0000 0.32430  0.12140  0.16280  Biso   1.000  H
  H176     1.0000 0.37040  0.15140  0.09320  Biso   1.000  H
  H177     1.0000 0.36310  0.07130  0.12850  Biso   1.000  H
  C143     1.0000 0.23020  0.83830  0.57560  Biso   1.000  C
  H178     1.0000 0.16860  0.80400  0.57250  Biso   1.000  H
  O60      1.0000 0.34987  0.81288  0.59136  Biso   1.000  O
  O61      1.0000 0.22684  0.70883  0.56203  Biso   1.000  O
  C144     1.0000 0.27400  0.78670  0.57348  Biso   1.000  C
  C145     1.0000 0.19030  0.91760  0.66060  Biso   1.000  C
  H179     1.0000 0.13750  0.88200  0.63840  Biso   1.000  H
  H180     1.0000 0.18770  0.89840  0.70600  Biso   1.000  H
  H181     1.0000 0.20120  0.97470  0.66110  Biso   1.000  H
  O62      1.0000 0.41615  0.97813  0.53165  Biso   1.000  O
  O63      1.0000 0.58007  0.15355  0.04967  Biso   1.000  O
  O64      1.0000 0.47741  0.04257  0.10492  Biso   1.000  O
  C146     1.0000 0.26010  0.91410  0.62340  Biso   1.000  C
  C147     1.0000 0.33860  0.94790  0.66750  Biso   1.000  C
  H182     1.0000 0.36450  0.00820  0.67120  Biso   1.000  H
  H183     1.0000 0.32300  0.92320  0.71150  Biso   1.000  H
  H184     1.0000 0.37790  0.93390  0.64760  Biso   1.000  H
  C148     1.0000 0.23720  0.90480  0.60930  Biso   1.000  C
  C149     1.0000 0.30310  0.94150  0.66260  Biso   1.000  C
  H185     1.0000 0.35710  0.97760  0.64230  Biso   1.000  H
  H186     1.0000 0.28980  0.97360  0.69340  Biso   1.000  H
  H187     1.0000 0.30490  0.89680  0.68660  Biso   1.000  H
  C150     1.0000 0.26990  0.93010  0.54060  Biso   1.000  C
  H188     1.0000 0.22820  0.93410  0.51220  Biso   1.000  H
  C151     1.0000 0.23550  0.83940  0.56460  Biso   1.000  C
  H189     1.0000 0.17810  0.80440  0.54710  Biso   1.000  H
  C152     1.0000 0.15840  0.90270  0.63160  Biso   1.000  C
  H190     1.0000 0.17060  0.95890  0.64210  Biso   1.000  H
  H191     1.0000 0.11720  0.88000  0.59620  Biso   1.000  H
  H192     1.0000 0.13670  0.86780  0.67100  Biso   1.000  H
  Eu9      1.0000 0.90929  0.41688  0.44400  Biso   1.000  Eu
  O65      1.0000 0.95229  0.31572  0.48063  Biso   1.000  O
  O66      1.0000 0.75597  0.33016  0.29656  Biso   1.000  O
  O67      1.0000 0.88740  0.37750  0.33242  Biso   1.000  O
  C153     1.0000 0.83160  0.35120  0.28699  Biso   1.000  C
  C154     1.0000 0.88010  0.40970  0.09899  Biso   1.000  C
  C155     1.0000 0.86320  0.34650  0.21874  Biso   1.000  C
  H193     1.0000 0.92490  0.37410  0.21630  Biso   1.000  H
  C156     1.0000 0.82310  0.35420  0.15359  Biso   1.000  C
  H194     1.0000 0.77020  0.35500  0.15910  Biso   1.000  H
  C157     1.0000 0.01230  0.36620  0.51745  Biso   1.000  C
  C158     1.0000 0.07130  0.33740  0.54630  Biso   1.000  C
  H195     1.0000 0.06030  0.28280  0.52850  Biso   1.000  H
  C159     1.0000 0.81880  0.27140  0.17166  Biso   1.000  C
  C160     1.0000 0.73270  0.19950  0.18810  Biso   1.000  C
  H196     1.0000 0.70150  0.22030  0.21250  Biso   1.000  H
  H197     1.0000 0.70340  0.17310  0.14720  Biso   1.000  H
  H198     1.0000 0.73790  0.15890  0.21530  Biso   1.000  H
  C161     1.0000 0.87370  0.24380  0.13580  Biso   1.000  C
  H199     1.0000 0.87860  0.20290  0.16280  Biso   1.000  H
  H200     1.0000 0.84860  0.21900  0.09320  Biso   1.000  H
  H201     1.0000 0.92870  0.29180  0.12850  Biso   1.000  H
  C162     1.0000 0.16170  0.39190  0.57560  Biso   1.000  C
  H202     1.0000 0.19600  0.36460  0.57250  Biso   1.000  H
  O68      1.0000 0.18712  0.53699  0.59136  Biso   1.000  O
  O69      1.0000 0.29117  0.51801  0.56203  Biso   1.000  O
  C163     1.0000 0.21330  0.48730  0.57348  Biso   1.000  C
  C164     1.0000 0.08240  0.27270  0.66060  Biso   1.000  C
  H203     1.0000 0.11800  0.25550  0.63840  Biso   1.000  H
  H204     1.0000 0.10160  0.28930  0.70600  Biso   1.000  H
  H205     1.0000 0.02530  0.22650  0.66110  Biso   1.000  H
  O70      1.0000 0.02187  0.43802  0.53165  Biso   1.000  O
  O71      1.0000 0.84645  0.42652  0.04967  Biso   1.000  O
  O72      1.0000 0.95743  0.43484  0.10492  Biso   1.000  O
  C165     1.0000 0.08590  0.34600  0.62340  Biso   1.000  C
  C166     1.0000 0.05210  0.39070  0.66750  Biso   1.000  C
  H206     1.0000 0.99180  0.35630  0.67120  Biso   1.000  H
  H207     1.0000 0.07680  0.39980  0.71150  Biso   1.000  H
  H208     1.0000 0.06610  0.44400  0.64760  Biso   1.000  H
  C167     1.0000 0.09520  0.33240  0.60930  Biso   1.000  C
  C168     1.0000 0.05850  0.36160  0.66260  Biso   1.000  C
  H209     1.0000 0.02240  0.37950  0.64230  Biso   1.000  H
  H210     1.0000 0.02640  0.31620  0.69340  Biso   1.000  H
  H211     1.0000 0.10320  0.40810  0.68660  Biso   1.000  H
  C169     1.0000 0.06990  0.33980  0.54060  Biso   1.000  C
  H212     1.0000 0.06590  0.29410  0.51220  Biso   1.000  H
  C170     1.0000 0.16060  0.39610  0.56460  Biso   1.000  C
  H213     1.0000 0.19560  0.37370  0.54710  Biso   1.000  H
  C171     1.0000 0.09730  0.25570  0.63160  Biso   1.000  C
  H214     1.0000 0.04110  0.21170  0.64210  Biso   1.000  H
  H215     1.0000 0.12000  0.23720  0.59620  Biso   1.000  H
  H216     1.0000 0.13220  0.26890  0.67100  Biso   1.000  H
  Eu10     1.0000 0.49241  0.58312  0.05600  Biso   1.000  Eu
  O73      1.0000 0.63657  0.68428  0.01937  Biso   1.000  O
  O74      1.0000 0.42581  0.66984  0.20344  Biso   1.000  O
  O75      1.0000 0.50990  0.62250  0.16758  Biso   1.000  O
  C172     1.0000 0.48040  0.64880  0.21301  Biso   1.000  C
  C173     1.0000 0.47040  0.59030  0.40101  Biso   1.000  C
  C174     1.0000 0.51670  0.65350  0.28126  Biso   1.000  C
  H217     1.0000 0.55080  0.62590  0.28370  Biso   1.000  H
  C175     1.0000 0.46890  0.64580  0.34641  Biso   1.000  C
  H218     1.0000 0.41520  0.64500  0.34090  Biso   1.000  H
  C176     1.0000 0.64610  0.63380  0.98255  Biso   1.000  C
  C177     1.0000 0.73390  0.66260  0.95370  Biso   1.000  C
  H219     1.0000 0.77750  0.71720  0.97150  Biso   1.000  H
  C178     1.0000 0.54740  0.72860  0.32834  Biso   1.000  C
  C179     1.0000 0.53320  0.80050  0.31190  Biso   1.000  C
  H220     1.0000 0.48120  0.77970  0.28750  Biso   1.000  H
  H221     1.0000 0.53030  0.82690  0.35280  Biso   1.000  H
  H222     1.0000 0.57900  0.84110  0.28470  Biso   1.000  H
  C180     1.0000 0.62990  0.75620  0.36420  Biso   1.000  C
  H223     1.0000 0.67570  0.79710  0.33720  Biso   1.000  H
  H224     1.0000 0.62960  0.78100  0.40680  Biso   1.000  H
  H225     1.0000 0.63690  0.70820  0.37150  Biso   1.000  H
  C181     1.0000 0.76980  0.60810  0.92440  Biso   1.000  C
  H226     1.0000 0.83140  0.63540  0.92750  Biso   1.000  H
  O76      1.0000 0.65013  0.46301  0.90864  Biso   1.000  O
  O77      1.0000 0.77316  0.48199  0.93797  Biso   1.000  O
  C182     1.0000 0.72600  0.51270  0.92652  Biso   1.000  C
  C183     1.0000 0.80970  0.72730  0.83940  Biso   1.000  C
  H227     1.0000 0.86250  0.74450  0.86160  Biso   1.000  H
  H228     1.0000 0.81230  0.71070  0.79400  Biso   1.000  H
  H229     1.0000 0.79880  0.77350  0.83890  Biso   1.000  H
  O78      1.0000 0.58385  0.56198  0.96835  Biso   1.000  O
  O79      1.0000 0.41993  0.57348  0.45033  Biso   1.000  O
  O80      1.0000 0.52259  0.56516  0.39508  Biso   1.000  O
  C184     1.0000 0.73990  0.65400  0.87660  Biso   1.000  C
  C185     1.0000 0.66140  0.60930  0.83250  Biso   1.000  C
  H230     1.0000 0.63550  0.64370  0.82880  Biso   1.000  H
  H231     1.0000 0.67700  0.60020  0.78850  Biso   1.000  H
  H232     1.0000 0.62210  0.55600  0.85240  Biso   1.000  H
  C186     1.0000 0.76280  0.66760  0.89070  Biso   1.000  C
  C187     1.0000 0.69690  0.63840  0.83740  Biso   1.000  C
  H233     1.0000 0.64290  0.62050  0.85770  Biso   1.000  H
  H234     1.0000 0.71020  0.68380  0.80660  Biso   1.000  H
  H235     1.0000 0.69510  0.59190  0.81340  Biso   1.000  H
  C188     1.0000 0.73010  0.66020  0.95940  Biso   1.000  C
  H236     1.0000 0.77180  0.70590  0.98780  Biso   1.000  H
  C189     1.0000 0.76450  0.60390  0.93540  Biso   1.000  C
  H237     1.0000 0.82190  0.62630  0.95290  Biso   1.000  H
  C190     1.0000 0.84160  0.74430  0.86840  Biso   1.000  C
  H238     1.0000 0.82940  0.78830  0.85790  Biso   1.000  H
  H239     1.0000 0.88280  0.76280  0.90380  Biso   1.000  H
  H240     1.0000 0.86330  0.73110  0.82900  Biso   1.000  H
  Eu11     1.0000 0.09071  0.50759  0.05600  Biso   1.000  Eu
  O81      1.0000 0.04771  0.36343  0.01937  Biso   1.000  O
  O82      1.0000 0.24403  0.57419  0.20344  Biso   1.000  O
  O83      1.0000 0.11260  0.49010  0.16758  Biso   1.000  O
  C191     1.0000 0.16840  0.51960  0.21301  Biso   1.000  C
  C192     1.0000 0.11990  0.52960  0.40101  Biso   1.000  C
  C193     1.0000 0.13680  0.48330  0.28126  Biso   1.000  C
  H241     1.0000 0.07510  0.44920  0.28370  Biso   1.000  H
  C194     1.0000 0.17690  0.53110  0.34641  Biso   1.000  C
  H242     1.0000 0.22980  0.58480  0.34090  Biso   1.000  H
  C195     1.0000 0.98770  0.35390  0.98255  Biso   1.000  C
  C196     1.0000 0.92870  0.26610  0.95370  Biso   1.000  C
  H243     1.0000 0.93970  0.22250  0.97150  Biso   1.000  H
  C197     1.0000 0.18120  0.45260  0.32834  Biso   1.000  C
  C198     1.0000 0.26730  0.46680  0.31190  Biso   1.000  C
  H244     1.0000 0.29850  0.51880  0.28750  Biso   1.000  H
  H245     1.0000 0.29660  0.46970  0.35280  Biso   1.000  H
  H246     1.0000 0.26210  0.42100  0.28470  Biso   1.000  H
  C199     1.0000 0.12630  0.37010  0.36420  Biso   1.000  C
  H247     1.0000 0.12140  0.32430  0.33720  Biso   1.000  H
  H248     1.0000 0.15140  0.37040  0.40680  Biso   1.000  H
  H249     1.0000 0.07130  0.36310  0.37150  Biso   1.000  H
  C200     1.0000 0.83830  0.23020  0.92440  Biso   1.000  C
  H250     1.0000 0.80400  0.16860  0.92750  Biso   1.000  H
  O84      1.0000 0.81288  0.34987  0.90864  Biso   1.000  O
  O85      1.0000 0.70883  0.22684  0.93797  Biso   1.000  O
  C201     1.0000 0.78670  0.27400  0.92652  Biso   1.000  C
  C202     1.0000 0.91760  0.19030  0.83940  Biso   1.000  C
  H251     1.0000 0.88200  0.13750  0.86160  Biso   1.000  H
  H252     1.0000 0.89840  0.18770  0.79400  Biso   1.000  H
  H253     1.0000 0.97470  0.20120  0.83890  Biso   1.000  H
  O86      1.0000 0.97813  0.41615  0.96835  Biso   1.000  O
  O87      1.0000 0.15355  0.58007  0.45033  Biso   1.000  O
  O88      1.0000 0.04257  0.47741  0.39508  Biso   1.000  O
  C203     1.0000 0.91410  0.26010  0.87660  Biso   1.000  C
  C204     1.0000 0.94790  0.33860  0.83250  Biso   1.000  C
  H254     1.0000 0.00820  0.36450  0.82880  Biso   1.000  H
  H255     1.0000 0.92320  0.32300  0.78850  Biso   1.000  H
  H256     1.0000 0.93390  0.37790  0.85240  Biso   1.000  H
  C205     1.0000 0.90480  0.23720  0.89070  Biso   1.000  C
  C206     1.0000 0.94150  0.30310  0.83740  Biso   1.000  C
  H257     1.0000 0.97760  0.35710  0.85770  Biso   1.000  H
  H258     1.0000 0.97360  0.28980  0.80660  Biso   1.000  H
  H259     1.0000 0.89680  0.30490  0.81340  Biso   1.000  H
  C207     1.0000 0.93010  0.26990  0.95940  Biso   1.000  C
  H260     1.0000 0.93410  0.22820  0.98780  Biso   1.000  H
  C208     1.0000 0.83940  0.23550  0.93540  Biso   1.000  C
  H261     1.0000 0.80440  0.17810  0.95290  Biso   1.000  H
  C209     1.0000 0.90270  0.15840  0.86840  Biso   1.000  C
  H262     1.0000 0.95890  0.17060  0.85790  Biso   1.000  H
  H263     1.0000 0.88000  0.11720  0.90380  Biso   1.000  H
  H264     1.0000 0.86780  0.13670  0.82900  Biso   1.000  H
  Eu12     1.0000 0.41688  0.90929  0.05600  Biso   1.000  Eu
  O89      1.0000 0.31572  0.95229  0.01937  Biso   1.000  O
  O90      1.0000 0.33016  0.75597  0.20344  Biso   1.000  O
  O91      1.0000 0.37750  0.88740  0.16758  Biso   1.000  O
  C210     1.0000 0.35120  0.83160  0.21301  Biso   1.000  C
  C211     1.0000 0.40970  0.88010  0.40101  Biso   1.000  C
  C212     1.0000 0.34650  0.86320  0.28126  Biso   1.000  C
  H265     1.0000 0.37410  0.92490  0.28370  Biso   1.000  H
  C213     1.0000 0.35420  0.82310  0.34641  Biso   1.000  C
  H266     1.0000 0.35500  0.77020  0.34090  Biso   1.000  H
  C214     1.0000 0.36620  0.01230  0.98255  Biso   1.000  C
  C215     1.0000 0.33740  0.07130  0.95370  Biso   1.000  C
  H267     1.0000 0.28280  0.06030  0.97150  Biso   1.000  H
  C216     1.0000 0.27140  0.81880  0.32834  Biso   1.000  C
  C217     1.0000 0.19950  0.73270  0.31190  Biso   1.000  C
  H268     1.0000 0.22030  0.70150  0.28750  Biso   1.000  H
  H269     1.0000 0.17310  0.70340  0.35280  Biso   1.000  H
  H270     1.0000 0.15890  0.73790  0.28470  Biso   1.000  H
  C218     1.0000 0.24380  0.87370  0.36420  Biso   1.000  C
  H271     1.0000 0.20290  0.87860  0.33720  Biso   1.000  H
  H272     1.0000 0.21900  0.84860  0.40680  Biso   1.000  H
  H273     1.0000 0.29180  0.92870  0.37150  Biso   1.000  H
  C219     1.0000 0.39190  0.16170  0.92440  Biso   1.000  C
  H274     1.0000 0.36460  0.19600  0.92750  Biso   1.000  H
  O92      1.0000 0.53699  0.18712  0.90864  Biso   1.000  O
  O93      1.0000 0.51801  0.29117  0.93797  Biso   1.000  O
  C220     1.0000 0.48730  0.21330  0.92652  Biso   1.000  C
  C221     1.0000 0.27270  0.08240  0.83940  Biso   1.000  C
  H275     1.0000 0.25550  0.11800  0.86160  Biso   1.000  H
  H276     1.0000 0.28930  0.10160  0.79400  Biso   1.000  H
  H277     1.0000 0.22650  0.02530  0.83890  Biso   1.000  H
  O94      1.0000 0.43802  0.02187  0.96835  Biso   1.000  O
  O95      1.0000 0.42652  0.84645  0.45033  Biso   1.000  O
  O96      1.0000 0.43484  0.95743  0.39508  Biso   1.000  O
  C222     1.0000 0.34600  0.08590  0.87660  Biso   1.000  C
  C223     1.0000 0.39070  0.05210  0.83250  Biso   1.000  C
  H278     1.0000 0.35630  0.99180  0.82880  Biso   1.000  H
  H279     1.0000 0.39980  0.07680  0.78850  Biso   1.000  H
  H280     1.0000 0.44400  0.06610  0.85240  Biso   1.000  H
  C224     1.0000 0.33240  0.09520  0.89070  Biso   1.000  C
  C225     1.0000 0.36160  0.05850  0.83740  Biso   1.000  C
  H281     1.0000 0.37950  0.02240  0.85770  Biso   1.000  H
  H282     1.0000 0.31620  0.02640  0.80660  Biso   1.000  H
  H283     1.0000 0.40810  0.10320  0.81340  Biso   1.000  H
  C226     1.0000 0.33980  0.06990  0.95940  Biso   1.000  C
  H284     1.0000 0.29410  0.06590  0.98780  Biso   1.000  H
  C227     1.0000 0.39610  0.16060  0.93540  Biso   1.000  C
  H285     1.0000 0.37370  0.19560  0.95290  Biso   1.000  H
  C228     1.0000 0.25570  0.09730  0.86840  Biso   1.000  C
  H286     1.0000 0.21170  0.04110  0.85790  Biso   1.000  H
  H287     1.0000 0.23720  0.12000  0.90380  Biso   1.000  H
  H288     1.0000 0.26890  0.13220  0.82900  Biso   1.000  H
  Eu13     1.0000 0.33333  0.66667  0.61850  Biso   1.000  Eu
  Eu14     1.0000 0.66667  0.33333  0.88150  Biso   1.000  Eu
  Eu15     1.0000 0.66667  0.33333  0.38150  Biso   1.000  Eu
  Eu16     1.0000 0.33333  0.66667  0.11850  Biso   1.000  Eu
