data_image0
_cell_length_a       18.1712
_cell_length_b       18.1712
_cell_length_c       19.7581
_cell_angle_alpha    90
_cell_angle_beta     90
_cell_angle_gamma    120

_symmetry_space_group_name_H-M    "P 1"
_symmetry_int_tables_number       1

loop_
  _symmetry_equiv_pos_as_xyz
  'x, y, z'

loop_
  _atom_site_label
  _atom_site_occupancy
  _atom_site_fract_x
  _atom_site_fract_y
  _atom_site_fract_z
  _atom_site_thermal_displace_type
  _atom_site_B_iso_or_equiv
  _atom_site_type_symbol
  Tb1      1.0000 0.58274  0.49181  0.55565  Biso   1.000  Tb
  O1       1.0000 0.67016  0.42537  0.70240  Biso   1.000  O
  O2       1.0000 0.68356  0.63493  0.51999  Biso   1.000  O
  C1       1.0000 0.64580  0.46890  0.84601  Biso   1.000  C
  H1       1.0000 0.64520  0.41500  0.84090  Biso   1.000  H
  C2       1.0000 0.65280  0.51600  0.78056  Biso   1.000  C
  H2       1.0000 0.62460  0.55000  0.78290  Biso   1.000  H
  C3       1.0000 0.72860  0.54790  0.82787  Biso   1.000  C
  C4       1.0000 0.64850  0.47980  0.71213  Biso   1.000  C
  C5       1.0000 0.63360  0.64540  0.48285  Biso   1.000  C
  C6       1.0000 0.59010  0.47110  0.90066  Biso   1.000  C
  C7       1.0000 0.66290  0.73190  0.45210  Biso   1.000  C
  H3       1.0000 0.71810  0.77610  0.46920  Biso   1.000  H
  C8       1.0000 0.60790  0.76690  0.42420  Biso   1.000  C
  H4       1.0000 0.63640  0.82900  0.42700  Biso   1.000  H
  C9       1.0000 0.80130  0.53410  0.81150  Biso   1.000  C
  H5       1.0000 0.82720  0.53030  0.85270  Biso   1.000  H
  H6       1.0000 0.84260  0.58100  0.78500  Biso   1.000  H
  H7       1.0000 0.78090  0.48240  0.78620  Biso   1.000  H
  C10      1.0000 0.65280  0.73640  0.37440  Biso   1.000  C
  C11      1.0000 0.75600  0.63100  0.86350  Biso   1.000  C
  H8       1.0000 0.70700  0.63600  0.87340  Biso   1.000  H
  H9       1.0000 0.79410  0.67720  0.83490  Biso   1.000  H
  H10      1.0000 0.78440  0.63270  0.90490  Biso   1.000  H
  C12      1.0000 0.60580  0.65620  0.33230  Biso   1.000  C
  H11      1.0000 0.56910  0.66240  0.30070  Biso   1.000  H
  H12      1.0000 0.57250  0.60870  0.36150  Biso   1.000  H
  H13      1.0000 0.64600  0.64670  0.30800  Biso   1.000  H
  C13      1.0000 0.72940  0.80810  0.33960  Biso   1.000  C
  H14      1.0000 0.75720  0.78510  0.31280  Biso   1.000  H
  H15      1.0000 0.76820  0.84590  0.37310  Biso   1.000  H
  H16      1.0000 0.71130  0.83870  0.31090  Biso   1.000  H
  O3       1.0000 0.62191  0.50929  0.66659  Biso   1.000  O
  O4       1.0000 0.48166  0.77365  0.43867  Biso   1.000  O
  C14      1.0000 0.51230  0.72600  0.42735  Biso   1.000  C
  O5       1.0000 0.46221  0.64998  0.40949  Biso   1.000  O
  O6       1.0000 0.57266  0.42032  0.95052  Biso   1.000  O
  O7       1.0000 0.56433  0.52293  0.89473  Biso   1.000  O
  O8       1.0000 0.56107  0.58299  0.46871  Biso   1.000  O
  C15      1.0000 0.66080  0.73130  0.46150  Biso   1.000  C
  H17      1.0000 0.70840  0.77300  0.48890  Biso   1.000  H
  C16      1.0000 0.60410  0.76630  0.43670  Biso   1.000  C
  H18      1.0000 0.62700  0.82500  0.45210  Biso   1.000  H
  C17      1.0000 0.66690  0.76040  0.38940  Biso   1.000  C
  C18      1.0000 0.63510  0.69150  0.33620  Biso   1.000  C
  H19      1.0000 0.65410  0.65220  0.34680  Biso   1.000  H
  H20      1.0000 0.65670  0.71650  0.29270  Biso   1.000  H
  H21      1.0000 0.57410  0.66190  0.33520  Biso   1.000  H
  C19      1.0000 0.74350  0.84270  0.36780  Biso   1.000  C
  H22      1.0000 0.75990  0.88350  0.40370  Biso   1.000  H
  H23      1.0000 0.72970  0.86400  0.32820  Biso   1.000  H
  H24      1.0000 0.78960  0.83300  0.35770  Biso   1.000  H
  Tb2      1.0000 0.50819  0.09093  0.55565  Biso   1.000  Tb
  O9       1.0000 0.57463  0.24479  0.70240  Biso   1.000  O
  O10      1.0000 0.36507  0.04863  0.51999  Biso   1.000  O
  C20      1.0000 0.53110  0.17690  0.84601  Biso   1.000  C
  H25      1.0000 0.58500  0.23020  0.84090  Biso   1.000  H
  C21      1.0000 0.48400  0.13680  0.78056  Biso   1.000  C
  H26      1.0000 0.45000  0.07460  0.78290  Biso   1.000  H
  C22      1.0000 0.45210  0.18070  0.82787  Biso   1.000  C
  C23      1.0000 0.52020  0.16870  0.71213  Biso   1.000  C
  C24      1.0000 0.35460  0.98820  0.48285  Biso   1.000  C
  C25      1.0000 0.52890  0.11900  0.90066  Biso   1.000  C
  C26      1.0000 0.26810  0.93100  0.45210  Biso   1.000  C
  H27      1.0000 0.22390  0.94200  0.46920  Biso   1.000  H
  C27      1.0000 0.23310  0.84100  0.42420  Biso   1.000  C
  H28      1.0000 0.17100  0.80740  0.42700  Biso   1.000  H
  C28      1.0000 0.46590  0.26720  0.81150  Biso   1.000  C
  H29      1.0000 0.46970  0.29690  0.85270  Biso   1.000  H
  H30      1.0000 0.41900  0.26160  0.78500  Biso   1.000  H
  H31      1.0000 0.51760  0.29850  0.78620  Biso   1.000  H
  C29      1.0000 0.26360  0.91640  0.37440  Biso   1.000  C
  C30      1.0000 0.36900  0.12500  0.86350  Biso   1.000  C
  H32      1.0000 0.36400  0.07100  0.87340  Biso   1.000  H
  H33      1.0000 0.32280  0.11690  0.83490  Biso   1.000  H
  H34      1.0000 0.36730  0.15170  0.90490  Biso   1.000  H
  C31      1.0000 0.34380  0.94960  0.33230  Biso   1.000  C
  H35      1.0000 0.33760  0.90670  0.30070  Biso   1.000  H
  H36      1.0000 0.39130  0.96380  0.36150  Biso   1.000  H
  H37      1.0000 0.35330  0.99930  0.30800  Biso   1.000  H
  C32      1.0000 0.19190  0.92130  0.33960  Biso   1.000  C
  H38      1.0000 0.21490  0.97210  0.31280  Biso   1.000  H
  H39      1.0000 0.15410  0.92230  0.37310  Biso   1.000  H
  H40      1.0000 0.16130  0.87260  0.31090  Biso   1.000  H
  O11      1.0000 0.49071  0.11262  0.66659  Biso   1.000  O
  O12      1.0000 0.22635  0.70801  0.43867  Biso   1.000  O
  C33      1.0000 0.27400  0.78630  0.42735  Biso   1.000  C
  O13      1.0000 0.35002  0.81223  0.40949  Biso   1.000  O
  O14      1.0000 0.57968  0.15234  0.95052  Biso   1.000  O
  O15      1.0000 0.47707  0.04140  0.89473  Biso   1.000  O
  O16      1.0000 0.41701  0.97808  0.46871  Biso   1.000  O
  C34      1.0000 0.26870  0.92950  0.46150  Biso   1.000  C
  H41      1.0000 0.22700  0.93540  0.48890  Biso   1.000  H
  C35      1.0000 0.23370  0.83780  0.43670  Biso   1.000  C
  H42      1.0000 0.17500  0.80200  0.45210  Biso   1.000  H
  C36      1.0000 0.23960  0.90650  0.38940  Biso   1.000  C
  C37      1.0000 0.30850  0.94360  0.33620  Biso   1.000  C
  H43      1.0000 0.34780  0.00190  0.34680  Biso   1.000  H
  H44      1.0000 0.28350  0.94020  0.29270  Biso   1.000  H
  H45      1.0000 0.33810  0.91220  0.33520  Biso   1.000  H
  C38      1.0000 0.15730  0.90080  0.36780  Biso   1.000  C
  H46      1.0000 0.11650  0.87640  0.40370  Biso   1.000  H
  H47      1.0000 0.13600  0.86570  0.32820  Biso   1.000  H
  H48      1.0000 0.16700  0.95660  0.35770  Biso   1.000  H
  Tb3      1.0000 0.90907  0.41726  0.55565  Biso   1.000  Tb
  O17      1.0000 0.75521  0.32984  0.70240  Biso   1.000  O
  O18      1.0000 0.95137  0.31644  0.51999  Biso   1.000  O
  C39      1.0000 0.82310  0.35420  0.84601  Biso   1.000  C
  H49      1.0000 0.76980  0.35480  0.84090  Biso   1.000  H
  C40      1.0000 0.86320  0.34720  0.78056  Biso   1.000  C
  H50      1.0000 0.92540  0.37540  0.78290  Biso   1.000  H
  C41      1.0000 0.81930  0.27140  0.82787  Biso   1.000  C
  C42      1.0000 0.83130  0.35150  0.71213  Biso   1.000  C
  C43      1.0000 0.01180  0.36640  0.48285  Biso   1.000  C
  C44      1.0000 0.88100  0.40990  0.90066  Biso   1.000  C
  C45      1.0000 0.06900  0.33710  0.45210  Biso   1.000  C
  H51      1.0000 0.05800  0.28190  0.46920  Biso   1.000  H
  C46      1.0000 0.15900  0.39210  0.42420  Biso   1.000  C
  H52      1.0000 0.19260  0.36360  0.42700  Biso   1.000  H
  C47      1.0000 0.73280  0.19870  0.81150  Biso   1.000  C
  H53      1.0000 0.70310  0.17280  0.85270  Biso   1.000  H
  H54      1.0000 0.73840  0.15740  0.78500  Biso   1.000  H
  H55      1.0000 0.70150  0.21910  0.78620  Biso   1.000  H
  C48      1.0000 0.08360  0.34720  0.37440  Biso   1.000  C
  C49      1.0000 0.87500  0.24400  0.86350  Biso   1.000  C
  H56      1.0000 0.92900  0.29300  0.87340  Biso   1.000  H
  H57      1.0000 0.88310  0.20590  0.83490  Biso   1.000  H
  H58      1.0000 0.84830  0.21560  0.90490  Biso   1.000  H
  C50      1.0000 0.05040  0.39420  0.33230  Biso   1.000  C
  H59      1.0000 0.09330  0.43090  0.30070  Biso   1.000  H
  H60      1.0000 0.03620  0.42750  0.36150  Biso   1.000  H
  H61      1.0000 0.00070  0.35400  0.30800  Biso   1.000  H
  C51      1.0000 0.07870  0.27060  0.33960  Biso   1.000  C
  H62      1.0000 0.02790  0.24280  0.31280  Biso   1.000  H
  H63      1.0000 0.07770  0.23180  0.37310  Biso   1.000  H
  H64      1.0000 0.12740  0.28870  0.31090  Biso   1.000  H
  O19      1.0000 0.88738  0.37809  0.66659  Biso   1.000  O
  O20      1.0000 0.29199  0.51834  0.43867  Biso   1.000  O
  C52      1.0000 0.21370  0.48770  0.42735  Biso   1.000  C
  O21      1.0000 0.18777  0.53779  0.40949  Biso   1.000  O
  O22      1.0000 0.84766  0.42734  0.95052  Biso   1.000  O
  O23      1.0000 0.95860  0.43567  0.89473  Biso   1.000  O
  O24      1.0000 0.02192  0.43893  0.46871  Biso   1.000  O
  C53      1.0000 0.07050  0.33920  0.46150  Biso   1.000  C
  H65      1.0000 0.06460  0.29160  0.48890  Biso   1.000  H
  C54      1.0000 0.16220  0.39590  0.43670  Biso   1.000  C
  H66      1.0000 0.19800  0.37300  0.45210  Biso   1.000  H
  C55      1.0000 0.09350  0.33310  0.38940  Biso   1.000  C
  C56      1.0000 0.05640  0.36490  0.33620  Biso   1.000  C
  H67      1.0000 0.99810  0.34590  0.34680  Biso   1.000  H
  H68      1.0000 0.05980  0.34330  0.29270  Biso   1.000  H
  H69      1.0000 0.08780  0.42590  0.33520  Biso   1.000  H
  C57      1.0000 0.09920  0.25650  0.36780  Biso   1.000  C
  H70      1.0000 0.12360  0.24010  0.40370  Biso   1.000  H
  H71      1.0000 0.13430  0.27030  0.32820  Biso   1.000  H
  H72      1.0000 0.04340  0.21040  0.35770  Biso   1.000  H
  Tb4      1.0000 0.49181  0.58274  0.94435  Biso   1.000  Tb
  O25      1.0000 0.42537  0.67016  0.79760  Biso   1.000  O
  O26      1.0000 0.63493  0.68356  0.98001  Biso   1.000  O
  C58      1.0000 0.46890  0.64580  0.65399  Biso   1.000  C
  H73      1.0000 0.41500  0.64520  0.65910  Biso   1.000  H
  C59      1.0000 0.51600  0.65280  0.71944  Biso   1.000  C
  H74      1.0000 0.55000  0.62460  0.71710  Biso   1.000  H
  C60      1.0000 0.54790  0.72860  0.67213  Biso   1.000  C
  C61      1.0000 0.47980  0.64850  0.78787  Biso   1.000  C
  C62      1.0000 0.64540  0.63360  0.01715  Biso   1.000  C
  C63      1.0000 0.47110  0.59010  0.59934  Biso   1.000  C
  C64      1.0000 0.73190  0.66290  0.04790  Biso   1.000  C
  H75      1.0000 0.77610  0.71810  0.03080  Biso   1.000  H
  C65      1.0000 0.76690  0.60790  0.07580  Biso   1.000  C
  H76      1.0000 0.82900  0.63640  0.07300  Biso   1.000  H
  C66      1.0000 0.53410  0.80130  0.68850  Biso   1.000  C
  H77      1.0000 0.53030  0.82720  0.64730  Biso   1.000  H
  H78      1.0000 0.58100  0.84260  0.71500  Biso   1.000  H
  H79      1.0000 0.48240  0.78090  0.71380  Biso   1.000  H
  C67      1.0000 0.73640  0.65280  0.12560  Biso   1.000  C
  C68      1.0000 0.63100  0.75600  0.63650  Biso   1.000  C
  H80      1.0000 0.63600  0.70700  0.62660  Biso   1.000  H
  H81      1.0000 0.67720  0.79410  0.66510  Biso   1.000  H
  H82      1.0000 0.63270  0.78440  0.59510  Biso   1.000  H
  C69      1.0000 0.65620  0.60580  0.16770  Biso   1.000  C
  H83      1.0000 0.66240  0.56910  0.19930  Biso   1.000  H
  H84      1.0000 0.60870  0.57250  0.13850  Biso   1.000  H
  H85      1.0000 0.64670  0.64600  0.19200  Biso   1.000  H
  C70      1.0000 0.80810  0.72940  0.16040  Biso   1.000  C
  H86      1.0000 0.78510  0.75720  0.18720  Biso   1.000  H
  H87      1.0000 0.84590  0.76820  0.12690  Biso   1.000  H
  H88      1.0000 0.83870  0.71130  0.18910  Biso   1.000  H
  O27      1.0000 0.50929  0.62191  0.83341  Biso   1.000  O
  O28      1.0000 0.77365  0.48166  0.06133  Biso   1.000  O
  C71      1.0000 0.72600  0.51230  0.07265  Biso   1.000  C
  O29      1.0000 0.64998  0.46221  0.09051  Biso   1.000  O
  O30      1.0000 0.42032  0.57266  0.54948  Biso   1.000  O
  O31      1.0000 0.52293  0.56433  0.60527  Biso   1.000  O
  O32      1.0000 0.58299  0.56107  0.03129  Biso   1.000  O
  C72      1.0000 0.73130  0.66080  0.03850  Biso   1.000  C
  H89      1.0000 0.77300  0.70840  0.01110  Biso   1.000  H
  C73      1.0000 0.76630  0.60410  0.06330  Biso   1.000  C
  H90      1.0000 0.82500  0.62700  0.04790  Biso   1.000  H
  C74      1.0000 0.76040  0.66690  0.11060  Biso   1.000  C
  C75      1.0000 0.69150  0.63510  0.16380  Biso   1.000  C
  H91      1.0000 0.65220  0.65410  0.15320  Biso   1.000  H
  H92      1.0000 0.71650  0.65670  0.20730  Biso   1.000  H
  H93      1.0000 0.66190  0.57410  0.16480  Biso   1.000  H
  C76      1.0000 0.84270  0.74350  0.13220  Biso   1.000  C
  H94      1.0000 0.88350  0.75990  0.09630  Biso   1.000  H
  H95      1.0000 0.86400  0.72970  0.17180  Biso   1.000  H
  H96      1.0000 0.83300  0.78960  0.14230  Biso   1.000  H
  Tb5      1.0000 0.09093  0.50819  0.94435  Biso   1.000  Tb
  O33      1.0000 0.24479  0.57463  0.79760  Biso   1.000  O
  O34      1.0000 0.04863  0.36507  0.98001  Biso   1.000  O
  C77      1.0000 0.17690  0.53110  0.65399  Biso   1.000  C
  H97      1.0000 0.23020  0.58500  0.65910  Biso   1.000  H
  C78      1.0000 0.13680  0.48400  0.71944  Biso   1.000  C
  H98      1.0000 0.07460  0.45000  0.71710  Biso   1.000  H
  C79      1.0000 0.18070  0.45210  0.67213  Biso   1.000  C
  C80      1.0000 0.16870  0.52020  0.78787  Biso   1.000  C
  C81      1.0000 0.98820  0.35460  0.01715  Biso   1.000  C
  C82      1.0000 0.11900  0.52890  0.59934  Biso   1.000  C
  C83      1.0000 0.93100  0.26810  0.04790  Biso   1.000  C
  H99      1.0000 0.94200  0.22390  0.03080  Biso   1.000  H
  C84      1.0000 0.84100  0.23310  0.07580  Biso   1.000  C
  H100     1.0000 0.80740  0.17100  0.07300  Biso   1.000  H
  C85      1.0000 0.26720  0.46590  0.68850  Biso   1.000  C
  H101     1.0000 0.29690  0.46970  0.64730  Biso   1.000  H
  H102     1.0000 0.26160  0.41900  0.71500  Biso   1.000  H
  H103     1.0000 0.29850  0.51760  0.71380  Biso   1.000  H
  C86      1.0000 0.91640  0.26360  0.12560  Biso   1.000  C
  C87      1.0000 0.12500  0.36900  0.63650  Biso   1.000  C
  H104     1.0000 0.07100  0.36400  0.62660  Biso   1.000  H
  H105     1.0000 0.11690  0.32280  0.66510  Biso   1.000  H
  H106     1.0000 0.15170  0.36730  0.59510  Biso   1.000  H
  C88      1.0000 0.94960  0.34380  0.16770  Biso   1.000  C
  H107     1.0000 0.90670  0.33760  0.19930  Biso   1.000  H
  H108     1.0000 0.96380  0.39130  0.13850  Biso   1.000  H
  H109     1.0000 0.99930  0.35330  0.19200  Biso   1.000  H
  C89      1.0000 0.92130  0.19190  0.16040  Biso   1.000  C
  H110     1.0000 0.97210  0.21490  0.18720  Biso   1.000  H
  H111     1.0000 0.92230  0.15410  0.12690  Biso   1.000  H
  H112     1.0000 0.87260  0.16130  0.18910  Biso   1.000  H
  O35      1.0000 0.11262  0.49071  0.83341  Biso   1.000  O
  O36      1.0000 0.70801  0.22635  0.06133  Biso   1.000  O
  C90      1.0000 0.78630  0.27400  0.07265  Biso   1.000  C
  O37      1.0000 0.81223  0.35002  0.09051  Biso   1.000  O
  O38      1.0000 0.15234  0.57968  0.54948  Biso   1.000  O
  O39      1.0000 0.04140  0.47707  0.60527  Biso   1.000  O
  O40      1.0000 0.97808  0.41701  0.03129  Biso   1.000  O
  C91      1.0000 0.92950  0.26870  0.03850  Biso   1.000  C
  H113     1.0000 0.93540  0.22700  0.01110  Biso   1.000  H
  C92      1.0000 0.83780  0.23370  0.06330  Biso   1.000  C
  H114     1.0000 0.80200  0.17500  0.04790  Biso   1.000  H
  C93      1.0000 0.90650  0.23960  0.11060  Biso   1.000  C
  C94      1.0000 0.94360  0.30850  0.16380  Biso   1.000  C
  H115     1.0000 0.00190  0.34780  0.15320  Biso   1.000  H
  H116     1.0000 0.94020  0.28350  0.20730  Biso   1.000  H
  H117     1.0000 0.91220  0.33810  0.16480  Biso   1.000  H
  C95      1.0000 0.90080  0.15730  0.13220  Biso   1.000  C
  H118     1.0000 0.87640  0.11650  0.09630  Biso   1.000  H
  H119     1.0000 0.86570  0.13600  0.17180  Biso   1.000  H
  H120     1.0000 0.95660  0.16700  0.14230  Biso   1.000  H
  Tb6      1.0000 0.41726  0.90907  0.94435  Biso   1.000  Tb
  O41      1.0000 0.32984  0.75521  0.79760  Biso   1.000  O
  O42      1.0000 0.31644  0.95137  0.98001  Biso   1.000  O
  C96      1.0000 0.35420  0.82310  0.65399  Biso   1.000  C
  H121     1.0000 0.35480  0.76980  0.65910  Biso   1.000  H
  C97      1.0000 0.34720  0.86320  0.71944  Biso   1.000  C
  H122     1.0000 0.37540  0.92540  0.71710  Biso   1.000  H
  C98      1.0000 0.27140  0.81930  0.67213  Biso   1.000  C
  C99      1.0000 0.35150  0.83130  0.78787  Biso   1.000  C
  C100     1.0000 0.36640  0.01180  0.01715  Biso   1.000  C
  C101     1.0000 0.40990  0.88100  0.59934  Biso   1.000  C
  C102     1.0000 0.33710  0.06900  0.04790  Biso   1.000  C
  H123     1.0000 0.28190  0.05800  0.03080  Biso   1.000  H
  C103     1.0000 0.39210  0.15900  0.07580  Biso   1.000  C
  H124     1.0000 0.36360  0.19260  0.07300  Biso   1.000  H
  C104     1.0000 0.19870  0.73280  0.68850  Biso   1.000  C
  H125     1.0000 0.17280  0.70310  0.64730  Biso   1.000  H
  H126     1.0000 0.15740  0.73840  0.71500  Biso   1.000  H
  H127     1.0000 0.21910  0.70150  0.71380  Biso   1.000  H
  C105     1.0000 0.34720  0.08360  0.12560  Biso   1.000  C
  C106     1.0000 0.24400  0.87500  0.63650  Biso   1.000  C
  H128     1.0000 0.29300  0.92900  0.62660  Biso   1.000  H
  H129     1.0000 0.20590  0.88310  0.66510  Biso   1.000  H
  H130     1.0000 0.21560  0.84830  0.59510  Biso   1.000  H
  C107     1.0000 0.39420  0.05040  0.16770  Biso   1.000  C
  H131     1.0000 0.43090  0.09330  0.19930  Biso   1.000  H
  H132     1.0000 0.42750  0.03620  0.13850  Biso   1.000  H
  H133     1.0000 0.35400  0.00070  0.19200  Biso   1.000  H
  C108     1.0000 0.27060  0.07870  0.16040  Biso   1.000  C
  H134     1.0000 0.24280  0.02790  0.18720  Biso   1.000  H
  H135     1.0000 0.23180  0.07770  0.12690  Biso   1.000  H
  H136     1.0000 0.28870  0.12740  0.18910  Biso   1.000  H
  O43      1.0000 0.37809  0.88738  0.83341  Biso   1.000  O
  O44      1.0000 0.51834  0.29199  0.06133  Biso   1.000  O
  C109     1.0000 0.48770  0.21370  0.07265  Biso   1.000  C
  O45      1.0000 0.53779  0.18777  0.09051  Biso   1.000  O
  O46      1.0000 0.42734  0.84766  0.54948  Biso   1.000  O
  O47      1.0000 0.43567  0.95860  0.60527  Biso   1.000  O
  O48      1.0000 0.43893  0.02192  0.03129  Biso   1.000  O
  C110     1.0000 0.33920  0.07050  0.03850  Biso   1.000  C
  H137     1.0000 0.29160  0.06460  0.01110  Biso   1.000  H
  C111     1.0000 0.39590  0.16220  0.06330  Biso   1.000  C
  H138     1.0000 0.37300  0.19800  0.04790  Biso   1.000  H
  C112     1.0000 0.33310  0.09350  0.11060  Biso   1.000  C
  C113     1.0000 0.36490  0.05640  0.16380  Biso   1.000  C
  H139     1.0000 0.34590  0.99810  0.15320  Biso   1.000  H
  H140     1.0000 0.34330  0.05980  0.20730  Biso   1.000  H
  H141     1.0000 0.42590  0.08780  0.16480  Biso   1.000  H
  C114     1.0000 0.25650  0.09920  0.13220  Biso   1.000  C
  H142     1.0000 0.24010  0.12360  0.09630  Biso   1.000  H
  H143     1.0000 0.27030  0.13430  0.17180  Biso   1.000  H
  H144     1.0000 0.21040  0.04340  0.14230  Biso   1.000  H
  Tb7      1.0000 0.41726  0.50819  0.44435  Biso   1.000  Tb
  O49      1.0000 0.32984  0.57463  0.29760  Biso   1.000  O
  O50      1.0000 0.31644  0.36507  0.48001  Biso   1.000  O
  C115     1.0000 0.35420  0.53110  0.15399  Biso   1.000  C
  H145     1.0000 0.35480  0.58500  0.15910  Biso   1.000  H
  C116     1.0000 0.34720  0.48400  0.21944  Biso   1.000  C
  H146     1.0000 0.37540  0.45000  0.21710  Biso   1.000  H
  C117     1.0000 0.27140  0.45210  0.17213  Biso   1.000  C
  C118     1.0000 0.35150  0.52020  0.28787  Biso   1.000  C
  C119     1.0000 0.36640  0.35460  0.51715  Biso   1.000  C
  C120     1.0000 0.40990  0.52890  0.09934  Biso   1.000  C
  C121     1.0000 0.33710  0.26810  0.54790  Biso   1.000  C
  H147     1.0000 0.28190  0.22390  0.53080  Biso   1.000  H
  C122     1.0000 0.39210  0.23310  0.57580  Biso   1.000  C
  H148     1.0000 0.36360  0.17100  0.57300  Biso   1.000  H
  C123     1.0000 0.19870  0.46590  0.18850  Biso   1.000  C
  H149     1.0000 0.17280  0.46970  0.14730  Biso   1.000  H
  H150     1.0000 0.15740  0.41900  0.21500  Biso   1.000  H
  H151     1.0000 0.21910  0.51760  0.21380  Biso   1.000  H
  C124     1.0000 0.34720  0.26360  0.62560  Biso   1.000  C
  C125     1.0000 0.24400  0.36900  0.13650  Biso   1.000  C
  H152     1.0000 0.29300  0.36400  0.12660  Biso   1.000  H
  H153     1.0000 0.20590  0.32280  0.16510  Biso   1.000  H
  H154     1.0000 0.21560  0.36730  0.09510  Biso   1.000  H
  C126     1.0000 0.39420  0.34380  0.66770  Biso   1.000  C
  H155     1.0000 0.43090  0.33760  0.69930  Biso   1.000  H
  H156     1.0000 0.42750  0.39130  0.63850  Biso   1.000  H
  H157     1.0000 0.35400  0.35330  0.69200  Biso   1.000  H
  C127     1.0000 0.27060  0.19190  0.66040  Biso   1.000  C
  H158     1.0000 0.24280  0.21490  0.68720  Biso   1.000  H
  H159     1.0000 0.23180  0.15410  0.62690  Biso   1.000  H
  H160     1.0000 0.28870  0.16130  0.68910  Biso   1.000  H
  O51      1.0000 0.37809  0.49071  0.33341  Biso   1.000  O
  O52      1.0000 0.51834  0.22635  0.56133  Biso   1.000  O
  C128     1.0000 0.48770  0.27400  0.57265  Biso   1.000  C
  O53      1.0000 0.53779  0.35002  0.59051  Biso   1.000  O
  O54      1.0000 0.42734  0.57968  0.04948  Biso   1.000  O
  O55      1.0000 0.43567  0.47707  0.10527  Biso   1.000  O
  O56      1.0000 0.43893  0.41701  0.53129  Biso   1.000  O
  C129     1.0000 0.33920  0.26870  0.53850  Biso   1.000  C
  H161     1.0000 0.29160  0.22700  0.51110  Biso   1.000  H
  C130     1.0000 0.39590  0.23370  0.56330  Biso   1.000  C
  H162     1.0000 0.37300  0.17500  0.54790  Biso   1.000  H
  C131     1.0000 0.33310  0.23960  0.61060  Biso   1.000  C
  C132     1.0000 0.36490  0.30850  0.66380  Biso   1.000  C
  H163     1.0000 0.34590  0.34780  0.65320  Biso   1.000  H
  H164     1.0000 0.34330  0.28350  0.70730  Biso   1.000  H
  H165     1.0000 0.42590  0.33810  0.66480  Biso   1.000  H
  C133     1.0000 0.25650  0.15730  0.63220  Biso   1.000  C
  H166     1.0000 0.24010  0.11650  0.59630  Biso   1.000  H
  H167     1.0000 0.27030  0.13600  0.67180  Biso   1.000  H
  H168     1.0000 0.21040  0.16700  0.64230  Biso   1.000  H
  Tb8      1.0000 0.49181  0.90907  0.44435  Biso   1.000  Tb
  O57      1.0000 0.42537  0.75521  0.29760  Biso   1.000  O
  O58      1.0000 0.63493  0.95137  0.48001  Biso   1.000  O
  C134     1.0000 0.46890  0.82310  0.15399  Biso   1.000  C
  H169     1.0000 0.41500  0.76980  0.15910  Biso   1.000  H
  C135     1.0000 0.51600  0.86320  0.21944  Biso   1.000  C
  H170     1.0000 0.55000  0.92540  0.21710  Biso   1.000  H
  C136     1.0000 0.54790  0.81930  0.17213  Biso   1.000  C
  C137     1.0000 0.47980  0.83130  0.28787  Biso   1.000  C
  C138     1.0000 0.64540  0.01180  0.51715  Biso   1.000  C
  C139     1.0000 0.47110  0.88100  0.09934  Biso   1.000  C
  C140     1.0000 0.73190  0.06900  0.54790  Biso   1.000  C
  H171     1.0000 0.77610  0.05800  0.53080  Biso   1.000  H
  C141     1.0000 0.76690  0.15900  0.57580  Biso   1.000  C
  H172     1.0000 0.82900  0.19260  0.57300  Biso   1.000  H
  C142     1.0000 0.53410  0.73280  0.18850  Biso   1.000  C
  H173     1.0000 0.53030  0.70310  0.14730  Biso   1.000  H
  H174     1.0000 0.58100  0.73840  0.21500  Biso   1.000  H
  H175     1.0000 0.48240  0.70150  0.21380  Biso   1.000  H
  C143     1.0000 0.73640  0.08360  0.62560  Biso   1.000  C
  C144     1.0000 0.63100  0.87500  0.13650  Biso   1.000  C
  H176     1.0000 0.63600  0.92900  0.12660  Biso   1.000  H
  H177     1.0000 0.67720  0.88310  0.16510  Biso   1.000  H
  H178     1.0000 0.63270  0.84830  0.09510  Biso   1.000  H
  C145     1.0000 0.65620  0.05040  0.66770  Biso   1.000  C
  H179     1.0000 0.66240  0.09330  0.69930  Biso   1.000  H
  H180     1.0000 0.60870  0.03620  0.63850  Biso   1.000  H
  H181     1.0000 0.64670  0.00070  0.69200  Biso   1.000  H
  C146     1.0000 0.80810  0.07870  0.66040  Biso   1.000  C
  H182     1.0000 0.78510  0.02790  0.68720  Biso   1.000  H
  H183     1.0000 0.84590  0.07770  0.62690  Biso   1.000  H
  H184     1.0000 0.83870  0.12740  0.68910  Biso   1.000  H
  O59      1.0000 0.50929  0.88738  0.33341  Biso   1.000  O
  O60      1.0000 0.77365  0.29199  0.56133  Biso   1.000  O
  C147     1.0000 0.72600  0.21370  0.57265  Biso   1.000  C
  O61      1.0000 0.64998  0.18777  0.59051  Biso   1.000  O
  O62      1.0000 0.42032  0.84766  0.04948  Biso   1.000  O
  O63      1.0000 0.52293  0.95860  0.10527  Biso   1.000  O
  O64      1.0000 0.58299  0.02192  0.53129  Biso   1.000  O
  C148     1.0000 0.73130  0.07050  0.53850  Biso   1.000  C
  H185     1.0000 0.77300  0.06460  0.51110  Biso   1.000  H
  C149     1.0000 0.76630  0.16220  0.56330  Biso   1.000  C
  H186     1.0000 0.82500  0.19800  0.54790  Biso   1.000  H
  C150     1.0000 0.76040  0.09350  0.61060  Biso   1.000  C
  C151     1.0000 0.69150  0.05640  0.66380  Biso   1.000  C
  H187     1.0000 0.65220  0.99810  0.65320  Biso   1.000  H
  H188     1.0000 0.71650  0.05980  0.70730  Biso   1.000  H
  H189     1.0000 0.66190  0.08780  0.66480  Biso   1.000  H
  C152     1.0000 0.84270  0.09920  0.63220  Biso   1.000  C
  H190     1.0000 0.88350  0.12360  0.59630  Biso   1.000  H
  H191     1.0000 0.86400  0.13430  0.67180  Biso   1.000  H
  H192     1.0000 0.83300  0.04340  0.64230  Biso   1.000  H
  Tb9      1.0000 0.09093  0.58274  0.44435  Biso   1.000  Tb
  O65      1.0000 0.24479  0.67016  0.29760  Biso   1.000  O
  O66      1.0000 0.04863  0.68356  0.48001  Biso   1.000  O
  C153     1.0000 0.17690  0.64580  0.15399  Biso   1.000  C
  H193     1.0000 0.23020  0.64520  0.15910  Biso   1.000  H
  C154     1.0000 0.13680  0.65280  0.21944  Biso   1.000  C
  H194     1.0000 0.07460  0.62460  0.21710  Biso   1.000  H
  C155     1.0000 0.18070  0.72860  0.17213  Biso   1.000  C
  C156     1.0000 0.16870  0.64850  0.28787  Biso   1.000  C
  C157     1.0000 0.98820  0.63360  0.51715  Biso   1.000  C
  C158     1.0000 0.11900  0.59010  0.09934  Biso   1.000  C
  C159     1.0000 0.93100  0.66290  0.54790  Biso   1.000  C
  H195     1.0000 0.94200  0.71810  0.53080  Biso   1.000  H
  C160     1.0000 0.84100  0.60790  0.57580  Biso   1.000  C
  H196     1.0000 0.80740  0.63640  0.57300  Biso   1.000  H
  C161     1.0000 0.26720  0.80130  0.18850  Biso   1.000  C
  H197     1.0000 0.29690  0.82720  0.14730  Biso   1.000  H
  H198     1.0000 0.26160  0.84260  0.21500  Biso   1.000  H
  H199     1.0000 0.29850  0.78090  0.21380  Biso   1.000  H
  C162     1.0000 0.91640  0.65280  0.62560  Biso   1.000  C
  C163     1.0000 0.12500  0.75600  0.13650  Biso   1.000  C
  H200     1.0000 0.07100  0.70700  0.12660  Biso   1.000  H
  H201     1.0000 0.11690  0.79410  0.16510  Biso   1.000  H
  H202     1.0000 0.15170  0.78440  0.09510  Biso   1.000  H
  C164     1.0000 0.94960  0.60580  0.66770  Biso   1.000  C
  H203     1.0000 0.90670  0.56910  0.69930  Biso   1.000  H
  H204     1.0000 0.96380  0.57250  0.63850  Biso   1.000  H
  H205     1.0000 0.99930  0.64600  0.69200  Biso   1.000  H
  C165     1.0000 0.92130  0.72940  0.66040  Biso   1.000  C
  H206     1.0000 0.97210  0.75720  0.68720  Biso   1.000  H
  H207     1.0000 0.92230  0.76820  0.62690  Biso   1.000  H
  H208     1.0000 0.87260  0.71130  0.68910  Biso   1.000  H
  O67      1.0000 0.11262  0.62191  0.33341  Biso   1.000  O
  O68      1.0000 0.70801  0.48166  0.56133  Biso   1.000  O
  C166     1.0000 0.78630  0.51230  0.57265  Biso   1.000  C
  O69      1.0000 0.81223  0.46221  0.59051  Biso   1.000  O
  O70      1.0000 0.15234  0.57266  0.04948  Biso   1.000  O
  O71      1.0000 0.04140  0.56433  0.10527  Biso   1.000  O
  O72      1.0000 0.97808  0.56107  0.53129  Biso   1.000  O
  C167     1.0000 0.92950  0.66080  0.53850  Biso   1.000  C
  H209     1.0000 0.93540  0.70840  0.51110  Biso   1.000  H
  C168     1.0000 0.83780  0.60410  0.56330  Biso   1.000  C
  H210     1.0000 0.80200  0.62700  0.54790  Biso   1.000  H
  C169     1.0000 0.90650  0.66690  0.61060  Biso   1.000  C
  C170     1.0000 0.94360  0.63510  0.66380  Biso   1.000  C
  H211     1.0000 0.00190  0.65410  0.65320  Biso   1.000  H
  H212     1.0000 0.94020  0.65670  0.70730  Biso   1.000  H
  H213     1.0000 0.91220  0.57410  0.66480  Biso   1.000  H
  C171     1.0000 0.90080  0.74350  0.63220  Biso   1.000  C
  H214     1.0000 0.87640  0.75990  0.59630  Biso   1.000  H
  H215     1.0000 0.86570  0.72970  0.67180  Biso   1.000  H
  H216     1.0000 0.95660  0.78960  0.64230  Biso   1.000  H
  Tb10     1.0000 0.50819  0.41726  0.05565  Biso   1.000  Tb
  O73      1.0000 0.57463  0.32984  0.20240  Biso   1.000  O
  O74      1.0000 0.36507  0.31644  0.01999  Biso   1.000  O
  C172     1.0000 0.53110  0.35420  0.34601  Biso   1.000  C
  H217     1.0000 0.58500  0.35480  0.34090  Biso   1.000  H
  C173     1.0000 0.48400  0.34720  0.28056  Biso   1.000  C
  H218     1.0000 0.45000  0.37540  0.28290  Biso   1.000  H
  C174     1.0000 0.45210  0.27140  0.32787  Biso   1.000  C
  C175     1.0000 0.52020  0.35150  0.21213  Biso   1.000  C
  C176     1.0000 0.35460  0.36640  0.98285  Biso   1.000  C
  C177     1.0000 0.52890  0.40990  0.40066  Biso   1.000  C
  C178     1.0000 0.26810  0.33710  0.95210  Biso   1.000  C
  H219     1.0000 0.22390  0.28190  0.96920  Biso   1.000  H
  C179     1.0000 0.23310  0.39210  0.92420  Biso   1.000  C
  H220     1.0000 0.17100  0.36360  0.92700  Biso   1.000  H
  C180     1.0000 0.46590  0.19870  0.31150  Biso   1.000  C
  H221     1.0000 0.46970  0.17280  0.35270  Biso   1.000  H
  H222     1.0000 0.41900  0.15740  0.28500  Biso   1.000  H
  H223     1.0000 0.51760  0.21910  0.28620  Biso   1.000  H
  C181     1.0000 0.26360  0.34720  0.87440  Biso   1.000  C
  C182     1.0000 0.36900  0.24400  0.36350  Biso   1.000  C
  H224     1.0000 0.36400  0.29300  0.37340  Biso   1.000  H
  H225     1.0000 0.32280  0.20590  0.33490  Biso   1.000  H
  H226     1.0000 0.36730  0.21560  0.40490  Biso   1.000  H
  C183     1.0000 0.34380  0.39420  0.83230  Biso   1.000  C
  H227     1.0000 0.33760  0.43090  0.80070  Biso   1.000  H
  H228     1.0000 0.39130  0.42750  0.86150  Biso   1.000  H
  H229     1.0000 0.35330  0.35400  0.80800  Biso   1.000  H
  C184     1.0000 0.19190  0.27060  0.83960  Biso   1.000  C
  H230     1.0000 0.21490  0.24280  0.81280  Biso   1.000  H
  H231     1.0000 0.15410  0.23180  0.87310  Biso   1.000  H
  H232     1.0000 0.16130  0.28870  0.81090  Biso   1.000  H
  O75      1.0000 0.49071  0.37809  0.16659  Biso   1.000  O
  O76      1.0000 0.22635  0.51834  0.93867  Biso   1.000  O
  C185     1.0000 0.27400  0.48770  0.92735  Biso   1.000  C
  O77      1.0000 0.35002  0.53779  0.90949  Biso   1.000  O
  O78      1.0000 0.57968  0.42734  0.45052  Biso   1.000  O
  O79      1.0000 0.47707  0.43567  0.39473  Biso   1.000  O
  O80      1.0000 0.41701  0.43893  0.96871  Biso   1.000  O
  C186     1.0000 0.26870  0.33920  0.96150  Biso   1.000  C
  H233     1.0000 0.22700  0.29160  0.98890  Biso   1.000  H
  C187     1.0000 0.23370  0.39590  0.93670  Biso   1.000  C
  H234     1.0000 0.17500  0.37300  0.95210  Biso   1.000  H
  C188     1.0000 0.23960  0.33310  0.88940  Biso   1.000  C
  C189     1.0000 0.30850  0.36490  0.83620  Biso   1.000  C
  H235     1.0000 0.34780  0.34590  0.84680  Biso   1.000  H
  H236     1.0000 0.28350  0.34330  0.79270  Biso   1.000  H
  H237     1.0000 0.33810  0.42590  0.83520  Biso   1.000  H
  C190     1.0000 0.15730  0.25650  0.86780  Biso   1.000  C
  H238     1.0000 0.11650  0.24010  0.90370  Biso   1.000  H
  H239     1.0000 0.13600  0.27030  0.82820  Biso   1.000  H
  H240     1.0000 0.16700  0.21040  0.85770  Biso   1.000  H
  Tb11     1.0000 0.90907  0.49181  0.05565  Biso   1.000  Tb
  O81      1.0000 0.75521  0.42537  0.20240  Biso   1.000  O
  O82      1.0000 0.95137  0.63493  0.01999  Biso   1.000  O
  C191     1.0000 0.82310  0.46890  0.34601  Biso   1.000  C
  H241     1.0000 0.76980  0.41500  0.34090  Biso   1.000  H
  C192     1.0000 0.86320  0.51600  0.28056  Biso   1.000  C
  H242     1.0000 0.92540  0.55000  0.28290  Biso   1.000  H
  C193     1.0000 0.81930  0.54790  0.32787  Biso   1.000  C
  C194     1.0000 0.83130  0.47980  0.21213  Biso   1.000  C
  C195     1.0000 0.01180  0.64540  0.98285  Biso   1.000  C
  C196     1.0000 0.88100  0.47110  0.40066  Biso   1.000  C
  C197     1.0000 0.06900  0.73190  0.95210  Biso   1.000  C
  H243     1.0000 0.05800  0.77610  0.96920  Biso   1.000  H
  C198     1.0000 0.15900  0.76690  0.92420  Biso   1.000  C
  H244     1.0000 0.19260  0.82900  0.92700  Biso   1.000  H
  C199     1.0000 0.73280  0.53410  0.31150  Biso   1.000  C
  H245     1.0000 0.70310  0.53030  0.35270  Biso   1.000  H
  H246     1.0000 0.73840  0.58100  0.28500  Biso   1.000  H
  H247     1.0000 0.70150  0.48240  0.28620  Biso   1.000  H
  C200     1.0000 0.08360  0.73640  0.87440  Biso   1.000  C
  C201     1.0000 0.87500  0.63100  0.36350  Biso   1.000  C
  H248     1.0000 0.92900  0.63600  0.37340  Biso   1.000  H
  H249     1.0000 0.88310  0.67720  0.33490  Biso   1.000  H
  H250     1.0000 0.84830  0.63270  0.40490  Biso   1.000  H
  C202     1.0000 0.05040  0.65620  0.83230  Biso   1.000  C
  H251     1.0000 0.09330  0.66240  0.80070  Biso   1.000  H
  H252     1.0000 0.03620  0.60870  0.86150  Biso   1.000  H
  H253     1.0000 0.00070  0.64670  0.80800  Biso   1.000  H
  C203     1.0000 0.07870  0.80810  0.83960  Biso   1.000  C
  H254     1.0000 0.02790  0.78510  0.81280  Biso   1.000  H
  H255     1.0000 0.07770  0.84590  0.87310  Biso   1.000  H
  H256     1.0000 0.12740  0.83870  0.81090  Biso   1.000  H
  O83      1.0000 0.88738  0.50929  0.16659  Biso   1.000  O
  O84      1.0000 0.29199  0.77365  0.93867  Biso   1.000  O
  C204     1.0000 0.21370  0.72600  0.92735  Biso   1.000  C
  O85      1.0000 0.18777  0.64998  0.90949  Biso   1.000  O
  O86      1.0000 0.84766  0.42032  0.45052  Biso   1.000  O
  O87      1.0000 0.95860  0.52293  0.39473  Biso   1.000  O
  O88      1.0000 0.02192  0.58299  0.96871  Biso   1.000  O
  C205     1.0000 0.07050  0.73130  0.96150  Biso   1.000  C
  H257     1.0000 0.06460  0.77300  0.98890  Biso   1.000  H
  C206     1.0000 0.16220  0.76630  0.93670  Biso   1.000  C
  H258     1.0000 0.19800  0.82500  0.95210  Biso   1.000  H
  C207     1.0000 0.09350  0.76040  0.88940  Biso   1.000  C
  C208     1.0000 0.05640  0.69150  0.83620  Biso   1.000  C
  H259     1.0000 0.99810  0.65220  0.84680  Biso   1.000  H
  H260     1.0000 0.05980  0.71650  0.79270  Biso   1.000  H
  H261     1.0000 0.08780  0.66190  0.83520  Biso   1.000  H
  C209     1.0000 0.09920  0.84270  0.86780  Biso   1.000  C
  H262     1.0000 0.12360  0.88350  0.90370  Biso   1.000  H
  H263     1.0000 0.13430  0.86400  0.82820  Biso   1.000  H
  H264     1.0000 0.04340  0.83300  0.85770  Biso   1.000  H
  Tb12     1.0000 0.58274  0.09093  0.05565  Biso   1.000  Tb
  O89      1.0000 0.67016  0.24479  0.20240  Biso   1.000  O
  O90      1.0000 0.68356  0.04863  0.01999  Biso   1.000  O
  C210     1.0000 0.64580  0.17690  0.34601  Biso   1.000  C
  H265     1.0000 0.64520  0.23020  0.34090  Biso   1.000  H
  C211     1.0000 0.65280  0.13680  0.28056  Biso   1.000  C
  H266     1.0000 0.62460  0.07460  0.28290  Biso   1.000  H
  C212     1.0000 0.72860  0.18070  0.32787  Biso   1.000  C
  C213     1.0000 0.64850  0.16870  0.21213  Biso   1.000  C
  C214     1.0000 0.63360  0.98820  0.98285  Biso   1.000  C
  C215     1.0000 0.59010  0.11900  0.40066  Biso   1.000  C
  C216     1.0000 0.66290  0.93100  0.95210  Biso   1.000  C
  H267     1.0000 0.71810  0.94200  0.96920  Biso   1.000  H
  C217     1.0000 0.60790  0.84100  0.92420  Biso   1.000  C
  H268     1.0000 0.63640  0.80740  0.92700  Biso   1.000  H
  C218     1.0000 0.80130  0.26720  0.31150  Biso   1.000  C
  H269     1.0000 0.82720  0.29690  0.35270  Biso   1.000  H
  H270     1.0000 0.84260  0.26160  0.28500  Biso   1.000  H
  H271     1.0000 0.78090  0.29850  0.28620  Biso   1.000  H
  C219     1.0000 0.65280  0.91640  0.87440  Biso   1.000  C
  C220     1.0000 0.75600  0.12500  0.36350  Biso   1.000  C
  H272     1.0000 0.70700  0.07100  0.37340  Biso   1.000  H
  H273     1.0000 0.79410  0.11690  0.33490  Biso   1.000  H
  H274     1.0000 0.78440  0.15170  0.40490  Biso   1.000  H
  C221     1.0000 0.60580  0.94960  0.83230  Biso   1.000  C
  H275     1.0000 0.56910  0.90670  0.80070  Biso   1.000  H
  H276     1.0000 0.57250  0.96380  0.86150  Biso   1.000  H
  H277     1.0000 0.64600  0.99930  0.80800  Biso   1.000  H
  C222     1.0000 0.72940  0.92130  0.83960  Biso   1.000  C
  H278     1.0000 0.75720  0.97210  0.81280  Biso   1.000  H
  H279     1.0000 0.76820  0.92230  0.87310  Biso   1.000  H
  H280     1.0000 0.71130  0.87260  0.81090  Biso   1.000  H
  O91      1.0000 0.62191  0.11262  0.16659  Biso   1.000  O
  O92      1.0000 0.48166  0.70801  0.93867  Biso   1.000  O
  C223     1.0000 0.51230  0.78630  0.92735  Biso   1.000  C
  O93      1.0000 0.46221  0.81223  0.90949  Biso   1.000  O
  O94      1.0000 0.57266  0.15234  0.45052  Biso   1.000  O
  O95      1.0000 0.56433  0.04140  0.39473  Biso   1.000  O
  O96      1.0000 0.56107  0.97808  0.96871  Biso   1.000  O
  C224     1.0000 0.66080  0.92950  0.96150  Biso   1.000  C
  H281     1.0000 0.70840  0.93540  0.98890  Biso   1.000  H
  C225     1.0000 0.60410  0.83780  0.93670  Biso   1.000  C
  H282     1.0000 0.62700  0.80200  0.95210  Biso   1.000  H
  C226     1.0000 0.66690  0.90650  0.88940  Biso   1.000  C
  C227     1.0000 0.63510  0.94360  0.83620  Biso   1.000  C
  H283     1.0000 0.65410  0.00190  0.84680  Biso   1.000  H
  H284     1.0000 0.65670  0.94020  0.79270  Biso   1.000  H
  H285     1.0000 0.57410  0.91220  0.83520  Biso   1.000  H
  C228     1.0000 0.74350  0.90080  0.86780  Biso   1.000  C
  H286     1.0000 0.75990  0.87640  0.90370  Biso   1.000  H
  H287     1.0000 0.72970  0.86570  0.82820  Biso   1.000  H
  H288     1.0000 0.78960  0.95660  0.85770  Biso   1.000  H
  Tb13     1.0000 0.66667  0.33333  0.61768  Biso   1.000  Tb
  Tb14     1.0000 0.33333  0.66667  0.88232  Biso   1.000  Tb
  Tb15     1.0000 0.33333  0.66667  0.38232  Biso   1.000  Tb
  Tb16     1.0000 0.66667  0.33333  0.11768  Biso   1.000  Tb
