data_image0
_cell_length_a       18.2451
_cell_length_b       18.2451
_cell_length_c       19.8056
_cell_angle_alpha    90
_cell_angle_beta     90
_cell_angle_gamma    120

_symmetry_space_group_name_H-M    "P 1"
_symmetry_int_tables_number       1

loop_
  _symmetry_equiv_pos_as_xyz
  'x, y, z'

loop_
  _atom_site_label
  _atom_site_occupancy
  _atom_site_fract_x
  _atom_site_fract_y
  _atom_site_fract_z
  _atom_site_thermal_displace_type
  _atom_site_B_iso_or_equiv
  _atom_site_type_symbol
  Gd1      1.0000 0.58289  0.49211  0.55586  Biso   1.000  Gd
  O1       1.0000 0.66990  0.42563  0.70292  Biso   1.000  O
  O2       1.0000 0.68402  0.63569  0.51971  Biso   1.000  O
  C1       1.0000 0.64590  0.46900  0.84612  Biso   1.000  C
  H1       1.0000 0.64530  0.41530  0.84070  Biso   1.000  H
  C2       1.0000 0.65310  0.51640  0.78105  Biso   1.000  C
  H2       1.0000 0.62510  0.55030  0.78340  Biso   1.000  H
  C3       1.0000 0.72840  0.54760  0.82804  Biso   1.000  C
  C4       1.0000 0.64860  0.48000  0.71263  Biso   1.000  C
  C5       1.0000 0.63360  0.64580  0.48267  Biso   1.000  C
  C6       1.0000 0.59040  0.47060  0.90064  Biso   1.000  C
  C7       1.0000 0.66290  0.73190  0.45210  Biso   1.000  C
  H3       1.0000 0.71780  0.77580  0.46930  Biso   1.000  H
  C8       1.0000 0.60800  0.76740  0.42450  Biso   1.000  C
  H4       1.0000 0.63620  0.82920  0.42770  Biso   1.000  H
  C9       1.0000 0.80100  0.53360  0.81160  Biso   1.000  C
  H5       1.0000 0.82720  0.53050  0.85270  Biso   1.000  H
  H6       1.0000 0.84180  0.57980  0.78460  Biso   1.000  H
  H7       1.0000 0.78030  0.48170  0.78690  Biso   1.000  H
  C10      1.0000 0.65310  0.73740  0.37540  Biso   1.000  C
  C11      1.0000 0.75610  0.63060  0.86400  Biso   1.000  C
  H8       1.0000 0.70760  0.63640  0.87310  Biso   1.000  H
  H9       1.0000 0.79510  0.67660  0.83600  Biso   1.000  H
  H10      1.0000 0.78320  0.63140  0.90580  Biso   1.000  H
  C12      1.0000 0.60700  0.65770  0.33250  Biso   1.000  C
  H11      1.0000 0.57980  0.66810  0.29520  Biso   1.000  H
  H12      1.0000 0.56520  0.61230  0.35950  Biso   1.000  H
  H13      1.0000 0.64690  0.64240  0.31570  Biso   1.000  H
  C13      1.0000 0.72910  0.80940  0.34060  Biso   1.000  C
  H14      1.0000 0.75930  0.78720  0.31620  Biso   1.000  H
  H15      1.0000 0.76580  0.84920  0.37380  Biso   1.000  H
  H16      1.0000 0.71040  0.83720  0.30980  Biso   1.000  H
  O3       1.0000 0.62190  0.50951  0.66730  Biso   1.000  O
  O4       1.0000 0.48177  0.77333  0.43828  Biso   1.000  O
  C14      1.0000 0.51260  0.72610  0.42688  Biso   1.000  C
  O5       1.0000 0.46269  0.64995  0.40903  Biso   1.000  O
  O6       1.0000 0.57309  0.41989  0.95037  Biso   1.000  O
  O7       1.0000 0.56461  0.52266  0.89495  Biso   1.000  O
  O8       1.0000 0.56148  0.58321  0.46842  Biso   1.000  O
  C15      1.0000 0.66060  0.73180  0.46160  Biso   1.000  C
  H17      1.0000 0.70790  0.77340  0.48900  Biso   1.000  H
  C16      1.0000 0.60430  0.76690  0.43620  Biso   1.000  C
  H18      1.0000 0.62700  0.82540  0.45150  Biso   1.000  H
  C17      1.0000 0.66700  0.76080  0.38920  Biso   1.000  C
  C18      1.0000 0.63540  0.69260  0.33640  Biso   1.000  C
  H19      1.0000 0.65240  0.65220  0.34790  Biso   1.000  H
  H20      1.0000 0.65870  0.71730  0.29330  Biso   1.000  H
  H21      1.0000 0.57470  0.66470  0.33430  Biso   1.000  H
  C19      1.0000 0.74290  0.84280  0.36840  Biso   1.000  C
  H22      1.0000 0.75900  0.88290  0.40460  Biso   1.000  H
  H23      1.0000 0.72940  0.86450  0.32920  Biso   1.000  H
  H24      1.0000 0.78900  0.83330  0.35820  Biso   1.000  H
  Gd2      1.0000 0.50789  0.09078  0.55586  Biso   1.000  Gd
  O9       1.0000 0.57437  0.24427  0.70292  Biso   1.000  O
  O10      1.0000 0.36431  0.04833  0.51971  Biso   1.000  O
  C20      1.0000 0.53100  0.17690  0.84612  Biso   1.000  C
  H25      1.0000 0.58470  0.23000  0.84070  Biso   1.000  H
  C21      1.0000 0.48360  0.13670  0.78105  Biso   1.000  C
  H26      1.0000 0.44970  0.07480  0.78340  Biso   1.000  H
  C22      1.0000 0.45240  0.18080  0.82804  Biso   1.000  C
  C23      1.0000 0.52000  0.16860  0.71263  Biso   1.000  C
  C24      1.0000 0.35420  0.98780  0.48267  Biso   1.000  C
  C25      1.0000 0.52940  0.11980  0.90064  Biso   1.000  C
  C26      1.0000 0.26810  0.93100  0.45210  Biso   1.000  C
  H27      1.0000 0.22420  0.94200  0.46930  Biso   1.000  H
  C27      1.0000 0.23260  0.84060  0.42450  Biso   1.000  C
  H28      1.0000 0.17080  0.80700  0.42770  Biso   1.000  H
  C28      1.0000 0.46640  0.26740  0.81160  Biso   1.000  C
  H29      1.0000 0.46950  0.29670  0.85270  Biso   1.000  H
  H30      1.0000 0.42020  0.26200  0.78460  Biso   1.000  H
  H31      1.0000 0.51830  0.29860  0.78690  Biso   1.000  H
  C29      1.0000 0.26260  0.91570  0.37540  Biso   1.000  C
  C30      1.0000 0.36940  0.12550  0.86400  Biso   1.000  C
  H32      1.0000 0.36360  0.07120  0.87310  Biso   1.000  H
  H33      1.0000 0.32340  0.11850  0.83600  Biso   1.000  H
  H34      1.0000 0.36860  0.15180  0.90580  Biso   1.000  H
  C31      1.0000 0.34230  0.94930  0.33250  Biso   1.000  C
  H35      1.0000 0.33190  0.91170  0.29520  Biso   1.000  H
  H36      1.0000 0.38770  0.95290  0.35950  Biso   1.000  H
  H37      1.0000 0.35760  0.00450  0.31570  Biso   1.000  H
  C32      1.0000 0.19060  0.91970  0.34060  Biso   1.000  C
  H38      1.0000 0.21280  0.97210  0.31620  Biso   1.000  H
  H39      1.0000 0.15080  0.91660  0.37380  Biso   1.000  H
  H40      1.0000 0.16280  0.87320  0.30980  Biso   1.000  H
  O11      1.0000 0.49049  0.11239  0.66730  Biso   1.000  O
  O12      1.0000 0.22667  0.70844  0.43828  Biso   1.000  O
  C33      1.0000 0.27390  0.78650  0.42688  Biso   1.000  C
  O13      1.0000 0.35005  0.81274  0.40903  Biso   1.000  O
  O14      1.0000 0.58011  0.15320  0.95037  Biso   1.000  O
  O15      1.0000 0.47734  0.04195  0.89495  Biso   1.000  O
  O16      1.0000 0.41679  0.97827  0.46842  Biso   1.000  O
  C34      1.0000 0.26820  0.92880  0.46160  Biso   1.000  C
  H41      1.0000 0.22660  0.93450  0.48900  Biso   1.000  H
  C35      1.0000 0.23310  0.83740  0.43620  Biso   1.000  C
  H42      1.0000 0.17460  0.80160  0.45150  Biso   1.000  H
  C36      1.0000 0.23920  0.90620  0.38920  Biso   1.000  C
  C37      1.0000 0.30740  0.94280  0.33640  Biso   1.000  C
  H43      1.0000 0.34780  0.00020  0.34790  Biso   1.000  H
  H44      1.0000 0.28270  0.94140  0.29330  Biso   1.000  H
  H45      1.0000 0.33530  0.91000  0.33430  Biso   1.000  H
  C38      1.0000 0.15720  0.90010  0.36840  Biso   1.000  C
  H46      1.0000 0.11710  0.87610  0.40460  Biso   1.000  H
  H47      1.0000 0.13550  0.86490  0.32920  Biso   1.000  H
  H48      1.0000 0.16670  0.95570  0.35820  Biso   1.000  H
  Gd3      1.0000 0.90922  0.41711  0.55586  Biso   1.000  Gd
  O17      1.0000 0.75573  0.33010  0.70292  Biso   1.000  O
  O18      1.0000 0.95167  0.31598  0.51971  Biso   1.000  O
  C39      1.0000 0.82310  0.35410  0.84612  Biso   1.000  C
  H49      1.0000 0.77000  0.35470  0.84070  Biso   1.000  H
  C40      1.0000 0.86330  0.34690  0.78105  Biso   1.000  C
  H50      1.0000 0.92520  0.37490  0.78340  Biso   1.000  H
  C41      1.0000 0.81920  0.27160  0.82804  Biso   1.000  C
  C42      1.0000 0.83140  0.35140  0.71263  Biso   1.000  C
  C43      1.0000 0.01220  0.36640  0.48267  Biso   1.000  C
  C44      1.0000 0.88020  0.40960  0.90064  Biso   1.000  C
  C45      1.0000 0.06900  0.33710  0.45210  Biso   1.000  C
  H51      1.0000 0.05800  0.28220  0.46930  Biso   1.000  H
  C46      1.0000 0.15940  0.39200  0.42450  Biso   1.000  C
  H52      1.0000 0.19300  0.36380  0.42770  Biso   1.000  H
  C47      1.0000 0.73260  0.19900  0.81160  Biso   1.000  C
  H53      1.0000 0.70330  0.17280  0.85270  Biso   1.000  H
  H54      1.0000 0.73800  0.15820  0.78460  Biso   1.000  H
  H55      1.0000 0.70140  0.21970  0.78690  Biso   1.000  H
  C48      1.0000 0.08430  0.34690  0.37540  Biso   1.000  C
  C49      1.0000 0.87450  0.24390  0.86400  Biso   1.000  C
  H56      1.0000 0.92880  0.29240  0.87310  Biso   1.000  H
  H57      1.0000 0.88150  0.20490  0.83600  Biso   1.000  H
  H58      1.0000 0.84820  0.21680  0.90580  Biso   1.000  H
  C50      1.0000 0.05070  0.39300  0.33250  Biso   1.000  C
  H59      1.0000 0.08830  0.42020  0.29520  Biso   1.000  H
  H60      1.0000 0.04710  0.43480  0.35950  Biso   1.000  H
  H61      1.0000 0.99550  0.35310  0.31570  Biso   1.000  H
  C51      1.0000 0.08030  0.27090  0.34060  Biso   1.000  C
  H62      1.0000 0.02790  0.24070  0.31620  Biso   1.000  H
  H63      1.0000 0.08340  0.23420  0.37380  Biso   1.000  H
  H64      1.0000 0.12680  0.28960  0.30980  Biso   1.000  H
  O19      1.0000 0.88761  0.37810  0.66730  Biso   1.000  O
  O20      1.0000 0.29156  0.51823  0.43828  Biso   1.000  O
  C52      1.0000 0.21350  0.48740  0.42688  Biso   1.000  C
  O21      1.0000 0.18726  0.53731  0.40903  Biso   1.000  O
  O22      1.0000 0.84680  0.42691  0.95037  Biso   1.000  O
  O23      1.0000 0.95805  0.43539  0.89495  Biso   1.000  O
  O24      1.0000 0.02173  0.43852  0.46842  Biso   1.000  O
  C53      1.0000 0.07120  0.33940  0.46160  Biso   1.000  C
  H65      1.0000 0.06550  0.29210  0.48900  Biso   1.000  H
  C54      1.0000 0.16260  0.39570  0.43620  Biso   1.000  C
  H66      1.0000 0.19840  0.37300  0.45150  Biso   1.000  H
  C55      1.0000 0.09380  0.33300  0.38920  Biso   1.000  C
  C56      1.0000 0.05720  0.36460  0.33640  Biso   1.000  C
  H67      1.0000 0.99980  0.34760  0.34790  Biso   1.000  H
  H68      1.0000 0.05860  0.34130  0.29330  Biso   1.000  H
  H69      1.0000 0.09000  0.42530  0.33430  Biso   1.000  H
  C57      1.0000 0.09990  0.25710  0.36840  Biso   1.000  C
  H70      1.0000 0.12390  0.24100  0.40460  Biso   1.000  H
  H71      1.0000 0.13510  0.27060  0.32920  Biso   1.000  H
  H72      1.0000 0.04430  0.21100  0.35820  Biso   1.000  H
  Gd4      1.0000 0.49211  0.58289  0.94414  Biso   1.000  Gd
  O25      1.0000 0.42563  0.66990  0.79708  Biso   1.000  O
  O26      1.0000 0.63569  0.68402  0.98029  Biso   1.000  O
  C58      1.0000 0.46900  0.64590  0.65388  Biso   1.000  C
  H73      1.0000 0.41530  0.64530  0.65930  Biso   1.000  H
  C59      1.0000 0.51640  0.65310  0.71895  Biso   1.000  C
  H74      1.0000 0.55030  0.62510  0.71660  Biso   1.000  H
  C60      1.0000 0.54760  0.72840  0.67196  Biso   1.000  C
  C61      1.0000 0.48000  0.64860  0.78737  Biso   1.000  C
  C62      1.0000 0.64580  0.63360  0.01733  Biso   1.000  C
  C63      1.0000 0.47060  0.59040  0.59936  Biso   1.000  C
  C64      1.0000 0.73190  0.66290  0.04790  Biso   1.000  C
  H75      1.0000 0.77580  0.71780  0.03070  Biso   1.000  H
  C65      1.0000 0.76740  0.60800  0.07550  Biso   1.000  C
  H76      1.0000 0.82920  0.63620  0.07230  Biso   1.000  H
  C66      1.0000 0.53360  0.80100  0.68840  Biso   1.000  C
  H77      1.0000 0.53050  0.82720  0.64730  Biso   1.000  H
  H78      1.0000 0.57980  0.84180  0.71540  Biso   1.000  H
  H79      1.0000 0.48170  0.78030  0.71310  Biso   1.000  H
  C67      1.0000 0.73740  0.65310  0.12460  Biso   1.000  C
  C68      1.0000 0.63060  0.75610  0.63600  Biso   1.000  C
  H80      1.0000 0.63640  0.70760  0.62690  Biso   1.000  H
  H81      1.0000 0.67660  0.79510  0.66400  Biso   1.000  H
  H82      1.0000 0.63140  0.78320  0.59420  Biso   1.000  H
  C69      1.0000 0.65770  0.60700  0.16750  Biso   1.000  C
  H83      1.0000 0.66810  0.57980  0.20480  Biso   1.000  H
  H84      1.0000 0.61230  0.56520  0.14050  Biso   1.000  H
  H85      1.0000 0.64240  0.64690  0.18430  Biso   1.000  H
  C70      1.0000 0.80940  0.72910  0.15940  Biso   1.000  C
  H86      1.0000 0.78720  0.75930  0.18380  Biso   1.000  H
  H87      1.0000 0.84920  0.76580  0.12620  Biso   1.000  H
  H88      1.0000 0.83720  0.71040  0.19020  Biso   1.000  H
  O27      1.0000 0.50951  0.62190  0.83270  Biso   1.000  O
  O28      1.0000 0.77333  0.48177  0.06172  Biso   1.000  O
  C71      1.0000 0.72610  0.51260  0.07312  Biso   1.000  C
  O29      1.0000 0.64995  0.46269  0.09097  Biso   1.000  O
  O30      1.0000 0.41989  0.57309  0.54963  Biso   1.000  O
  O31      1.0000 0.52266  0.56461  0.60505  Biso   1.000  O
  O32      1.0000 0.58321  0.56148  0.03158  Biso   1.000  O
  C72      1.0000 0.73180  0.66060  0.03840  Biso   1.000  C
  H89      1.0000 0.77340  0.70790  0.01100  Biso   1.000  H
  C73      1.0000 0.76690  0.60430  0.06380  Biso   1.000  C
  H90      1.0000 0.82540  0.62700  0.04850  Biso   1.000  H
  C74      1.0000 0.76080  0.66700  0.11080  Biso   1.000  C
  C75      1.0000 0.69260  0.63540  0.16360  Biso   1.000  C
  H91      1.0000 0.65220  0.65240  0.15210  Biso   1.000  H
  H92      1.0000 0.71730  0.65870  0.20670  Biso   1.000  H
  H93      1.0000 0.66470  0.57470  0.16570  Biso   1.000  H
  C76      1.0000 0.84280  0.74290  0.13160  Biso   1.000  C
  H94      1.0000 0.88290  0.75900  0.09540  Biso   1.000  H
  H95      1.0000 0.86450  0.72940  0.17080  Biso   1.000  H
  H96      1.0000 0.83330  0.78900  0.14180  Biso   1.000  H
  Gd5      1.0000 0.09078  0.50789  0.94414  Biso   1.000  Gd
  O33      1.0000 0.24427  0.57437  0.79708  Biso   1.000  O
  O34      1.0000 0.04833  0.36431  0.98029  Biso   1.000  O
  C77      1.0000 0.17690  0.53100  0.65388  Biso   1.000  C
  H97      1.0000 0.23000  0.58470  0.65930  Biso   1.000  H
  C78      1.0000 0.13670  0.48360  0.71895  Biso   1.000  C
  H98      1.0000 0.07480  0.44970  0.71660  Biso   1.000  H
  C79      1.0000 0.18080  0.45240  0.67196  Biso   1.000  C
  C80      1.0000 0.16860  0.52000  0.78737  Biso   1.000  C
  C81      1.0000 0.98780  0.35420  0.01733  Biso   1.000  C
  C82      1.0000 0.11980  0.52940  0.59936  Biso   1.000  C
  C83      1.0000 0.93100  0.26810  0.04790  Biso   1.000  C
  H99      1.0000 0.94200  0.22420  0.03070  Biso   1.000  H
  C84      1.0000 0.84060  0.23260  0.07550  Biso   1.000  C
  H100     1.0000 0.80700  0.17080  0.07230  Biso   1.000  H
  C85      1.0000 0.26740  0.46640  0.68840  Biso   1.000  C
  H101     1.0000 0.29670  0.46950  0.64730  Biso   1.000  H
  H102     1.0000 0.26200  0.42020  0.71540  Biso   1.000  H
  H103     1.0000 0.29860  0.51830  0.71310  Biso   1.000  H
  C86      1.0000 0.91570  0.26260  0.12460  Biso   1.000  C
  C87      1.0000 0.12550  0.36940  0.63600  Biso   1.000  C
  H104     1.0000 0.07120  0.36360  0.62690  Biso   1.000  H
  H105     1.0000 0.11850  0.32340  0.66400  Biso   1.000  H
  H106     1.0000 0.15180  0.36860  0.59420  Biso   1.000  H
  C88      1.0000 0.94930  0.34230  0.16750  Biso   1.000  C
  H107     1.0000 0.91170  0.33190  0.20480  Biso   1.000  H
  H108     1.0000 0.95290  0.38770  0.14050  Biso   1.000  H
  H109     1.0000 0.00450  0.35760  0.18430  Biso   1.000  H
  C89      1.0000 0.91970  0.19060  0.15940  Biso   1.000  C
  H110     1.0000 0.97210  0.21280  0.18380  Biso   1.000  H
  H111     1.0000 0.91660  0.15080  0.12620  Biso   1.000  H
  H112     1.0000 0.87320  0.16280  0.19020  Biso   1.000  H
  O35      1.0000 0.11239  0.49049  0.83270  Biso   1.000  O
  O36      1.0000 0.70844  0.22667  0.06172  Biso   1.000  O
  C90      1.0000 0.78650  0.27390  0.07312  Biso   1.000  C
  O37      1.0000 0.81274  0.35005  0.09097  Biso   1.000  O
  O38      1.0000 0.15320  0.58011  0.54963  Biso   1.000  O
  O39      1.0000 0.04195  0.47734  0.60505  Biso   1.000  O
  O40      1.0000 0.97827  0.41679  0.03158  Biso   1.000  O
  C91      1.0000 0.92880  0.26820  0.03840  Biso   1.000  C
  H113     1.0000 0.93450  0.22660  0.01100  Biso   1.000  H
  C92      1.0000 0.83740  0.23310  0.06380  Biso   1.000  C
  H114     1.0000 0.80160  0.17460  0.04850  Biso   1.000  H
  C93      1.0000 0.90620  0.23920  0.11080  Biso   1.000  C
  C94      1.0000 0.94280  0.30740  0.16360  Biso   1.000  C
  H115     1.0000 0.00020  0.34780  0.15210  Biso   1.000  H
  H116     1.0000 0.94140  0.28270  0.20670  Biso   1.000  H
  H117     1.0000 0.91000  0.33530  0.16570  Biso   1.000  H
  C95      1.0000 0.90010  0.15720  0.13160  Biso   1.000  C
  H118     1.0000 0.87610  0.11710  0.09540  Biso   1.000  H
  H119     1.0000 0.86490  0.13550  0.17080  Biso   1.000  H
  H120     1.0000 0.95570  0.16670  0.14180  Biso   1.000  H
  Gd6      1.0000 0.41711  0.90922  0.94414  Biso   1.000  Gd
  O41      1.0000 0.33010  0.75573  0.79708  Biso   1.000  O
  O42      1.0000 0.31598  0.95167  0.98029  Biso   1.000  O
  C96      1.0000 0.35410  0.82310  0.65388  Biso   1.000  C
  H121     1.0000 0.35470  0.77000  0.65930  Biso   1.000  H
  C97      1.0000 0.34690  0.86330  0.71895  Biso   1.000  C
  H122     1.0000 0.37490  0.92520  0.71660  Biso   1.000  H
  C98      1.0000 0.27160  0.81920  0.67196  Biso   1.000  C
  C99      1.0000 0.35140  0.83140  0.78737  Biso   1.000  C
  C100     1.0000 0.36640  0.01220  0.01733  Biso   1.000  C
  C101     1.0000 0.40960  0.88020  0.59936  Biso   1.000  C
  C102     1.0000 0.33710  0.06900  0.04790  Biso   1.000  C
  H123     1.0000 0.28220  0.05800  0.03070  Biso   1.000  H
  C103     1.0000 0.39200  0.15940  0.07550  Biso   1.000  C
  H124     1.0000 0.36380  0.19300  0.07230  Biso   1.000  H
  C104     1.0000 0.19900  0.73260  0.68840  Biso   1.000  C
  H125     1.0000 0.17280  0.70330  0.64730  Biso   1.000  H
  H126     1.0000 0.15820  0.73800  0.71540  Biso   1.000  H
  H127     1.0000 0.21970  0.70140  0.71310  Biso   1.000  H
  C105     1.0000 0.34690  0.08430  0.12460  Biso   1.000  C
  C106     1.0000 0.24390  0.87450  0.63600  Biso   1.000  C
  H128     1.0000 0.29240  0.92880  0.62690  Biso   1.000  H
  H129     1.0000 0.20490  0.88150  0.66400  Biso   1.000  H
  H130     1.0000 0.21680  0.84820  0.59420  Biso   1.000  H
  C107     1.0000 0.39300  0.05070  0.16750  Biso   1.000  C
  H131     1.0000 0.42020  0.08830  0.20480  Biso   1.000  H
  H132     1.0000 0.43480  0.04710  0.14050  Biso   1.000  H
  H133     1.0000 0.35310  0.99550  0.18430  Biso   1.000  H
  C108     1.0000 0.27090  0.08030  0.15940  Biso   1.000  C
  H134     1.0000 0.24070  0.02790  0.18380  Biso   1.000  H
  H135     1.0000 0.23420  0.08340  0.12620  Biso   1.000  H
  H136     1.0000 0.28960  0.12680  0.19020  Biso   1.000  H
  O43      1.0000 0.37810  0.88761  0.83270  Biso   1.000  O
  O44      1.0000 0.51823  0.29156  0.06172  Biso   1.000  O
  C109     1.0000 0.48740  0.21350  0.07312  Biso   1.000  C
  O45      1.0000 0.53731  0.18726  0.09097  Biso   1.000  O
  O46      1.0000 0.42691  0.84680  0.54963  Biso   1.000  O
  O47      1.0000 0.43539  0.95805  0.60505  Biso   1.000  O
  O48      1.0000 0.43852  0.02173  0.03158  Biso   1.000  O
  C110     1.0000 0.33940  0.07120  0.03840  Biso   1.000  C
  H137     1.0000 0.29210  0.06550  0.01100  Biso   1.000  H
  C111     1.0000 0.39570  0.16260  0.06380  Biso   1.000  C
  H138     1.0000 0.37300  0.19840  0.04850  Biso   1.000  H
  C112     1.0000 0.33300  0.09380  0.11080  Biso   1.000  C
  C113     1.0000 0.36460  0.05720  0.16360  Biso   1.000  C
  H139     1.0000 0.34760  0.99980  0.15210  Biso   1.000  H
  H140     1.0000 0.34130  0.05860  0.20670  Biso   1.000  H
  H141     1.0000 0.42530  0.09000  0.16570  Biso   1.000  H
  C114     1.0000 0.25710  0.09990  0.13160  Biso   1.000  C
  H142     1.0000 0.24100  0.12390  0.09540  Biso   1.000  H
  H143     1.0000 0.27060  0.13510  0.17080  Biso   1.000  H
  H144     1.0000 0.21100  0.04430  0.14180  Biso   1.000  H
  Gd7      1.0000 0.41711  0.50789  0.44414  Biso   1.000  Gd
  O49      1.0000 0.33010  0.57437  0.29708  Biso   1.000  O
  O50      1.0000 0.31598  0.36431  0.48029  Biso   1.000  O
  C115     1.0000 0.35410  0.53100  0.15388  Biso   1.000  C
  H145     1.0000 0.35470  0.58470  0.15930  Biso   1.000  H
  C116     1.0000 0.34690  0.48360  0.21895  Biso   1.000  C
  H146     1.0000 0.37490  0.44970  0.21660  Biso   1.000  H
  C117     1.0000 0.27160  0.45240  0.17196  Biso   1.000  C
  C118     1.0000 0.35140  0.52000  0.28737  Biso   1.000  C
  C119     1.0000 0.36640  0.35420  0.51733  Biso   1.000  C
  C120     1.0000 0.40960  0.52940  0.09936  Biso   1.000  C
  C121     1.0000 0.33710  0.26810  0.54790  Biso   1.000  C
  H147     1.0000 0.28220  0.22420  0.53070  Biso   1.000  H
  C122     1.0000 0.39200  0.23260  0.57550  Biso   1.000  C
  H148     1.0000 0.36380  0.17080  0.57230  Biso   1.000  H
  C123     1.0000 0.19900  0.46640  0.18840  Biso   1.000  C
  H149     1.0000 0.17280  0.46950  0.14730  Biso   1.000  H
  H150     1.0000 0.15820  0.42020  0.21540  Biso   1.000  H
  H151     1.0000 0.21970  0.51830  0.21310  Biso   1.000  H
  C124     1.0000 0.34690  0.26260  0.62460  Biso   1.000  C
  C125     1.0000 0.24390  0.36940  0.13600  Biso   1.000  C
  H152     1.0000 0.29240  0.36360  0.12690  Biso   1.000  H
  H153     1.0000 0.20490  0.32340  0.16400  Biso   1.000  H
  H154     1.0000 0.21680  0.36860  0.09420  Biso   1.000  H
  C126     1.0000 0.39300  0.34230  0.66750  Biso   1.000  C
  H155     1.0000 0.42020  0.33190  0.70480  Biso   1.000  H
  H156     1.0000 0.43480  0.38770  0.64050  Biso   1.000  H
  H157     1.0000 0.35310  0.35760  0.68430  Biso   1.000  H
  C127     1.0000 0.27090  0.19060  0.65940  Biso   1.000  C
  H158     1.0000 0.24070  0.21280  0.68380  Biso   1.000  H
  H159     1.0000 0.23420  0.15080  0.62620  Biso   1.000  H
  H160     1.0000 0.28960  0.16280  0.69020  Biso   1.000  H
  O51      1.0000 0.37810  0.49049  0.33270  Biso   1.000  O
  O52      1.0000 0.51823  0.22667  0.56172  Biso   1.000  O
  C128     1.0000 0.48740  0.27390  0.57312  Biso   1.000  C
  O53      1.0000 0.53731  0.35005  0.59097  Biso   1.000  O
  O54      1.0000 0.42691  0.58011  0.04963  Biso   1.000  O
  O55      1.0000 0.43539  0.47734  0.10505  Biso   1.000  O
  O56      1.0000 0.43852  0.41679  0.53158  Biso   1.000  O
  C129     1.0000 0.33940  0.26820  0.53840  Biso   1.000  C
  H161     1.0000 0.29210  0.22660  0.51100  Biso   1.000  H
  C130     1.0000 0.39570  0.23310  0.56380  Biso   1.000  C
  H162     1.0000 0.37300  0.17460  0.54850  Biso   1.000  H
  C131     1.0000 0.33300  0.23920  0.61080  Biso   1.000  C
  C132     1.0000 0.36460  0.30740  0.66360  Biso   1.000  C
  H163     1.0000 0.34760  0.34780  0.65210  Biso   1.000  H
  H164     1.0000 0.34130  0.28270  0.70670  Biso   1.000  H
  H165     1.0000 0.42530  0.33530  0.66570  Biso   1.000  H
  C133     1.0000 0.25710  0.15720  0.63160  Biso   1.000  C
  H166     1.0000 0.24100  0.11710  0.59540  Biso   1.000  H
  H167     1.0000 0.27060  0.13550  0.67080  Biso   1.000  H
  H168     1.0000 0.21100  0.16670  0.64180  Biso   1.000  H
  Gd8      1.0000 0.49211  0.90922  0.44414  Biso   1.000  Gd
  O57      1.0000 0.42563  0.75573  0.29708  Biso   1.000  O
  O58      1.0000 0.63569  0.95167  0.48029  Biso   1.000  O
  C134     1.0000 0.46900  0.82310  0.15388  Biso   1.000  C
  H169     1.0000 0.41530  0.77000  0.15930  Biso   1.000  H
  C135     1.0000 0.51640  0.86330  0.21895  Biso   1.000  C
  H170     1.0000 0.55030  0.92520  0.21660  Biso   1.000  H
  C136     1.0000 0.54760  0.81920  0.17196  Biso   1.000  C
  C137     1.0000 0.48000  0.83140  0.28737  Biso   1.000  C
  C138     1.0000 0.64580  0.01220  0.51733  Biso   1.000  C
  C139     1.0000 0.47060  0.88020  0.09936  Biso   1.000  C
  C140     1.0000 0.73190  0.06900  0.54790  Biso   1.000  C
  H171     1.0000 0.77580  0.05800  0.53070  Biso   1.000  H
  C141     1.0000 0.76740  0.15940  0.57550  Biso   1.000  C
  H172     1.0000 0.82920  0.19300  0.57230  Biso   1.000  H
  C142     1.0000 0.53360  0.73260  0.18840  Biso   1.000  C
  H173     1.0000 0.53050  0.70330  0.14730  Biso   1.000  H
  H174     1.0000 0.57980  0.73800  0.21540  Biso   1.000  H
  H175     1.0000 0.48170  0.70140  0.21310  Biso   1.000  H
  C143     1.0000 0.73740  0.08430  0.62460  Biso   1.000  C
  C144     1.0000 0.63060  0.87450  0.13600  Biso   1.000  C
  H176     1.0000 0.63640  0.92880  0.12690  Biso   1.000  H
  H177     1.0000 0.67660  0.88150  0.16400  Biso   1.000  H
  H178     1.0000 0.63140  0.84820  0.09420  Biso   1.000  H
  C145     1.0000 0.65770  0.05070  0.66750  Biso   1.000  C
  H179     1.0000 0.66810  0.08830  0.70480  Biso   1.000  H
  H180     1.0000 0.61230  0.04710  0.64050  Biso   1.000  H
  H181     1.0000 0.64240  0.99550  0.68430  Biso   1.000  H
  C146     1.0000 0.80940  0.08030  0.65940  Biso   1.000  C
  H182     1.0000 0.78720  0.02790  0.68380  Biso   1.000  H
  H183     1.0000 0.84920  0.08340  0.62620  Biso   1.000  H
  H184     1.0000 0.83720  0.12680  0.69020  Biso   1.000  H
  O59      1.0000 0.50951  0.88761  0.33270  Biso   1.000  O
  O60      1.0000 0.77333  0.29156  0.56172  Biso   1.000  O
  C147     1.0000 0.72610  0.21350  0.57312  Biso   1.000  C
  O61      1.0000 0.64995  0.18726  0.59097  Biso   1.000  O
  O62      1.0000 0.41989  0.84680  0.04963  Biso   1.000  O
  O63      1.0000 0.52266  0.95805  0.10505  Biso   1.000  O
  O64      1.0000 0.58321  0.02173  0.53158  Biso   1.000  O
  C148     1.0000 0.73180  0.07120  0.53840  Biso   1.000  C
  H185     1.0000 0.77340  0.06550  0.51100  Biso   1.000  H
  C149     1.0000 0.76690  0.16260  0.56380  Biso   1.000  C
  H186     1.0000 0.82540  0.19840  0.54850  Biso   1.000  H
  C150     1.0000 0.76080  0.09380  0.61080  Biso   1.000  C
  C151     1.0000 0.69260  0.05720  0.66360  Biso   1.000  C
  H187     1.0000 0.65220  0.99980  0.65210  Biso   1.000  H
  H188     1.0000 0.71730  0.05860  0.70670  Biso   1.000  H
  H189     1.0000 0.66470  0.09000  0.66570  Biso   1.000  H
  C152     1.0000 0.84280  0.09990  0.63160  Biso   1.000  C
  H190     1.0000 0.88290  0.12390  0.59540  Biso   1.000  H
  H191     1.0000 0.86450  0.13510  0.67080  Biso   1.000  H
  H192     1.0000 0.83330  0.04430  0.64180  Biso   1.000  H
  Gd9      1.0000 0.09078  0.58289  0.44414  Biso   1.000  Gd
  O65      1.0000 0.24427  0.66990  0.29708  Biso   1.000  O
  O66      1.0000 0.04833  0.68402  0.48029  Biso   1.000  O
  C153     1.0000 0.17690  0.64590  0.15388  Biso   1.000  C
  H193     1.0000 0.23000  0.64530  0.15930  Biso   1.000  H
  C154     1.0000 0.13670  0.65310  0.21895  Biso   1.000  C
  H194     1.0000 0.07480  0.62510  0.21660  Biso   1.000  H
  C155     1.0000 0.18080  0.72840  0.17196  Biso   1.000  C
  C156     1.0000 0.16860  0.64860  0.28737  Biso   1.000  C
  C157     1.0000 0.98780  0.63360  0.51733  Biso   1.000  C
  C158     1.0000 0.11980  0.59040  0.09936  Biso   1.000  C
  C159     1.0000 0.93100  0.66290  0.54790  Biso   1.000  C
  H195     1.0000 0.94200  0.71780  0.53070  Biso   1.000  H
  C160     1.0000 0.84060  0.60800  0.57550  Biso   1.000  C
  H196     1.0000 0.80700  0.63620  0.57230  Biso   1.000  H
  C161     1.0000 0.26740  0.80100  0.18840  Biso   1.000  C
  H197     1.0000 0.29670  0.82720  0.14730  Biso   1.000  H
  H198     1.0000 0.26200  0.84180  0.21540  Biso   1.000  H
  H199     1.0000 0.29860  0.78030  0.21310  Biso   1.000  H
  C162     1.0000 0.91570  0.65310  0.62460  Biso   1.000  C
  C163     1.0000 0.12550  0.75610  0.13600  Biso   1.000  C
  H200     1.0000 0.07120  0.70760  0.12690  Biso   1.000  H
  H201     1.0000 0.11850  0.79510  0.16400  Biso   1.000  H
  H202     1.0000 0.15180  0.78320  0.09420  Biso   1.000  H
  C164     1.0000 0.94930  0.60700  0.66750  Biso   1.000  C
  H203     1.0000 0.91170  0.57980  0.70480  Biso   1.000  H
  H204     1.0000 0.95290  0.56520  0.64050  Biso   1.000  H
  H205     1.0000 0.00450  0.64690  0.68430  Biso   1.000  H
  C165     1.0000 0.91970  0.72910  0.65940  Biso   1.000  C
  H206     1.0000 0.97210  0.75930  0.68380  Biso   1.000  H
  H207     1.0000 0.91660  0.76580  0.62620  Biso   1.000  H
  H208     1.0000 0.87320  0.71040  0.69020  Biso   1.000  H
  O67      1.0000 0.11239  0.62190  0.33270  Biso   1.000  O
  O68      1.0000 0.70844  0.48177  0.56172  Biso   1.000  O
  C166     1.0000 0.78650  0.51260  0.57312  Biso   1.000  C
  O69      1.0000 0.81274  0.46269  0.59097  Biso   1.000  O
  O70      1.0000 0.15320  0.57309  0.04963  Biso   1.000  O
  O71      1.0000 0.04195  0.56461  0.10505  Biso   1.000  O
  O72      1.0000 0.97827  0.56148  0.53158  Biso   1.000  O
  C167     1.0000 0.92880  0.66060  0.53840  Biso   1.000  C
  H209     1.0000 0.93450  0.70790  0.51100  Biso   1.000  H
  C168     1.0000 0.83740  0.60430  0.56380  Biso   1.000  C
  H210     1.0000 0.80160  0.62700  0.54850  Biso   1.000  H
  C169     1.0000 0.90620  0.66700  0.61080  Biso   1.000  C
  C170     1.0000 0.94280  0.63540  0.66360  Biso   1.000  C
  H211     1.0000 0.00020  0.65240  0.65210  Biso   1.000  H
  H212     1.0000 0.94140  0.65870  0.70670  Biso   1.000  H
  H213     1.0000 0.91000  0.57470  0.66570  Biso   1.000  H
  C171     1.0000 0.90010  0.74290  0.63160  Biso   1.000  C
  H214     1.0000 0.87610  0.75900  0.59540  Biso   1.000  H
  H215     1.0000 0.86490  0.72940  0.67080  Biso   1.000  H
  H216     1.0000 0.95570  0.78900  0.64180  Biso   1.000  H
  Gd10     1.0000 0.50789  0.41711  0.05586  Biso   1.000  Gd
  O73      1.0000 0.57437  0.33010  0.20292  Biso   1.000  O
  O74      1.0000 0.36431  0.31598  0.01971  Biso   1.000  O
  C172     1.0000 0.53100  0.35410  0.34612  Biso   1.000  C
  H217     1.0000 0.58470  0.35470  0.34070  Biso   1.000  H
  C173     1.0000 0.48360  0.34690  0.28105  Biso   1.000  C
  H218     1.0000 0.44970  0.37490  0.28340  Biso   1.000  H
  C174     1.0000 0.45240  0.27160  0.32804  Biso   1.000  C
  C175     1.0000 0.52000  0.35140  0.21263  Biso   1.000  C
  C176     1.0000 0.35420  0.36640  0.98267  Biso   1.000  C
  C177     1.0000 0.52940  0.40960  0.40064  Biso   1.000  C
  C178     1.0000 0.26810  0.33710  0.95210  Biso   1.000  C
  H219     1.0000 0.22420  0.28220  0.96930  Biso   1.000  H
  C179     1.0000 0.23260  0.39200  0.92450  Biso   1.000  C
  H220     1.0000 0.17080  0.36380  0.92770  Biso   1.000  H
  C180     1.0000 0.46640  0.19900  0.31160  Biso   1.000  C
  H221     1.0000 0.46950  0.17280  0.35270  Biso   1.000  H
  H222     1.0000 0.42020  0.15820  0.28460  Biso   1.000  H
  H223     1.0000 0.51830  0.21970  0.28690  Biso   1.000  H
  C181     1.0000 0.26260  0.34690  0.87540  Biso   1.000  C
  C182     1.0000 0.36940  0.24390  0.36400  Biso   1.000  C
  H224     1.0000 0.36360  0.29240  0.37310  Biso   1.000  H
  H225     1.0000 0.32340  0.20490  0.33600  Biso   1.000  H
  H226     1.0000 0.36860  0.21680  0.40580  Biso   1.000  H
  C183     1.0000 0.34230  0.39300  0.83250  Biso   1.000  C
  H227     1.0000 0.33190  0.42020  0.79520  Biso   1.000  H
  H228     1.0000 0.38770  0.43480  0.85950  Biso   1.000  H
  H229     1.0000 0.35760  0.35310  0.81570  Biso   1.000  H
  C184     1.0000 0.19060  0.27090  0.84060  Biso   1.000  C
  H230     1.0000 0.21280  0.24070  0.81620  Biso   1.000  H
  H231     1.0000 0.15080  0.23420  0.87380  Biso   1.000  H
  H232     1.0000 0.16280  0.28960  0.80980  Biso   1.000  H
  O75      1.0000 0.49049  0.37810  0.16730  Biso   1.000  O
  O76      1.0000 0.22667  0.51823  0.93828  Biso   1.000  O
  C185     1.0000 0.27390  0.48740  0.92688  Biso   1.000  C
  O77      1.0000 0.35005  0.53731  0.90903  Biso   1.000  O
  O78      1.0000 0.58011  0.42691  0.45037  Biso   1.000  O
  O79      1.0000 0.47734  0.43539  0.39495  Biso   1.000  O
  O80      1.0000 0.41679  0.43852  0.96842  Biso   1.000  O
  C186     1.0000 0.26820  0.33940  0.96160  Biso   1.000  C
  H233     1.0000 0.22660  0.29210  0.98900  Biso   1.000  H
  C187     1.0000 0.23310  0.39570  0.93620  Biso   1.000  C
  H234     1.0000 0.17460  0.37300  0.95150  Biso   1.000  H
  C188     1.0000 0.23920  0.33300  0.88920  Biso   1.000  C
  C189     1.0000 0.30740  0.36460  0.83640  Biso   1.000  C
  H235     1.0000 0.34780  0.34760  0.84790  Biso   1.000  H
  H236     1.0000 0.28270  0.34130  0.79330  Biso   1.000  H
  H237     1.0000 0.33530  0.42530  0.83430  Biso   1.000  H
  C190     1.0000 0.15720  0.25710  0.86840  Biso   1.000  C
  H238     1.0000 0.11710  0.24100  0.90460  Biso   1.000  H
  H239     1.0000 0.13550  0.27060  0.82920  Biso   1.000  H
  H240     1.0000 0.16670  0.21100  0.85820  Biso   1.000  H
  Gd11     1.0000 0.90922  0.49211  0.05586  Biso   1.000  Gd
  O81      1.0000 0.75573  0.42563  0.20292  Biso   1.000  O
  O82      1.0000 0.95167  0.63569  0.01971  Biso   1.000  O
  C191     1.0000 0.82310  0.46900  0.34612  Biso   1.000  C
  H241     1.0000 0.77000  0.41530  0.34070  Biso   1.000  H
  C192     1.0000 0.86330  0.51640  0.28105  Biso   1.000  C
  H242     1.0000 0.92520  0.55030  0.28340  Biso   1.000  H
  C193     1.0000 0.81920  0.54760  0.32804  Biso   1.000  C
  C194     1.0000 0.83140  0.48000  0.21263  Biso   1.000  C
  C195     1.0000 0.01220  0.64580  0.98267  Biso   1.000  C
  C196     1.0000 0.88020  0.47060  0.40064  Biso   1.000  C
  C197     1.0000 0.06900  0.73190  0.95210  Biso   1.000  C
  H243     1.0000 0.05800  0.77580  0.96930  Biso   1.000  H
  C198     1.0000 0.15940  0.76740  0.92450  Biso   1.000  C
  H244     1.0000 0.19300  0.82920  0.92770  Biso   1.000  H
  C199     1.0000 0.73260  0.53360  0.31160  Biso   1.000  C
  H245     1.0000 0.70330  0.53050  0.35270  Biso   1.000  H
  H246     1.0000 0.73800  0.57980  0.28460  Biso   1.000  H
  H247     1.0000 0.70140  0.48170  0.28690  Biso   1.000  H
  C200     1.0000 0.08430  0.73740  0.87540  Biso   1.000  C
  C201     1.0000 0.87450  0.63060  0.36400  Biso   1.000  C
  H248     1.0000 0.92880  0.63640  0.37310  Biso   1.000  H
  H249     1.0000 0.88150  0.67660  0.33600  Biso   1.000  H
  H250     1.0000 0.84820  0.63140  0.40580  Biso   1.000  H
  C202     1.0000 0.05070  0.65770  0.83250  Biso   1.000  C
  H251     1.0000 0.08830  0.66810  0.79520  Biso   1.000  H
  H252     1.0000 0.04710  0.61230  0.85950  Biso   1.000  H
  H253     1.0000 0.99550  0.64240  0.81570  Biso   1.000  H
  C203     1.0000 0.08030  0.80940  0.84060  Biso   1.000  C
  H254     1.0000 0.02790  0.78720  0.81620  Biso   1.000  H
  H255     1.0000 0.08340  0.84920  0.87380  Biso   1.000  H
  H256     1.0000 0.12680  0.83720  0.80980  Biso   1.000  H
  O83      1.0000 0.88761  0.50951  0.16730  Biso   1.000  O
  O84      1.0000 0.29156  0.77333  0.93828  Biso   1.000  O
  C204     1.0000 0.21350  0.72610  0.92688  Biso   1.000  C
  O85      1.0000 0.18726  0.64995  0.90903  Biso   1.000  O
  O86      1.0000 0.84680  0.41989  0.45037  Biso   1.000  O
  O87      1.0000 0.95805  0.52266  0.39495  Biso   1.000  O
  O88      1.0000 0.02173  0.58321  0.96842  Biso   1.000  O
  C205     1.0000 0.07120  0.73180  0.96160  Biso   1.000  C
  H257     1.0000 0.06550  0.77340  0.98900  Biso   1.000  H
  C206     1.0000 0.16260  0.76690  0.93620  Biso   1.000  C
  H258     1.0000 0.19840  0.82540  0.95150  Biso   1.000  H
  C207     1.0000 0.09380  0.76080  0.88920  Biso   1.000  C
  C208     1.0000 0.05720  0.69260  0.83640  Biso   1.000  C
  H259     1.0000 0.99980  0.65220  0.84790  Biso   1.000  H
  H260     1.0000 0.05860  0.71730  0.79330  Biso   1.000  H
  H261     1.0000 0.09000  0.66470  0.83430  Biso   1.000  H
  C209     1.0000 0.09990  0.84280  0.86840  Biso   1.000  C
  H262     1.0000 0.12390  0.88290  0.90460  Biso   1.000  H
  H263     1.0000 0.13510  0.86450  0.82920  Biso   1.000  H
  H264     1.0000 0.04430  0.83330  0.85820  Biso   1.000  H
  Gd12     1.0000 0.58289  0.09078  0.05586  Biso   1.000  Gd
  O89      1.0000 0.66990  0.24427  0.20292  Biso   1.000  O
  O90      1.0000 0.68402  0.04833  0.01971  Biso   1.000  O
  C210     1.0000 0.64590  0.17690  0.34612  Biso   1.000  C
  H265     1.0000 0.64530  0.23000  0.34070  Biso   1.000  H
  C211     1.0000 0.65310  0.13670  0.28105  Biso   1.000  C
  H266     1.0000 0.62510  0.07480  0.28340  Biso   1.000  H
  C212     1.0000 0.72840  0.18080  0.32804  Biso   1.000  C
  C213     1.0000 0.64860  0.16860  0.21263  Biso   1.000  C
  C214     1.0000 0.63360  0.98780  0.98267  Biso   1.000  C
  C215     1.0000 0.59040  0.11980  0.40064  Biso   1.000  C
  C216     1.0000 0.66290  0.93100  0.95210  Biso   1.000  C
  H267     1.0000 0.71780  0.94200  0.96930  Biso   1.000  H
  C217     1.0000 0.60800  0.84060  0.92450  Biso   1.000  C
  H268     1.0000 0.63620  0.80700  0.92770  Biso   1.000  H
  C218     1.0000 0.80100  0.26740  0.31160  Biso   1.000  C
  H269     1.0000 0.82720  0.29670  0.35270  Biso   1.000  H
  H270     1.0000 0.84180  0.26200  0.28460  Biso   1.000  H
  H271     1.0000 0.78030  0.29860  0.28690  Biso   1.000  H
  C219     1.0000 0.65310  0.91570  0.87540  Biso   1.000  C
  C220     1.0000 0.75610  0.12550  0.36400  Biso   1.000  C
  H272     1.0000 0.70760  0.07120  0.37310  Biso   1.000  H
  H273     1.0000 0.79510  0.11850  0.33600  Biso   1.000  H
  H274     1.0000 0.78320  0.15180  0.40580  Biso   1.000  H
  C221     1.0000 0.60700  0.94930  0.83250  Biso   1.000  C
  H275     1.0000 0.57980  0.91170  0.79520  Biso   1.000  H
  H276     1.0000 0.56520  0.95290  0.85950  Biso   1.000  H
  H277     1.0000 0.64690  0.00450  0.81570  Biso   1.000  H
  C222     1.0000 0.72910  0.91970  0.84060  Biso   1.000  C
  H278     1.0000 0.75930  0.97210  0.81620  Biso   1.000  H
  H279     1.0000 0.76580  0.91660  0.87380  Biso   1.000  H
  H280     1.0000 0.71040  0.87320  0.80980  Biso   1.000  H
  O91      1.0000 0.62190  0.11239  0.16730  Biso   1.000  O
  O92      1.0000 0.48177  0.70844  0.93828  Biso   1.000  O
  C223     1.0000 0.51260  0.78650  0.92688  Biso   1.000  C
  O93      1.0000 0.46269  0.81274  0.90903  Biso   1.000  O
  O94      1.0000 0.57309  0.15320  0.45037  Biso   1.000  O
  O95      1.0000 0.56461  0.04195  0.39495  Biso   1.000  O
  O96      1.0000 0.56148  0.97827  0.96842  Biso   1.000  O
  C224     1.0000 0.66060  0.92880  0.96160  Biso   1.000  C
  H281     1.0000 0.70790  0.93450  0.98900  Biso   1.000  H
  C225     1.0000 0.60430  0.83740  0.93620  Biso   1.000  C
  H282     1.0000 0.62700  0.80160  0.95150  Biso   1.000  H
  C226     1.0000 0.66700  0.90620  0.88920  Biso   1.000  C
  C227     1.0000 0.63540  0.94280  0.83640  Biso   1.000  C
  H283     1.0000 0.65240  0.00020  0.84790  Biso   1.000  H
  H284     1.0000 0.65870  0.94140  0.79330  Biso   1.000  H
  H285     1.0000 0.57470  0.91000  0.83430  Biso   1.000  H
  C228     1.0000 0.74290  0.90010  0.86840  Biso   1.000  C
  H286     1.0000 0.75900  0.87610  0.90460  Biso   1.000  H
  H287     1.0000 0.72940  0.86490  0.82920  Biso   1.000  H
  H288     1.0000 0.78900  0.95570  0.85820  Biso   1.000  H
  Gd13     1.0000 0.66667  0.33333  0.61818  Biso   1.000  Gd
  Gd14     1.0000 0.33333  0.66667  0.88182  Biso   1.000  Gd
  Gd15     1.0000 0.33333  0.66667  0.38182  Biso   1.000  Gd
  Gd16     1.0000 0.66667  0.33333  0.11818  Biso   1.000  Gd
