data_image0
_cell_length_a       18.4
_cell_length_b       11.3877
_cell_length_c       18.923
_cell_angle_alpha    90
_cell_angle_beta     108.246
_cell_angle_gamma    90

_symmetry_space_group_name_H-M    "P 1"
_symmetry_int_tables_number       1

loop_
  _symmetry_equiv_pos_as_xyz
  'x, y, z'

loop_
  _atom_site_label
  _atom_site_occupancy
  _atom_site_fract_x
  _atom_site_fract_y
  _atom_site_fract_z
  _atom_site_thermal_displace_type
  _atom_site_B_iso_or_equiv
  _atom_site_type_symbol
  C1       1.0000 0.89750  0.83010  0.92770  Biso   1.000  C
  C2       1.0000 0.83040  0.75410  0.89010  Biso   1.000  C
  C3       1.0000 0.79290  0.69840  0.93390  Biso   1.000  C
  H1       1.0000 0.81380  0.70190  0.98540  Biso   1.000  H
  C4       1.0000 0.72580  0.63790  0.90311  Biso   1.000  C
  H2       1.0000 0.70100  0.60280  0.93360  Biso   1.000  H
  C5       1.0000 0.69508  0.62970  0.82596  Biso   1.000  C
  C6       1.0000 0.73340  0.67950  0.78160  Biso   1.000  C
  H3       1.0000 0.71400  0.67070  0.73030  Biso   1.000  H
  C7       1.0000 0.80090  0.74320  0.81230  Biso   1.000  C
  C8       1.0000 0.61957  0.57000  0.79188  Biso   1.000  C
  C9       1.0000 0.88370  0.15420  0.97140  Biso   1.000  C
  C10      1.0000 0.81523  0.20570  0.98625  Biso   1.000  C
  C11      1.0000 0.79050  0.15950  0.04230  Biso   1.000  C
  H4       1.0000 0.82000  0.09900  0.07100  Biso   1.000  H
  C12      1.0000 0.78020  0.30760  0.94810  Biso   1.000  C
  N1       1.0000 0.79620  0.35670  0.88920  Biso   1.000  N
  H5       1.0000 0.83200  0.33400  0.87300  Biso   1.000  H
  H6       1.0000 0.78100  0.42400  0.87200  Biso   1.000  H
  N2       1.0000 0.83360  0.79100  0.76290  Biso   1.000  N
  H7       1.0000 0.81000  0.80200  0.71560  Biso   1.000  H
  H8       1.0000 0.86800  0.84600  0.77700  Biso   1.000  H
  O1       1.0000 0.92365  0.89580  0.88830  Biso   1.000  O
  O2       1.0000 0.92364  0.82480  0.99753  Biso   1.000  O
  O3       1.0000 0.58862  0.52210  0.83565  Biso   1.000  O
  O4       1.0000 0.59127  0.56990  0.72308  Biso   1.000  O
  O5       1.0000 0.92064  0.07300  0.01121  Biso   1.000  O
  O6       1.0000 0.90226  0.19260  0.91736  Biso   1.000  O
  Nd1      1.0000 0.00079  0.06512  0.89819  Biso   1.000  Nd
  C13      1.0000 0.76910  0.29070  0.93880  Biso   1.000  C
  H9       1.0000 0.77880  0.31290  0.89530  Biso   1.000  H
  C14      1.0000 0.39750  0.33010  0.92770  Biso   1.000  C
  C15      1.0000 0.33040  0.25410  0.89010  Biso   1.000  C
  C16      1.0000 0.29290  0.19840  0.93390  Biso   1.000  C
  H10      1.0000 0.31380  0.20190  0.98540  Biso   1.000  H
  C17      1.0000 0.22580  0.13790  0.90311  Biso   1.000  C
  H11      1.0000 0.20100  0.10280  0.93360  Biso   1.000  H
  C18      1.0000 0.19508  0.12970  0.82596  Biso   1.000  C
  C19      1.0000 0.23340  0.17950  0.78160  Biso   1.000  C
  H12      1.0000 0.21400  0.17070  0.73030  Biso   1.000  H
  C20      1.0000 0.30090  0.24320  0.81230  Biso   1.000  C
  C21      1.0000 0.11957  0.07000  0.79188  Biso   1.000  C
  C22      1.0000 0.38370  0.65420  0.97140  Biso   1.000  C
  C23      1.0000 0.31523  0.70570  0.98625  Biso   1.000  C
  C24      1.0000 0.29050  0.65950  0.04230  Biso   1.000  C
  H13      1.0000 0.32000  0.59900  0.07100  Biso   1.000  H
  C25      1.0000 0.28020  0.80760  0.94810  Biso   1.000  C
  N3       1.0000 0.29620  0.85670  0.88920  Biso   1.000  N
  H14      1.0000 0.33200  0.83400  0.87300  Biso   1.000  H
  H15      1.0000 0.28100  0.92400  0.87200  Biso   1.000  H
  N4       1.0000 0.33360  0.29100  0.76290  Biso   1.000  N
  H16      1.0000 0.31000  0.30200  0.71560  Biso   1.000  H
  H17      1.0000 0.36800  0.34600  0.77700  Biso   1.000  H
  O7       1.0000 0.42365  0.39580  0.88830  Biso   1.000  O
  O8       1.0000 0.42364  0.32480  0.99753  Biso   1.000  O
  O9       1.0000 0.08862  0.02210  0.83565  Biso   1.000  O
  O10      1.0000 0.09127  0.06990  0.72308  Biso   1.000  O
  O11      1.0000 0.42064  0.57300  0.01121  Biso   1.000  O
  O12      1.0000 0.40226  0.69260  0.91736  Biso   1.000  O
  Nd2      1.0000 0.50079  0.56512  0.89819  Biso   1.000  Nd
  C26      1.0000 0.26910  0.79070  0.93880  Biso   1.000  C
  H18      1.0000 0.27880  0.81290  0.89530  Biso   1.000  H
  C27      1.0000 0.10250  0.83010  0.57230  Biso   1.000  C
  C28      1.0000 0.16960  0.75410  0.60990  Biso   1.000  C
  C29      1.0000 0.20710  0.69840  0.56610  Biso   1.000  C
  H19      1.0000 0.18620  0.70190  0.51460  Biso   1.000  H
  C30      1.0000 0.27420  0.63790  0.59689  Biso   1.000  C
  H20      1.0000 0.29900  0.60280  0.56640  Biso   1.000  H
  C31      1.0000 0.30492  0.62970  0.67404  Biso   1.000  C
  C32      1.0000 0.26660  0.67950  0.71840  Biso   1.000  C
  H21      1.0000 0.28600  0.67070  0.76970  Biso   1.000  H
  C33      1.0000 0.19910  0.74320  0.68770  Biso   1.000  C
  C34      1.0000 0.38043  0.57000  0.70812  Biso   1.000  C
  C35      1.0000 0.11630  0.15420  0.52860  Biso   1.000  C
  C36      1.0000 0.18477  0.20570  0.51375  Biso   1.000  C
  C37      1.0000 0.20950  0.15950  0.45770  Biso   1.000  C
  H22      1.0000 0.18000  0.09900  0.42900  Biso   1.000  H
  C38      1.0000 0.21980  0.30760  0.55190  Biso   1.000  C
  N5       1.0000 0.20380  0.35670  0.61080  Biso   1.000  N
  H23      1.0000 0.16800  0.33400  0.62700  Biso   1.000  H
  H24      1.0000 0.21900  0.42400  0.62800  Biso   1.000  H
  N6       1.0000 0.16640  0.79100  0.73710  Biso   1.000  N
  H25      1.0000 0.19000  0.80200  0.78440  Biso   1.000  H
  H26      1.0000 0.13200  0.84600  0.72300  Biso   1.000  H
  O13      1.0000 0.07635  0.89580  0.61170  Biso   1.000  O
  O14      1.0000 0.07636  0.82480  0.50247  Biso   1.000  O
  O15      1.0000 0.41138  0.52210  0.66435  Biso   1.000  O
  O16      1.0000 0.40873  0.56990  0.77692  Biso   1.000  O
  O17      1.0000 0.07936  0.07300  0.48879  Biso   1.000  O
  O18      1.0000 0.09774  0.19260  0.58264  Biso   1.000  O
  Nd3      1.0000 0.99921  0.06512  0.60181  Biso   1.000  Nd
  C39      1.0000 0.23090  0.29070  0.56120  Biso   1.000  C
  H27      1.0000 0.22120  0.31290  0.60470  Biso   1.000  H
  C40      1.0000 0.60250  0.33010  0.57230  Biso   1.000  C
  C41      1.0000 0.66960  0.25410  0.60990  Biso   1.000  C
  C42      1.0000 0.70710  0.19840  0.56610  Biso   1.000  C
  H28      1.0000 0.68620  0.20190  0.51460  Biso   1.000  H
  C43      1.0000 0.77420  0.13790  0.59689  Biso   1.000  C
  H29      1.0000 0.79900  0.10280  0.56640  Biso   1.000  H
  C44      1.0000 0.80492  0.12970  0.67404  Biso   1.000  C
  C45      1.0000 0.76660  0.17950  0.71840  Biso   1.000  C
  H30      1.0000 0.78600  0.17070  0.76970  Biso   1.000  H
  C46      1.0000 0.69910  0.24320  0.68770  Biso   1.000  C
  C47      1.0000 0.88043  0.07000  0.70812  Biso   1.000  C
  C48      1.0000 0.61630  0.65420  0.52860  Biso   1.000  C
  C49      1.0000 0.68477  0.70570  0.51375  Biso   1.000  C
  C50      1.0000 0.70950  0.65950  0.45770  Biso   1.000  C
  H31      1.0000 0.68000  0.59900  0.42900  Biso   1.000  H
  C51      1.0000 0.71980  0.80760  0.55190  Biso   1.000  C
  N7       1.0000 0.70380  0.85670  0.61080  Biso   1.000  N
  H32      1.0000 0.66800  0.83400  0.62700  Biso   1.000  H
  H33      1.0000 0.71900  0.92400  0.62800  Biso   1.000  H
  N8       1.0000 0.66640  0.29100  0.73710  Biso   1.000  N
  H34      1.0000 0.69000  0.30200  0.78440  Biso   1.000  H
  H35      1.0000 0.63200  0.34600  0.72300  Biso   1.000  H
  O19      1.0000 0.57635  0.39580  0.61170  Biso   1.000  O
  O20      1.0000 0.57636  0.32480  0.50247  Biso   1.000  O
  O21      1.0000 0.91138  0.02210  0.66435  Biso   1.000  O
  O22      1.0000 0.90873  0.06990  0.77692  Biso   1.000  O
  O23      1.0000 0.57936  0.57300  0.48879  Biso   1.000  O
  O24      1.0000 0.59774  0.69260  0.58264  Biso   1.000  O
  Nd4      1.0000 0.49921  0.56512  0.60181  Biso   1.000  Nd
  C52      1.0000 0.73090  0.79070  0.56120  Biso   1.000  C
  H36      1.0000 0.72120  0.81290  0.60470  Biso   1.000  H
  C53      1.0000 0.10250  0.16990  0.07230  Biso   1.000  C
  C54      1.0000 0.16960  0.24590  0.10990  Biso   1.000  C
  C55      1.0000 0.20710  0.30160  0.06610  Biso   1.000  C
  H37      1.0000 0.18620  0.29810  0.01460  Biso   1.000  H
  C56      1.0000 0.27420  0.36210  0.09689  Biso   1.000  C
  H38      1.0000 0.29900  0.39720  0.06640  Biso   1.000  H
  C57      1.0000 0.30492  0.37030  0.17404  Biso   1.000  C
  C58      1.0000 0.26660  0.32050  0.21840  Biso   1.000  C
  H39      1.0000 0.28600  0.32930  0.26970  Biso   1.000  H
  C59      1.0000 0.19910  0.25680  0.18770  Biso   1.000  C
  C60      1.0000 0.38043  0.43000  0.20812  Biso   1.000  C
  C61      1.0000 0.11630  0.84580  0.02860  Biso   1.000  C
  C62      1.0000 0.18477  0.79430  0.01375  Biso   1.000  C
  C63      1.0000 0.20950  0.84050  0.95770  Biso   1.000  C
  H40      1.0000 0.18000  0.90100  0.92900  Biso   1.000  H
  C64      1.0000 0.21980  0.69240  0.05190  Biso   1.000  C
  N9       1.0000 0.20380  0.64330  0.11080  Biso   1.000  N
  H41      1.0000 0.16800  0.66600  0.12700  Biso   1.000  H
  H42      1.0000 0.21900  0.57600  0.12800  Biso   1.000  H
  N10      1.0000 0.16640  0.20900  0.23710  Biso   1.000  N
  H43      1.0000 0.19000  0.19800  0.28440  Biso   1.000  H
  H44      1.0000 0.13200  0.15400  0.22300  Biso   1.000  H
  O25      1.0000 0.07635  0.10420  0.11170  Biso   1.000  O
  O26      1.0000 0.07636  0.17520  0.00247  Biso   1.000  O
  O27      1.0000 0.41138  0.47790  0.16435  Biso   1.000  O
  O28      1.0000 0.40873  0.43010  0.27692  Biso   1.000  O
  O29      1.0000 0.07936  0.92700  0.98879  Biso   1.000  O
  O30      1.0000 0.09774  0.80740  0.08264  Biso   1.000  O
  Nd5      1.0000 0.99921  0.93488  0.10181  Biso   1.000  Nd
  C65      1.0000 0.23090  0.70930  0.06120  Biso   1.000  C
  H45      1.0000 0.22120  0.68710  0.10470  Biso   1.000  H
  C66      1.0000 0.60250  0.66990  0.07230  Biso   1.000  C
  C67      1.0000 0.66960  0.74590  0.10990  Biso   1.000  C
  C68      1.0000 0.70710  0.80160  0.06610  Biso   1.000  C
  H46      1.0000 0.68620  0.79810  0.01460  Biso   1.000  H
  C69      1.0000 0.77420  0.86210  0.09689  Biso   1.000  C
  H47      1.0000 0.79900  0.89720  0.06640  Biso   1.000  H
  C70      1.0000 0.80492  0.87030  0.17404  Biso   1.000  C
  C71      1.0000 0.76660  0.82050  0.21840  Biso   1.000  C
  H48      1.0000 0.78600  0.82930  0.26970  Biso   1.000  H
  C72      1.0000 0.69910  0.75680  0.18770  Biso   1.000  C
  C73      1.0000 0.88043  0.93000  0.20812  Biso   1.000  C
  C74      1.0000 0.61630  0.34580  0.02860  Biso   1.000  C
  C75      1.0000 0.68477  0.29430  0.01375  Biso   1.000  C
  C76      1.0000 0.70950  0.34050  0.95770  Biso   1.000  C
  H49      1.0000 0.68000  0.40100  0.92900  Biso   1.000  H
  C77      1.0000 0.71980  0.19240  0.05190  Biso   1.000  C
  N11      1.0000 0.70380  0.14330  0.11080  Biso   1.000  N
  H50      1.0000 0.66800  0.16600  0.12700  Biso   1.000  H
  H51      1.0000 0.71900  0.07600  0.12800  Biso   1.000  H
  N12      1.0000 0.66640  0.70900  0.23710  Biso   1.000  N
  H52      1.0000 0.69000  0.69800  0.28440  Biso   1.000  H
  H53      1.0000 0.63200  0.65400  0.22300  Biso   1.000  H
  O31      1.0000 0.57635  0.60420  0.11170  Biso   1.000  O
  O32      1.0000 0.57636  0.67520  0.00247  Biso   1.000  O
  O33      1.0000 0.91138  0.97790  0.16435  Biso   1.000  O
  O34      1.0000 0.90873  0.93010  0.27692  Biso   1.000  O
  O35      1.0000 0.57936  0.42700  0.98879  Biso   1.000  O
  O36      1.0000 0.59774  0.30740  0.08264  Biso   1.000  O
  Nd6      1.0000 0.49921  0.43488  0.10181  Biso   1.000  Nd
  C78      1.0000 0.73090  0.20930  0.06120  Biso   1.000  C
  H54      1.0000 0.72120  0.18710  0.10470  Biso   1.000  H
  C79      1.0000 0.89750  0.16990  0.42770  Biso   1.000  C
  C80      1.0000 0.83040  0.24590  0.39010  Biso   1.000  C
  C81      1.0000 0.79290  0.30160  0.43390  Biso   1.000  C
  H55      1.0000 0.81380  0.29810  0.48540  Biso   1.000  H
  C82      1.0000 0.72580  0.36210  0.40311  Biso   1.000  C
  H56      1.0000 0.70100  0.39720  0.43360  Biso   1.000  H
  C83      1.0000 0.69508  0.37030  0.32596  Biso   1.000  C
  C84      1.0000 0.73340  0.32050  0.28160  Biso   1.000  C
  H57      1.0000 0.71400  0.32930  0.23030  Biso   1.000  H
  C85      1.0000 0.80090  0.25680  0.31230  Biso   1.000  C
  C86      1.0000 0.61957  0.43000  0.29188  Biso   1.000  C
  C87      1.0000 0.88370  0.84580  0.47140  Biso   1.000  C
  C88      1.0000 0.81523  0.79430  0.48625  Biso   1.000  C
  C89      1.0000 0.79050  0.84050  0.54230  Biso   1.000  C
  H58      1.0000 0.82000  0.90100  0.57100  Biso   1.000  H
  C90      1.0000 0.78020  0.69240  0.44810  Biso   1.000  C
  N13      1.0000 0.79620  0.64330  0.38920  Biso   1.000  N
  H59      1.0000 0.83200  0.66600  0.37300  Biso   1.000  H
  H60      1.0000 0.78100  0.57600  0.37200  Biso   1.000  H
  N14      1.0000 0.83360  0.20900  0.26290  Biso   1.000  N
  H61      1.0000 0.81000  0.19800  0.21560  Biso   1.000  H
  H62      1.0000 0.86800  0.15400  0.27700  Biso   1.000  H
  O37      1.0000 0.92365  0.10420  0.38830  Biso   1.000  O
  O38      1.0000 0.92364  0.17520  0.49753  Biso   1.000  O
  O39      1.0000 0.58862  0.47790  0.33565  Biso   1.000  O
  O40      1.0000 0.59127  0.43010  0.22308  Biso   1.000  O
  O41      1.0000 0.92064  0.92700  0.51121  Biso   1.000  O
  O42      1.0000 0.90226  0.80740  0.41736  Biso   1.000  O
  Nd7      1.0000 0.00079  0.93488  0.39819  Biso   1.000  Nd
  C91      1.0000 0.76910  0.70930  0.43880  Biso   1.000  C
  H63      1.0000 0.77880  0.68710  0.39530  Biso   1.000  H
  C92      1.0000 0.39750  0.66990  0.42770  Biso   1.000  C
  C93      1.0000 0.33040  0.74590  0.39010  Biso   1.000  C
  C94      1.0000 0.29290  0.80160  0.43390  Biso   1.000  C
  H64      1.0000 0.31380  0.79810  0.48540  Biso   1.000  H
  C95      1.0000 0.22580  0.86210  0.40311  Biso   1.000  C
  H65      1.0000 0.20100  0.89720  0.43360  Biso   1.000  H
  C96      1.0000 0.19508  0.87030  0.32596  Biso   1.000  C
  C97      1.0000 0.23340  0.82050  0.28160  Biso   1.000  C
  H66      1.0000 0.21400  0.82930  0.23030  Biso   1.000  H
  C98      1.0000 0.30090  0.75680  0.31230  Biso   1.000  C
  C99      1.0000 0.11957  0.93000  0.29188  Biso   1.000  C
  C100     1.0000 0.38370  0.34580  0.47140  Biso   1.000  C
  C101     1.0000 0.31523  0.29430  0.48625  Biso   1.000  C
  C102     1.0000 0.29050  0.34050  0.54230  Biso   1.000  C
  H67      1.0000 0.32000  0.40100  0.57100  Biso   1.000  H
  C103     1.0000 0.28020  0.19240  0.44810  Biso   1.000  C
  N15      1.0000 0.29620  0.14330  0.38920  Biso   1.000  N
  H68      1.0000 0.33200  0.16600  0.37300  Biso   1.000  H
  H69      1.0000 0.28100  0.07600  0.37200  Biso   1.000  H
  N16      1.0000 0.33360  0.70900  0.26290  Biso   1.000  N
  H70      1.0000 0.31000  0.69800  0.21560  Biso   1.000  H
  H71      1.0000 0.36800  0.65400  0.27700  Biso   1.000  H
  O43      1.0000 0.42365  0.60420  0.38830  Biso   1.000  O
  O44      1.0000 0.42364  0.67520  0.49753  Biso   1.000  O
  O45      1.0000 0.08862  0.97790  0.33565  Biso   1.000  O
  O46      1.0000 0.09127  0.93010  0.22308  Biso   1.000  O
  O47      1.0000 0.42064  0.42700  0.51121  Biso   1.000  O
  O48      1.0000 0.40226  0.30740  0.41736  Biso   1.000  O
  Nd8      1.0000 0.50079  0.43488  0.39819  Biso   1.000  Nd
  C104     1.0000 0.26910  0.20930  0.43880  Biso   1.000  C
  H72      1.0000 0.27880  0.18710  0.39530  Biso   1.000  H
