data_image0
_cell_length_a       18.4369
_cell_length_b       11.4119
_cell_length_c       18.9643
_cell_angle_alpha    90
_cell_angle_beta     108.265
_cell_angle_gamma    90

_symmetry_space_group_name_H-M    "P 1"
_symmetry_int_tables_number       1

loop_
  _symmetry_equiv_pos_as_xyz
  'x, y, z'

loop_
  _atom_site_label
  _atom_site_occupancy
  _atom_site_fract_x
  _atom_site_fract_y
  _atom_site_fract_z
  _atom_site_thermal_displace_type
  _atom_site_B_iso_or_equiv
  _atom_site_type_symbol
  C1       1.0000 0.89749  0.82840  0.92741  Biso   1.000  C
  C2       1.0000 0.83017  0.75350  0.88980  Biso   1.000  C
  C3       1.0000 0.79267  0.69800  0.93355  Biso   1.000  C
  H1       1.0000 0.81360  0.70180  0.98490  Biso   1.000  H
  C4       1.0000 0.72581  0.63800  0.90322  Biso   1.000  C
  H2       1.0000 0.70120  0.60290  0.93380  Biso   1.000  H
  C5       1.0000 0.69487  0.62970  0.82627  Biso   1.000  C
  C6       1.0000 0.73290  0.67970  0.78174  Biso   1.000  C
  H3       1.0000 0.71330  0.67090  0.73050  Biso   1.000  H
  C7       1.0000 0.80020  0.74310  0.81210  Biso   1.000  C
  C8       1.0000 0.61950  0.56980  0.79200  Biso   1.000  C
  C9       1.0000 0.88328  0.15520  0.97056  Biso   1.000  C
  C10      1.0000 0.81481  0.20620  0.98583  Biso   1.000  C
  C11      1.0000 0.79081  0.15990  0.04206  Biso   1.000  C
  H4       1.0000 0.81800  0.09900  0.06800  Biso   1.000  H
  C12      1.0000 0.76920  0.29900  0.94630  Biso   1.000  C
  N1       1.0000 0.79420  0.35660  0.88790  Biso   1.000  N
  H5       1.0000 0.83000  0.33500  0.87200  Biso   1.000  H
  H6       1.0000 0.78200  0.42700  0.87600  Biso   1.000  H
  N2       1.0000 0.83340  0.79040  0.76300  Biso   1.000  N
  H7       1.0000 0.81000  0.80300  0.71580  Biso   1.000  H
  H8       1.0000 0.86800  0.84400  0.77700  Biso   1.000  H
  O1       1.0000 0.92405  0.89380  0.88821  Biso   1.000  O
  O2       1.0000 0.92353  0.82360  0.99705  Biso   1.000  O
  O3       1.0000 0.58899  0.52150  0.83579  Biso   1.000  O
  O4       1.0000 0.59146  0.56920  0.72353  Biso   1.000  O
  O5       1.0000 0.92004  0.07290  0.00972  Biso   1.000  O
  O6       1.0000 0.90151  0.19460  0.91676  Biso   1.000  O
  Pr1      1.0000 0.00061  0.06544  0.89836  Biso   1.000  Pr
  C13      1.0000 0.77840  0.30100  0.94030  Biso   1.000  C
  H9       1.0000 0.79570  0.33400  0.90380  Biso   1.000  H
  C14      1.0000 0.39749  0.32840  0.92741  Biso   1.000  C
  C15      1.0000 0.33017  0.25350  0.88980  Biso   1.000  C
  C16      1.0000 0.29267  0.19800  0.93355  Biso   1.000  C
  H10      1.0000 0.31360  0.20180  0.98490  Biso   1.000  H
  C17      1.0000 0.22581  0.13800  0.90322  Biso   1.000  C
  H11      1.0000 0.20120  0.10290  0.93380  Biso   1.000  H
  C18      1.0000 0.19487  0.12970  0.82627  Biso   1.000  C
  C19      1.0000 0.23290  0.17970  0.78174  Biso   1.000  C
  H12      1.0000 0.21330  0.17090  0.73050  Biso   1.000  H
  C20      1.0000 0.30020  0.24310  0.81210  Biso   1.000  C
  C21      1.0000 0.11950  0.06980  0.79200  Biso   1.000  C
  C22      1.0000 0.38328  0.65520  0.97056  Biso   1.000  C
  C23      1.0000 0.31481  0.70620  0.98583  Biso   1.000  C
  C24      1.0000 0.29081  0.65990  0.04206  Biso   1.000  C
  H13      1.0000 0.31800  0.59900  0.06800  Biso   1.000  H
  C25      1.0000 0.26920  0.79900  0.94630  Biso   1.000  C
  N3       1.0000 0.29420  0.85660  0.88790  Biso   1.000  N
  H14      1.0000 0.33000  0.83500  0.87200  Biso   1.000  H
  H15      1.0000 0.28200  0.92700  0.87600  Biso   1.000  H
  N4       1.0000 0.33340  0.29040  0.76300  Biso   1.000  N
  H16      1.0000 0.31000  0.30300  0.71580  Biso   1.000  H
  H17      1.0000 0.36800  0.34400  0.77700  Biso   1.000  H
  O7       1.0000 0.42405  0.39380  0.88821  Biso   1.000  O
  O8       1.0000 0.42353  0.32360  0.99705  Biso   1.000  O
  O9       1.0000 0.08899  0.02150  0.83579  Biso   1.000  O
  O10      1.0000 0.09146  0.06920  0.72353  Biso   1.000  O
  O11      1.0000 0.42004  0.57290  0.00972  Biso   1.000  O
  O12      1.0000 0.40151  0.69460  0.91676  Biso   1.000  O
  Pr2      1.0000 0.50061  0.56544  0.89836  Biso   1.000  Pr
  C26      1.0000 0.27840  0.80100  0.94030  Biso   1.000  C
  H18      1.0000 0.29570  0.83400  0.90380  Biso   1.000  H
  C27      1.0000 0.10251  0.82840  0.57259  Biso   1.000  C
  C28      1.0000 0.16983  0.75350  0.61020  Biso   1.000  C
  C29      1.0000 0.20733  0.69800  0.56645  Biso   1.000  C
  H19      1.0000 0.18640  0.70180  0.51510  Biso   1.000  H
  C30      1.0000 0.27419  0.63800  0.59678  Biso   1.000  C
  H20      1.0000 0.29880  0.60290  0.56620  Biso   1.000  H
  C31      1.0000 0.30513  0.62970  0.67373  Biso   1.000  C
  C32      1.0000 0.26710  0.67970  0.71826  Biso   1.000  C
  H21      1.0000 0.28670  0.67090  0.76950  Biso   1.000  H
  C33      1.0000 0.19980  0.74310  0.68790  Biso   1.000  C
  C34      1.0000 0.38050  0.56980  0.70800  Biso   1.000  C
  C35      1.0000 0.11672  0.15520  0.52944  Biso   1.000  C
  C36      1.0000 0.18519  0.20620  0.51417  Biso   1.000  C
  C37      1.0000 0.20919  0.15990  0.45794  Biso   1.000  C
  H22      1.0000 0.18200  0.09900  0.43200  Biso   1.000  H
  C38      1.0000 0.23080  0.29900  0.55370  Biso   1.000  C
  N5       1.0000 0.20580  0.35660  0.61210  Biso   1.000  N
  H23      1.0000 0.17000  0.33500  0.62800  Biso   1.000  H
  H24      1.0000 0.21800  0.42700  0.62400  Biso   1.000  H
  N6       1.0000 0.16660  0.79040  0.73700  Biso   1.000  N
  H25      1.0000 0.19000  0.80300  0.78420  Biso   1.000  H
  H26      1.0000 0.13200  0.84400  0.72300  Biso   1.000  H
  O13      1.0000 0.07595  0.89380  0.61179  Biso   1.000  O
  O14      1.0000 0.07647  0.82360  0.50295  Biso   1.000  O
  O15      1.0000 0.41101  0.52150  0.66421  Biso   1.000  O
  O16      1.0000 0.40854  0.56920  0.77647  Biso   1.000  O
  O17      1.0000 0.07996  0.07290  0.49028  Biso   1.000  O
  O18      1.0000 0.09849  0.19460  0.58324  Biso   1.000  O
  Pr3      1.0000 0.99939  0.06544  0.60164  Biso   1.000  Pr
  C39      1.0000 0.22160  0.30100  0.55970  Biso   1.000  C
  H27      1.0000 0.20430  0.33400  0.59620  Biso   1.000  H
  C40      1.0000 0.60251  0.32840  0.57259  Biso   1.000  C
  C41      1.0000 0.66983  0.25350  0.61020  Biso   1.000  C
  C42      1.0000 0.70733  0.19800  0.56645  Biso   1.000  C
  H28      1.0000 0.68640  0.20180  0.51510  Biso   1.000  H
  C43      1.0000 0.77419  0.13800  0.59678  Biso   1.000  C
  H29      1.0000 0.79880  0.10290  0.56620  Biso   1.000  H
  C44      1.0000 0.80513  0.12970  0.67373  Biso   1.000  C
  C45      1.0000 0.76710  0.17970  0.71826  Biso   1.000  C
  H30      1.0000 0.78670  0.17090  0.76950  Biso   1.000  H
  C46      1.0000 0.69980  0.24310  0.68790  Biso   1.000  C
  C47      1.0000 0.88050  0.06980  0.70800  Biso   1.000  C
  C48      1.0000 0.61672  0.65520  0.52944  Biso   1.000  C
  C49      1.0000 0.68519  0.70620  0.51417  Biso   1.000  C
  C50      1.0000 0.70919  0.65990  0.45794  Biso   1.000  C
  H31      1.0000 0.68200  0.59900  0.43200  Biso   1.000  H
  C51      1.0000 0.73080  0.79900  0.55370  Biso   1.000  C
  N7       1.0000 0.70580  0.85660  0.61210  Biso   1.000  N
  H32      1.0000 0.67000  0.83500  0.62800  Biso   1.000  H
  H33      1.0000 0.71800  0.92700  0.62400  Biso   1.000  H
  N8       1.0000 0.66660  0.29040  0.73700  Biso   1.000  N
  H34      1.0000 0.69000  0.30300  0.78420  Biso   1.000  H
  H35      1.0000 0.63200  0.34400  0.72300  Biso   1.000  H
  O19      1.0000 0.57595  0.39380  0.61179  Biso   1.000  O
  O20      1.0000 0.57647  0.32360  0.50295  Biso   1.000  O
  O21      1.0000 0.91101  0.02150  0.66421  Biso   1.000  O
  O22      1.0000 0.90854  0.06920  0.77647  Biso   1.000  O
  O23      1.0000 0.57996  0.57290  0.49028  Biso   1.000  O
  O24      1.0000 0.59849  0.69460  0.58324  Biso   1.000  O
  Pr4      1.0000 0.49939  0.56544  0.60164  Biso   1.000  Pr
  C52      1.0000 0.72160  0.80100  0.55970  Biso   1.000  C
  H36      1.0000 0.70430  0.83400  0.59620  Biso   1.000  H
  C53      1.0000 0.10251  0.17160  0.07259  Biso   1.000  C
  C54      1.0000 0.16983  0.24650  0.11020  Biso   1.000  C
  C55      1.0000 0.20733  0.30200  0.06645  Biso   1.000  C
  H37      1.0000 0.18640  0.29820  0.01510  Biso   1.000  H
  C56      1.0000 0.27419  0.36200  0.09678  Biso   1.000  C
  H38      1.0000 0.29880  0.39710  0.06620  Biso   1.000  H
  C57      1.0000 0.30513  0.37030  0.17373  Biso   1.000  C
  C58      1.0000 0.26710  0.32030  0.21826  Biso   1.000  C
  H39      1.0000 0.28670  0.32910  0.26950  Biso   1.000  H
  C59      1.0000 0.19980  0.25690  0.18790  Biso   1.000  C
  C60      1.0000 0.38050  0.43020  0.20800  Biso   1.000  C
  C61      1.0000 0.11672  0.84480  0.02944  Biso   1.000  C
  C62      1.0000 0.18519  0.79380  0.01417  Biso   1.000  C
  C63      1.0000 0.20919  0.84010  0.95794  Biso   1.000  C
  H40      1.0000 0.18200  0.90100  0.93200  Biso   1.000  H
  C64      1.0000 0.23080  0.70100  0.05370  Biso   1.000  C
  N9       1.0000 0.20580  0.64340  0.11210  Biso   1.000  N
  H41      1.0000 0.17000  0.66500  0.12800  Biso   1.000  H
  H42      1.0000 0.21800  0.57300  0.12400  Biso   1.000  H
  N10      1.0000 0.16660  0.20960  0.23700  Biso   1.000  N
  H43      1.0000 0.19000  0.19700  0.28420  Biso   1.000  H
  H44      1.0000 0.13200  0.15600  0.22300  Biso   1.000  H
  O25      1.0000 0.07595  0.10620  0.11179  Biso   1.000  O
  O26      1.0000 0.07647  0.17640  0.00295  Biso   1.000  O
  O27      1.0000 0.41101  0.47850  0.16421  Biso   1.000  O
  O28      1.0000 0.40854  0.43080  0.27647  Biso   1.000  O
  O29      1.0000 0.07996  0.92710  0.99028  Biso   1.000  O
  O30      1.0000 0.09849  0.80540  0.08324  Biso   1.000  O
  Pr5      1.0000 0.99939  0.93456  0.10164  Biso   1.000  Pr
  C65      1.0000 0.22160  0.69900  0.05970  Biso   1.000  C
  H45      1.0000 0.20430  0.66600  0.09620  Biso   1.000  H
  C66      1.0000 0.60251  0.67160  0.07259  Biso   1.000  C
  C67      1.0000 0.66983  0.74650  0.11020  Biso   1.000  C
  C68      1.0000 0.70733  0.80200  0.06645  Biso   1.000  C
  H46      1.0000 0.68640  0.79820  0.01510  Biso   1.000  H
  C69      1.0000 0.77419  0.86200  0.09678  Biso   1.000  C
  H47      1.0000 0.79880  0.89710  0.06620  Biso   1.000  H
  C70      1.0000 0.80513  0.87030  0.17373  Biso   1.000  C
  C71      1.0000 0.76710  0.82030  0.21826  Biso   1.000  C
  H48      1.0000 0.78670  0.82910  0.26950  Biso   1.000  H
  C72      1.0000 0.69980  0.75690  0.18790  Biso   1.000  C
  C73      1.0000 0.88050  0.93020  0.20800  Biso   1.000  C
  C74      1.0000 0.61672  0.34480  0.02944  Biso   1.000  C
  C75      1.0000 0.68519  0.29380  0.01417  Biso   1.000  C
  C76      1.0000 0.70919  0.34010  0.95794  Biso   1.000  C
  H49      1.0000 0.68200  0.40100  0.93200  Biso   1.000  H
  C77      1.0000 0.73080  0.20100  0.05370  Biso   1.000  C
  N11      1.0000 0.70580  0.14340  0.11210  Biso   1.000  N
  H50      1.0000 0.67000  0.16500  0.12800  Biso   1.000  H
  H51      1.0000 0.71800  0.07300  0.12400  Biso   1.000  H
  N12      1.0000 0.66660  0.70960  0.23700  Biso   1.000  N
  H52      1.0000 0.69000  0.69700  0.28420  Biso   1.000  H
  H53      1.0000 0.63200  0.65600  0.22300  Biso   1.000  H
  O31      1.0000 0.57595  0.60620  0.11179  Biso   1.000  O
  O32      1.0000 0.57647  0.67640  0.00295  Biso   1.000  O
  O33      1.0000 0.91101  0.97850  0.16421  Biso   1.000  O
  O34      1.0000 0.90854  0.93080  0.27647  Biso   1.000  O
  O35      1.0000 0.57996  0.42710  0.99028  Biso   1.000  O
  O36      1.0000 0.59849  0.30540  0.08324  Biso   1.000  O
  Pr6      1.0000 0.49939  0.43456  0.10164  Biso   1.000  Pr
  C78      1.0000 0.72160  0.19900  0.05970  Biso   1.000  C
  H54      1.0000 0.70430  0.16600  0.09620  Biso   1.000  H
  C79      1.0000 0.89749  0.17160  0.42741  Biso   1.000  C
  C80      1.0000 0.83017  0.24650  0.38980  Biso   1.000  C
  C81      1.0000 0.79267  0.30200  0.43355  Biso   1.000  C
  H55      1.0000 0.81360  0.29820  0.48490  Biso   1.000  H
  C82      1.0000 0.72581  0.36200  0.40322  Biso   1.000  C
  H56      1.0000 0.70120  0.39710  0.43380  Biso   1.000  H
  C83      1.0000 0.69487  0.37030  0.32627  Biso   1.000  C
  C84      1.0000 0.73290  0.32030  0.28174  Biso   1.000  C
  H57      1.0000 0.71330  0.32910  0.23050  Biso   1.000  H
  C85      1.0000 0.80020  0.25690  0.31210  Biso   1.000  C
  C86      1.0000 0.61950  0.43020  0.29200  Biso   1.000  C
  C87      1.0000 0.88328  0.84480  0.47056  Biso   1.000  C
  C88      1.0000 0.81481  0.79380  0.48583  Biso   1.000  C
  C89      1.0000 0.79081  0.84010  0.54206  Biso   1.000  C
  H58      1.0000 0.81800  0.90100  0.56800  Biso   1.000  H
  C90      1.0000 0.76920  0.70100  0.44630  Biso   1.000  C
  N13      1.0000 0.79420  0.64340  0.38790  Biso   1.000  N
  H59      1.0000 0.83000  0.66500  0.37200  Biso   1.000  H
  H60      1.0000 0.78200  0.57300  0.37600  Biso   1.000  H
  N14      1.0000 0.83340  0.20960  0.26300  Biso   1.000  N
  H61      1.0000 0.81000  0.19700  0.21580  Biso   1.000  H
  H62      1.0000 0.86800  0.15600  0.27700  Biso   1.000  H
  O37      1.0000 0.92405  0.10620  0.38821  Biso   1.000  O
  O38      1.0000 0.92353  0.17640  0.49705  Biso   1.000  O
  O39      1.0000 0.58899  0.47850  0.33579  Biso   1.000  O
  O40      1.0000 0.59146  0.43080  0.22353  Biso   1.000  O
  O41      1.0000 0.92004  0.92710  0.50972  Biso   1.000  O
  O42      1.0000 0.90151  0.80540  0.41676  Biso   1.000  O
  Pr7      1.0000 0.00061  0.93456  0.39836  Biso   1.000  Pr
  C91      1.0000 0.77840  0.69900  0.44030  Biso   1.000  C
  H63      1.0000 0.79570  0.66600  0.40380  Biso   1.000  H
  C92      1.0000 0.39749  0.67160  0.42741  Biso   1.000  C
  C93      1.0000 0.33017  0.74650  0.38980  Biso   1.000  C
  C94      1.0000 0.29267  0.80200  0.43355  Biso   1.000  C
  H64      1.0000 0.31360  0.79820  0.48490  Biso   1.000  H
  C95      1.0000 0.22581  0.86200  0.40322  Biso   1.000  C
  H65      1.0000 0.20120  0.89710  0.43380  Biso   1.000  H
  C96      1.0000 0.19487  0.87030  0.32627  Biso   1.000  C
  C97      1.0000 0.23290  0.82030  0.28174  Biso   1.000  C
  H66      1.0000 0.21330  0.82910  0.23050  Biso   1.000  H
  C98      1.0000 0.30020  0.75690  0.31210  Biso   1.000  C
  C99      1.0000 0.11950  0.93020  0.29200  Biso   1.000  C
  C100     1.0000 0.38328  0.34480  0.47056  Biso   1.000  C
  C101     1.0000 0.31481  0.29380  0.48583  Biso   1.000  C
  C102     1.0000 0.29081  0.34010  0.54206  Biso   1.000  C
  H67      1.0000 0.31800  0.40100  0.56800  Biso   1.000  H
  C103     1.0000 0.26920  0.20100  0.44630  Biso   1.000  C
  N15      1.0000 0.29420  0.14340  0.38790  Biso   1.000  N
  H68      1.0000 0.33000  0.16500  0.37200  Biso   1.000  H
  H69      1.0000 0.28200  0.07300  0.37600  Biso   1.000  H
  N16      1.0000 0.33340  0.70960  0.26300  Biso   1.000  N
  H70      1.0000 0.31000  0.69700  0.21580  Biso   1.000  H
  H71      1.0000 0.36800  0.65600  0.27700  Biso   1.000  H
  O43      1.0000 0.42405  0.60620  0.38821  Biso   1.000  O
  O44      1.0000 0.42353  0.67640  0.49705  Biso   1.000  O
  O45      1.0000 0.08899  0.97850  0.33579  Biso   1.000  O
  O46      1.0000 0.09146  0.93080  0.22353  Biso   1.000  O
  O47      1.0000 0.42004  0.42710  0.50972  Biso   1.000  O
  O48      1.0000 0.40151  0.30540  0.41676  Biso   1.000  O
  Pr8      1.0000 0.50061  0.43456  0.39836  Biso   1.000  Pr
  C104     1.0000 0.27840  0.19900  0.44030  Biso   1.000  C
  H72      1.0000 0.29570  0.16600  0.40380  Biso   1.000  H
