data_image0
_cell_length_a       18.3154
_cell_length_b       11.3943
_cell_length_c       18.8609
_cell_angle_alpha    90
_cell_angle_beta     108.576
_cell_angle_gamma    90

_symmetry_space_group_name_H-M    "P 1"
_symmetry_int_tables_number       1

loop_
  _symmetry_equiv_pos_as_xyz
  'x, y, z'

loop_
  _atom_site_label
  _atom_site_occupancy
  _atom_site_fract_x
  _atom_site_fract_y
  _atom_site_fract_z
  _atom_site_thermal_displace_type
  _atom_site_B_iso_or_equiv
  _atom_site_type_symbol
  C1       1.0000 0.89710  0.83590  0.92860  Biso   1.000  C
  C2       1.0000 0.83040  0.75850  0.89050  Biso   1.000  C
  C3       1.0000 0.79360  0.70140  0.93440  Biso   1.000  C
  H1       1.0000 0.81500  0.70470  0.98620  Biso   1.000  H
  C4       1.0000 0.72630  0.63990  0.90350  Biso   1.000  C
  H2       1.0000 0.70220  0.60360  0.93410  Biso   1.000  H
  C5       1.0000 0.69450  0.63240  0.82610  Biso   1.000  C
  C6       1.0000 0.73260  0.68300  0.78130  Biso   1.000  C
  H3       1.0000 0.71300  0.67410  0.72960  Biso   1.000  H
  C7       1.0000 0.80030  0.74760  0.81270  Biso   1.000  C
  C8       1.0000 0.61810  0.57340  0.79150  Biso   1.000  C
  C9       1.0000 0.88500  0.14890  0.97590  Biso   1.000  C
  C10      1.0000 0.81580  0.20400  0.98820  Biso   1.000  C
  C11      1.0000 0.78950  0.15950  0.04380  Biso   1.000  C
  H4       1.0000 0.81600  0.10400  0.07100  Biso   1.000  H
  C12      1.0000 0.78300  0.30400  0.94600  Biso   1.000  C
  N1       1.0000 0.79980  0.35360  0.89040  Biso   1.000  N
  H5       1.0000 0.83500  0.32200  0.87700  Biso   1.000  H
  H6       1.0000 0.79400  0.42500  0.87700  Biso   1.000  H
  N2       1.0000 0.83300  0.79550  0.76240  Biso   1.000  N
  H7       1.0000 0.80800  0.80400  0.71500  Biso   1.000  H
  H8       1.0000 0.86500  0.85500  0.77500  Biso   1.000  H
  O1       1.0000 0.92136  0.90470  0.88906  Biso   1.000  O
  O2       1.0000 0.92447  0.82930  0.99838  Biso   1.000  O
  O3       1.0000 0.58688  0.52660  0.83554  Biso   1.000  O
  O4       1.0000 0.58991  0.57200  0.72214  Biso   1.000  O
  O5       1.0000 0.92176  0.07220  0.01931  Biso   1.000  O
  O6       1.0000 0.90333  0.18200  0.92017  Biso   1.000  O
  Gd1      1.0000 0.00083  0.06582  0.89725  Biso   1.000  Gd
  C13      1.0000 0.77000  0.29100  0.94200  Biso   1.000  C
  H9       1.0000 0.78210  0.31490  0.90000  Biso   1.000  H
  C14      1.0000 0.39710  0.33590  0.92860  Biso   1.000  C
  C15      1.0000 0.33040  0.25850  0.89050  Biso   1.000  C
  C16      1.0000 0.29360  0.20140  0.93440  Biso   1.000  C
  H10      1.0000 0.31500  0.20470  0.98620  Biso   1.000  H
  C17      1.0000 0.22630  0.13990  0.90350  Biso   1.000  C
  H11      1.0000 0.20220  0.10360  0.93410  Biso   1.000  H
  C18      1.0000 0.19450  0.13240  0.82610  Biso   1.000  C
  C19      1.0000 0.23260  0.18300  0.78130  Biso   1.000  C
  H12      1.0000 0.21300  0.17410  0.72960  Biso   1.000  H
  C20      1.0000 0.30030  0.24760  0.81270  Biso   1.000  C
  C21      1.0000 0.11810  0.07340  0.79150  Biso   1.000  C
  C22      1.0000 0.38500  0.64890  0.97590  Biso   1.000  C
  C23      1.0000 0.31580  0.70400  0.98820  Biso   1.000  C
  C24      1.0000 0.28950  0.65950  0.04380  Biso   1.000  C
  H13      1.0000 0.31600  0.60400  0.07100  Biso   1.000  H
  C25      1.0000 0.28300  0.80400  0.94600  Biso   1.000  C
  N3       1.0000 0.29980  0.85360  0.89040  Biso   1.000  N
  H14      1.0000 0.33500  0.82200  0.87700  Biso   1.000  H
  H15      1.0000 0.29400  0.92500  0.87700  Biso   1.000  H
  N4       1.0000 0.33300  0.29550  0.76240  Biso   1.000  N
  H16      1.0000 0.30800  0.30400  0.71500  Biso   1.000  H
  H17      1.0000 0.36500  0.35500  0.77500  Biso   1.000  H
  O7       1.0000 0.42136  0.40470  0.88906  Biso   1.000  O
  O8       1.0000 0.42447  0.32930  0.99838  Biso   1.000  O
  O9       1.0000 0.08688  0.02660  0.83554  Biso   1.000  O
  O10      1.0000 0.08991  0.07200  0.72214  Biso   1.000  O
  O11      1.0000 0.42176  0.57220  0.01931  Biso   1.000  O
  O12      1.0000 0.40333  0.68200  0.92017  Biso   1.000  O
  Gd2      1.0000 0.50083  0.56582  0.89725  Biso   1.000  Gd
  C26      1.0000 0.27000  0.79100  0.94200  Biso   1.000  C
  H18      1.0000 0.28210  0.81490  0.90000  Biso   1.000  H
  C27      1.0000 0.10290  0.83590  0.57140  Biso   1.000  C
  C28      1.0000 0.16960  0.75850  0.60950  Biso   1.000  C
  C29      1.0000 0.20640  0.70140  0.56560  Biso   1.000  C
  H19      1.0000 0.18500  0.70470  0.51380  Biso   1.000  H
  C30      1.0000 0.27370  0.63990  0.59650  Biso   1.000  C
  H20      1.0000 0.29780  0.60360  0.56590  Biso   1.000  H
  C31      1.0000 0.30550  0.63240  0.67390  Biso   1.000  C
  C32      1.0000 0.26740  0.68300  0.71870  Biso   1.000  C
  H21      1.0000 0.28700  0.67410  0.77040  Biso   1.000  H
  C33      1.0000 0.19970  0.74760  0.68730  Biso   1.000  C
  C34      1.0000 0.38190  0.57340  0.70850  Biso   1.000  C
  C35      1.0000 0.11500  0.14890  0.52410  Biso   1.000  C
  C36      1.0000 0.18420  0.20400  0.51180  Biso   1.000  C
  C37      1.0000 0.21050  0.15950  0.45620  Biso   1.000  C
  H22      1.0000 0.18400  0.10400  0.42900  Biso   1.000  H
  C38      1.0000 0.21700  0.30400  0.55400  Biso   1.000  C
  N5       1.0000 0.20020  0.35360  0.60960  Biso   1.000  N
  H23      1.0000 0.16500  0.32200  0.62300  Biso   1.000  H
  H24      1.0000 0.20600  0.42500  0.62300  Biso   1.000  H
  N6       1.0000 0.16700  0.79550  0.73760  Biso   1.000  N
  H25      1.0000 0.19200  0.80400  0.78500  Biso   1.000  H
  H26      1.0000 0.13500  0.85500  0.72500  Biso   1.000  H
  O13      1.0000 0.07864  0.90470  0.61094  Biso   1.000  O
  O14      1.0000 0.07553  0.82930  0.50162  Biso   1.000  O
  O15      1.0000 0.41312  0.52660  0.66446  Biso   1.000  O
  O16      1.0000 0.41009  0.57200  0.77786  Biso   1.000  O
  O17      1.0000 0.07824  0.07220  0.48069  Biso   1.000  O
  O18      1.0000 0.09667  0.18200  0.57983  Biso   1.000  O
  Gd3      1.0000 0.99917  0.06582  0.60275  Biso   1.000  Gd
  C39      1.0000 0.23000  0.29100  0.55800  Biso   1.000  C
  H27      1.0000 0.21790  0.31490  0.60000  Biso   1.000  H
  C40      1.0000 0.60290  0.33590  0.57140  Biso   1.000  C
  C41      1.0000 0.66960  0.25850  0.60950  Biso   1.000  C
  C42      1.0000 0.70640  0.20140  0.56560  Biso   1.000  C
  H28      1.0000 0.68500  0.20470  0.51380  Biso   1.000  H
  C43      1.0000 0.77370  0.13990  0.59650  Biso   1.000  C
  H29      1.0000 0.79780  0.10360  0.56590  Biso   1.000  H
  C44      1.0000 0.80550  0.13240  0.67390  Biso   1.000  C
  C45      1.0000 0.76740  0.18300  0.71870  Biso   1.000  C
  H30      1.0000 0.78700  0.17410  0.77040  Biso   1.000  H
  C46      1.0000 0.69970  0.24760  0.68730  Biso   1.000  C
  C47      1.0000 0.88190  0.07340  0.70850  Biso   1.000  C
  C48      1.0000 0.61500  0.64890  0.52410  Biso   1.000  C
  C49      1.0000 0.68420  0.70400  0.51180  Biso   1.000  C
  C50      1.0000 0.71050  0.65950  0.45620  Biso   1.000  C
  H31      1.0000 0.68400  0.60400  0.42900  Biso   1.000  H
  C51      1.0000 0.71700  0.80400  0.55400  Biso   1.000  C
  N7       1.0000 0.70020  0.85360  0.60960  Biso   1.000  N
  H32      1.0000 0.66500  0.82200  0.62300  Biso   1.000  H
  H33      1.0000 0.70600  0.92500  0.62300  Biso   1.000  H
  N8       1.0000 0.66700  0.29550  0.73760  Biso   1.000  N
  H34      1.0000 0.69200  0.30400  0.78500  Biso   1.000  H
  H35      1.0000 0.63500  0.35500  0.72500  Biso   1.000  H
  O19      1.0000 0.57864  0.40470  0.61094  Biso   1.000  O
  O20      1.0000 0.57553  0.32930  0.50162  Biso   1.000  O
  O21      1.0000 0.91312  0.02660  0.66446  Biso   1.000  O
  O22      1.0000 0.91009  0.07200  0.77786  Biso   1.000  O
  O23      1.0000 0.57824  0.57220  0.48069  Biso   1.000  O
  O24      1.0000 0.59667  0.68200  0.57983  Biso   1.000  O
  Gd4      1.0000 0.49917  0.56582  0.60275  Biso   1.000  Gd
  C52      1.0000 0.73000  0.79100  0.55800  Biso   1.000  C
  H36      1.0000 0.71790  0.81490  0.60000  Biso   1.000  H
  C53      1.0000 0.10290  0.16410  0.07140  Biso   1.000  C
  C54      1.0000 0.16960  0.24150  0.10950  Biso   1.000  C
  C55      1.0000 0.20640  0.29860  0.06560  Biso   1.000  C
  H37      1.0000 0.18500  0.29530  0.01380  Biso   1.000  H
  C56      1.0000 0.27370  0.36010  0.09650  Biso   1.000  C
  H38      1.0000 0.29780  0.39640  0.06590  Biso   1.000  H
  C57      1.0000 0.30550  0.36760  0.17390  Biso   1.000  C
  C58      1.0000 0.26740  0.31700  0.21870  Biso   1.000  C
  H39      1.0000 0.28700  0.32590  0.27040  Biso   1.000  H
  C59      1.0000 0.19970  0.25240  0.18730  Biso   1.000  C
  C60      1.0000 0.38190  0.42660  0.20850  Biso   1.000  C
  C61      1.0000 0.11500  0.85110  0.02410  Biso   1.000  C
  C62      1.0000 0.18420  0.79600  0.01180  Biso   1.000  C
  C63      1.0000 0.21050  0.84050  0.95620  Biso   1.000  C
  H40      1.0000 0.18400  0.89600  0.92900  Biso   1.000  H
  C64      1.0000 0.21700  0.69600  0.05400  Biso   1.000  C
  N9       1.0000 0.20020  0.64640  0.10960  Biso   1.000  N
  H41      1.0000 0.16500  0.67800  0.12300  Biso   1.000  H
  H42      1.0000 0.20600  0.57500  0.12300  Biso   1.000  H
  N10      1.0000 0.16700  0.20450  0.23760  Biso   1.000  N
  H43      1.0000 0.19200  0.19600  0.28500  Biso   1.000  H
  H44      1.0000 0.13500  0.14500  0.22500  Biso   1.000  H
  O25      1.0000 0.07864  0.09530  0.11094  Biso   1.000  O
  O26      1.0000 0.07553  0.17070  0.00162  Biso   1.000  O
  O27      1.0000 0.41312  0.47340  0.16446  Biso   1.000  O
  O28      1.0000 0.41009  0.42800  0.27786  Biso   1.000  O
  O29      1.0000 0.07824  0.92780  0.98069  Biso   1.000  O
  O30      1.0000 0.09667  0.81800  0.07983  Biso   1.000  O
  Gd5      1.0000 0.99917  0.93418  0.10275  Biso   1.000  Gd
  C65      1.0000 0.23000  0.70900  0.05800  Biso   1.000  C
  H45      1.0000 0.21790  0.68510  0.10000  Biso   1.000  H
  C66      1.0000 0.60290  0.66410  0.07140  Biso   1.000  C
  C67      1.0000 0.66960  0.74150  0.10950  Biso   1.000  C
  C68      1.0000 0.70640  0.79860  0.06560  Biso   1.000  C
  H46      1.0000 0.68500  0.79530  0.01380  Biso   1.000  H
  C69      1.0000 0.77370  0.86010  0.09650  Biso   1.000  C
  H47      1.0000 0.79780  0.89640  0.06590  Biso   1.000  H
  C70      1.0000 0.80550  0.86760  0.17390  Biso   1.000  C
  C71      1.0000 0.76740  0.81700  0.21870  Biso   1.000  C
  H48      1.0000 0.78700  0.82590  0.27040  Biso   1.000  H
  C72      1.0000 0.69970  0.75240  0.18730  Biso   1.000  C
  C73      1.0000 0.88190  0.92660  0.20850  Biso   1.000  C
  C74      1.0000 0.61500  0.35110  0.02410  Biso   1.000  C
  C75      1.0000 0.68420  0.29600  0.01180  Biso   1.000  C
  C76      1.0000 0.71050  0.34050  0.95620  Biso   1.000  C
  H49      1.0000 0.68400  0.39600  0.92900  Biso   1.000  H
  C77      1.0000 0.71700  0.19600  0.05400  Biso   1.000  C
  N11      1.0000 0.70020  0.14640  0.10960  Biso   1.000  N
  H50      1.0000 0.66500  0.17800  0.12300  Biso   1.000  H
  H51      1.0000 0.70600  0.07500  0.12300  Biso   1.000  H
  N12      1.0000 0.66700  0.70450  0.23760  Biso   1.000  N
  H52      1.0000 0.69200  0.69600  0.28500  Biso   1.000  H
  H53      1.0000 0.63500  0.64500  0.22500  Biso   1.000  H
  O31      1.0000 0.57864  0.59530  0.11094  Biso   1.000  O
  O32      1.0000 0.57553  0.67070  0.00162  Biso   1.000  O
  O33      1.0000 0.91312  0.97340  0.16446  Biso   1.000  O
  O34      1.0000 0.91009  0.92800  0.27786  Biso   1.000  O
  O35      1.0000 0.57824  0.42780  0.98069  Biso   1.000  O
  O36      1.0000 0.59667  0.31800  0.07983  Biso   1.000  O
  Gd6      1.0000 0.49917  0.43418  0.10275  Biso   1.000  Gd
  C78      1.0000 0.73000  0.20900  0.05800  Biso   1.000  C
  H54      1.0000 0.71790  0.18510  0.10000  Biso   1.000  H
  C79      1.0000 0.89710  0.16410  0.42860  Biso   1.000  C
  C80      1.0000 0.83040  0.24150  0.39050  Biso   1.000  C
  C81      1.0000 0.79360  0.29860  0.43440  Biso   1.000  C
  H55      1.0000 0.81500  0.29530  0.48620  Biso   1.000  H
  C82      1.0000 0.72630  0.36010  0.40350  Biso   1.000  C
  H56      1.0000 0.70220  0.39640  0.43410  Biso   1.000  H
  C83      1.0000 0.69450  0.36760  0.32610  Biso   1.000  C
  C84      1.0000 0.73260  0.31700  0.28130  Biso   1.000  C
  H57      1.0000 0.71300  0.32590  0.22960  Biso   1.000  H
  C85      1.0000 0.80030  0.25240  0.31270  Biso   1.000  C
  C86      1.0000 0.61810  0.42660  0.29150  Biso   1.000  C
  C87      1.0000 0.88500  0.85110  0.47590  Biso   1.000  C
  C88      1.0000 0.81580  0.79600  0.48820  Biso   1.000  C
  C89      1.0000 0.78950  0.84050  0.54380  Biso   1.000  C
  H58      1.0000 0.81600  0.89600  0.57100  Biso   1.000  H
  C90      1.0000 0.78300  0.69600  0.44600  Biso   1.000  C
  N13      1.0000 0.79980  0.64640  0.39040  Biso   1.000  N
  H59      1.0000 0.83500  0.67800  0.37700  Biso   1.000  H
  H60      1.0000 0.79400  0.57500  0.37700  Biso   1.000  H
  N14      1.0000 0.83300  0.20450  0.26240  Biso   1.000  N
  H61      1.0000 0.80800  0.19600  0.21500  Biso   1.000  H
  H62      1.0000 0.86500  0.14500  0.27500  Biso   1.000  H
  O37      1.0000 0.92136  0.09530  0.38906  Biso   1.000  O
  O38      1.0000 0.92447  0.17070  0.49838  Biso   1.000  O
  O39      1.0000 0.58688  0.47340  0.33554  Biso   1.000  O
  O40      1.0000 0.58991  0.42800  0.22214  Biso   1.000  O
  O41      1.0000 0.92176  0.92780  0.51931  Biso   1.000  O
  O42      1.0000 0.90333  0.81800  0.42017  Biso   1.000  O
  Gd7      1.0000 0.00083  0.93418  0.39725  Biso   1.000  Gd
  C91      1.0000 0.77000  0.70900  0.44200  Biso   1.000  C
  H63      1.0000 0.78210  0.68510  0.40000  Biso   1.000  H
  C92      1.0000 0.39710  0.66410  0.42860  Biso   1.000  C
  C93      1.0000 0.33040  0.74150  0.39050  Biso   1.000  C
  C94      1.0000 0.29360  0.79860  0.43440  Biso   1.000  C
  H64      1.0000 0.31500  0.79530  0.48620  Biso   1.000  H
  C95      1.0000 0.22630  0.86010  0.40350  Biso   1.000  C
  H65      1.0000 0.20220  0.89640  0.43410  Biso   1.000  H
  C96      1.0000 0.19450  0.86760  0.32610  Biso   1.000  C
  C97      1.0000 0.23260  0.81700  0.28130  Biso   1.000  C
  H66      1.0000 0.21300  0.82590  0.22960  Biso   1.000  H
  C98      1.0000 0.30030  0.75240  0.31270  Biso   1.000  C
  C99      1.0000 0.11810  0.92660  0.29150  Biso   1.000  C
  C100     1.0000 0.38500  0.35110  0.47590  Biso   1.000  C
  C101     1.0000 0.31580  0.29600  0.48820  Biso   1.000  C
  C102     1.0000 0.28950  0.34050  0.54380  Biso   1.000  C
  H67      1.0000 0.31600  0.39600  0.57100  Biso   1.000  H
  C103     1.0000 0.28300  0.19600  0.44600  Biso   1.000  C
  N15      1.0000 0.29980  0.14640  0.39040  Biso   1.000  N
  H68      1.0000 0.33500  0.17800  0.37700  Biso   1.000  H
  H69      1.0000 0.29400  0.07500  0.37700  Biso   1.000  H
  N16      1.0000 0.33300  0.70450  0.26240  Biso   1.000  N
  H70      1.0000 0.30800  0.69600  0.21500  Biso   1.000  H
  H71      1.0000 0.36500  0.64500  0.27500  Biso   1.000  H
  O43      1.0000 0.42136  0.59530  0.38906  Biso   1.000  O
  O44      1.0000 0.42447  0.67070  0.49838  Biso   1.000  O
  O45      1.0000 0.08688  0.97340  0.33554  Biso   1.000  O
  O46      1.0000 0.08991  0.92800  0.22214  Biso   1.000  O
  O47      1.0000 0.42176  0.42780  0.51931  Biso   1.000  O
  O48      1.0000 0.40333  0.31800  0.42017  Biso   1.000  O
  Gd8      1.0000 0.50083  0.43418  0.39725  Biso   1.000  Gd
  C104     1.0000 0.27000  0.20900  0.44200  Biso   1.000  C
  H72      1.0000 0.28210  0.18510  0.40000  Biso   1.000  H
