data_image0
_cell_length_a       25.0213
_cell_length_b       9.3011
_cell_length_c       15.9564
_cell_angle_alpha    90
_cell_angle_beta     109.683
_cell_angle_gamma    90

_symmetry_space_group_name_H-M    "P 1"
_symmetry_int_tables_number       1

loop_
  _symmetry_equiv_pos_as_xyz
  'x, y, z'

loop_
  _atom_site_label
  _atom_site_occupancy
  _atom_site_fract_x
  _atom_site_fract_y
  _atom_site_fract_z
  _atom_site_thermal_displace_type
  _atom_site_B_iso_or_equiv
  _atom_site_type_symbol
  N1       1.0000 0.01104  0.44690  0.02302  Biso   1.000  N
  N2       1.0000 0.17100  0.33070  0.01268  Biso   1.000  N
  N3       1.0000 0.01350  0.33650  0.24630  Biso   1.000  N
  O1       1.0000 0.06080  0.40430  0.25840  Biso   1.000  O
  O2       1.0000 0.02770  0.40180  0.24570  Biso   1.000  O
  O3       1.0000 0.01320  0.21190  0.22420  Biso   1.000  O
  C1       1.0000 0.15506  0.29900  0.08260  Biso   1.000  C
  H1       1.0000 0.18100  0.24890  0.13120  Biso   1.000  H
  C2       1.0000 0.10266  0.33550  0.08760  Biso   1.000  C
  H2       1.0000 0.09230  0.30880  0.13750  Biso   1.000  H
  C3       1.0000 0.06574  0.41240  0.01730  Biso   1.000  C
  C4       1.0000 0.08162  0.44890  0.94460  Biso   1.000  C
  H3       1.0000 0.05710  0.50260  0.89630  Biso   1.000  H
  C5       1.0000 0.13396  0.40460  0.94500  Biso   1.000  C
  H4       1.0000 0.14480  0.42720  0.89490  Biso   1.000  H
  Cl1      1.0000 0.09050  0.29680  0.17960  Biso   1.000  Cl
  N4       1.0000 0.51104  0.94690  0.02302  Biso   1.000  N
  N5       1.0000 0.67100  0.83070  0.01268  Biso   1.000  N
  N6       1.0000 0.51350  0.83650  0.24630  Biso   1.000  N
  O4       1.0000 0.56080  0.90430  0.25840  Biso   1.000  O
  O5       1.0000 0.52770  0.90180  0.24570  Biso   1.000  O
  O6       1.0000 0.51320  0.71190  0.22420  Biso   1.000  O
  C6       1.0000 0.65506  0.79900  0.08260  Biso   1.000  C
  H5       1.0000 0.68100  0.74890  0.13120  Biso   1.000  H
  C7       1.0000 0.60266  0.83550  0.08760  Biso   1.000  C
  H6       1.0000 0.59230  0.80880  0.13750  Biso   1.000  H
  C8       1.0000 0.56574  0.91240  0.01730  Biso   1.000  C
  C9       1.0000 0.58162  0.94890  0.94460  Biso   1.000  C
  H7       1.0000 0.55710  0.00260  0.89630  Biso   1.000  H
  C10      1.0000 0.63396  0.90460  0.94500  Biso   1.000  C
  H8       1.0000 0.64480  0.92720  0.89490  Biso   1.000  H
  Cl2      1.0000 0.59050  0.79680  0.17960  Biso   1.000  Cl
  N7       1.0000 0.98896  0.44690  0.47698  Biso   1.000  N
  N8       1.0000 0.82900  0.33070  0.48732  Biso   1.000  N
  N9       1.0000 0.98650  0.33650  0.25370  Biso   1.000  N
  O7       1.0000 0.93920  0.40430  0.24160  Biso   1.000  O
  O8       1.0000 0.97230  0.40180  0.25430  Biso   1.000  O
  O9       1.0000 0.98680  0.21190  0.27580  Biso   1.000  O
  C11      1.0000 0.84494  0.29900  0.41740  Biso   1.000  C
  H9       1.0000 0.81900  0.24890  0.36880  Biso   1.000  H
  C12      1.0000 0.89734  0.33550  0.41240  Biso   1.000  C
  H10      1.0000 0.90770  0.30880  0.36250  Biso   1.000  H
  C13      1.0000 0.93426  0.41240  0.48270  Biso   1.000  C
  C14      1.0000 0.91838  0.44890  0.55540  Biso   1.000  C
  H11      1.0000 0.94290  0.50260  0.60370  Biso   1.000  H
  C15      1.0000 0.86604  0.40460  0.55500  Biso   1.000  C
  H12      1.0000 0.85520  0.42720  0.60510  Biso   1.000  H
  Cl3      1.0000 0.90950  0.29680  0.32040  Biso   1.000  Cl
  N10      1.0000 0.48896  0.94690  0.47698  Biso   1.000  N
  N11      1.0000 0.32900  0.83070  0.48732  Biso   1.000  N
  N12      1.0000 0.48650  0.83650  0.25370  Biso   1.000  N
  O10      1.0000 0.43920  0.90430  0.24160  Biso   1.000  O
  O11      1.0000 0.47230  0.90180  0.25430  Biso   1.000  O
  O12      1.0000 0.48680  0.71190  0.27580  Biso   1.000  O
  C16      1.0000 0.34494  0.79900  0.41740  Biso   1.000  C
  H13      1.0000 0.31900  0.74890  0.36880  Biso   1.000  H
  C17      1.0000 0.39734  0.83550  0.41240  Biso   1.000  C
  H14      1.0000 0.40770  0.80880  0.36250  Biso   1.000  H
  C18      1.0000 0.43426  0.91240  0.48270  Biso   1.000  C
  C19      1.0000 0.41838  0.94890  0.55540  Biso   1.000  C
  H15      1.0000 0.44290  0.00260  0.60370  Biso   1.000  H
  C20      1.0000 0.36604  0.90460  0.55500  Biso   1.000  C
  H16      1.0000 0.35520  0.92720  0.60510  Biso   1.000  H
  Cl4      1.0000 0.40950  0.79680  0.32040  Biso   1.000  Cl
  N13      1.0000 0.98896  0.55310  0.97698  Biso   1.000  N
  N14      1.0000 0.82900  0.66930  0.98732  Biso   1.000  N
  N15      1.0000 0.98650  0.66350  0.75370  Biso   1.000  N
  O13      1.0000 0.93920  0.59570  0.74160  Biso   1.000  O
  O14      1.0000 0.97230  0.59820  0.75430  Biso   1.000  O
  O15      1.0000 0.98680  0.78810  0.77580  Biso   1.000  O
  C21      1.0000 0.84494  0.70100  0.91740  Biso   1.000  C
  H17      1.0000 0.81900  0.75110  0.86880  Biso   1.000  H
  C22      1.0000 0.89734  0.66450  0.91240  Biso   1.000  C
  H18      1.0000 0.90770  0.69120  0.86250  Biso   1.000  H
  C23      1.0000 0.93426  0.58760  0.98270  Biso   1.000  C
  C24      1.0000 0.91838  0.55110  0.05540  Biso   1.000  C
  H19      1.0000 0.94290  0.49740  0.10370  Biso   1.000  H
  C25      1.0000 0.86604  0.59540  0.05500  Biso   1.000  C
  H20      1.0000 0.85520  0.57280  0.10510  Biso   1.000  H
  Cl5      1.0000 0.90950  0.70320  0.82040  Biso   1.000  Cl
  N16      1.0000 0.48896  0.05310  0.97698  Biso   1.000  N
  N17      1.0000 0.32900  0.16930  0.98732  Biso   1.000  N
  N18      1.0000 0.48650  0.16350  0.75370  Biso   1.000  N
  O16      1.0000 0.43920  0.09570  0.74160  Biso   1.000  O
  O17      1.0000 0.47230  0.09820  0.75430  Biso   1.000  O
  O18      1.0000 0.48680  0.28810  0.77580  Biso   1.000  O
  C26      1.0000 0.34494  0.20100  0.91740  Biso   1.000  C
  H21      1.0000 0.31900  0.25110  0.86880  Biso   1.000  H
  C27      1.0000 0.39734  0.16450  0.91240  Biso   1.000  C
  H22      1.0000 0.40770  0.19120  0.86250  Biso   1.000  H
  C28      1.0000 0.43426  0.08760  0.98270  Biso   1.000  C
  C29      1.0000 0.41838  0.05110  0.05540  Biso   1.000  C
  H23      1.0000 0.44290  0.99740  0.10370  Biso   1.000  H
  C30      1.0000 0.36604  0.09540  0.05500  Biso   1.000  C
  H24      1.0000 0.35520  0.07280  0.10510  Biso   1.000  H
  Cl6      1.0000 0.40950  0.20320  0.82040  Biso   1.000  Cl
  N19      1.0000 0.01104  0.55310  0.52302  Biso   1.000  N
  N20      1.0000 0.17100  0.66930  0.51268  Biso   1.000  N
  N21      1.0000 0.01350  0.66350  0.74630  Biso   1.000  N
  O19      1.0000 0.06080  0.59570  0.75840  Biso   1.000  O
  O20      1.0000 0.02770  0.59820  0.74570  Biso   1.000  O
  O21      1.0000 0.01320  0.78810  0.72420  Biso   1.000  O
  C31      1.0000 0.15506  0.70100  0.58260  Biso   1.000  C
  H25      1.0000 0.18100  0.75110  0.63120  Biso   1.000  H
  C32      1.0000 0.10266  0.66450  0.58760  Biso   1.000  C
  H26      1.0000 0.09230  0.69120  0.63750  Biso   1.000  H
  C33      1.0000 0.06574  0.58760  0.51730  Biso   1.000  C
  C34      1.0000 0.08162  0.55110  0.44460  Biso   1.000  C
  H27      1.0000 0.05710  0.49740  0.39630  Biso   1.000  H
  C35      1.0000 0.13396  0.59540  0.44500  Biso   1.000  C
  H28      1.0000 0.14480  0.57280  0.39490  Biso   1.000  H
  Cl7      1.0000 0.09050  0.70320  0.67960  Biso   1.000  Cl
  N22      1.0000 0.51104  0.05310  0.52302  Biso   1.000  N
  N23      1.0000 0.67100  0.16930  0.51268  Biso   1.000  N
  N24      1.0000 0.51350  0.16350  0.74630  Biso   1.000  N
  O22      1.0000 0.56080  0.09570  0.75840  Biso   1.000  O
  O23      1.0000 0.52770  0.09820  0.74570  Biso   1.000  O
  O24      1.0000 0.51320  0.28810  0.72420  Biso   1.000  O
  C36      1.0000 0.65506  0.20100  0.58260  Biso   1.000  C
  H29      1.0000 0.68100  0.25110  0.63120  Biso   1.000  H
  C37      1.0000 0.60266  0.16450  0.58760  Biso   1.000  C
  H30      1.0000 0.59230  0.19120  0.63750  Biso   1.000  H
  C38      1.0000 0.56574  0.08760  0.51730  Biso   1.000  C
  C39      1.0000 0.58162  0.05110  0.44460  Biso   1.000  C
  H31      1.0000 0.55710  0.99740  0.39630  Biso   1.000  H
  C40      1.0000 0.63396  0.09540  0.44500  Biso   1.000  C
  H32      1.0000 0.64480  0.07280  0.39490  Biso   1.000  H
  Cl8      1.0000 0.59050  0.20320  0.67960  Biso   1.000  Cl
  Ag1      1.0000 0.25000  0.25000  0.00000  Biso   1.000  Ag
  Ag2      1.0000 0.75000  0.25000  0.50000  Biso   1.000  Ag
  Ag3      1.0000 0.75000  0.75000  0.00000  Biso   1.000  Ag
  Ag4      1.0000 0.25000  0.75000  0.50000  Biso   1.000  Ag
