data_image0
_cell_length_a       17.039
_cell_length_b       17.039
_cell_length_c       17.039
_cell_angle_alpha    90
_cell_angle_beta     90
_cell_angle_gamma    90

_symmetry_space_group_name_H-M    "P 1"
_symmetry_int_tables_number       1

loop_
  _symmetry_equiv_pos_as_xyz
  'x, y, z'

loop_
  _atom_site_label
  _atom_site_occupancy
  _atom_site_fract_x
  _atom_site_fract_y
  _atom_site_fract_z
  _atom_site_thermal_displace_type
  _atom_site_B_iso_or_equiv
  _atom_site_type_symbol
  N1       1.0000 0.03167  0.68257  0.41058  Biso   1.000  N
  C1       1.0000 0.10120  0.68680  0.36910  Biso   1.000  C
  H1       1.0000 0.14150  0.72250  0.37820  Biso   1.000  H
  H2       1.0000 0.91010  0.60340  0.46130  Biso   1.000  H
  H3       1.0000 0.90970  0.60440  0.46110  Biso   1.000  H
  N2       1.0000 0.53167  0.18257  0.91058  Biso   1.000  N
  C2       1.0000 0.60120  0.18680  0.86910  Biso   1.000  C
  H4       1.0000 0.64150  0.22250  0.87820  Biso   1.000  H
  H5       1.0000 0.41010  0.10340  0.96130  Biso   1.000  H
  H6       1.0000 0.40970  0.10440  0.96110  Biso   1.000  H
  N3       1.0000 0.96833  0.31743  0.41058  Biso   1.000  N
  C3       1.0000 0.89880  0.31320  0.36910  Biso   1.000  C
  H7       1.0000 0.85850  0.27750  0.37820  Biso   1.000  H
  H8       1.0000 0.08990  0.39660  0.46130  Biso   1.000  H
  H9       1.0000 0.09030  0.39560  0.46110  Biso   1.000  H
  N4       1.0000 0.46833  0.81743  0.91058  Biso   1.000  N
  C4       1.0000 0.39880  0.81320  0.86910  Biso   1.000  C
  H10      1.0000 0.35850  0.77750  0.87820  Biso   1.000  H
  H11      1.0000 0.58990  0.89660  0.96130  Biso   1.000  H
  H12      1.0000 0.59030  0.89560  0.96110  Biso   1.000  H
  N5       1.0000 0.96833  0.68257  0.58942  Biso   1.000  N
  C5       1.0000 0.89880  0.68680  0.63090  Biso   1.000  C
  H13      1.0000 0.85850  0.72250  0.62180  Biso   1.000  H
  H14      1.0000 0.08990  0.60340  0.53870  Biso   1.000  H
  H15      1.0000 0.09030  0.60440  0.53890  Biso   1.000  H
  N6       1.0000 0.46833  0.18257  0.08942  Biso   1.000  N
  C6       1.0000 0.39880  0.18680  0.13090  Biso   1.000  C
  H16      1.0000 0.35850  0.22250  0.12180  Biso   1.000  H
  H17      1.0000 0.58990  0.10340  0.03870  Biso   1.000  H
  H18      1.0000 0.59030  0.10440  0.03890  Biso   1.000  H
  N7       1.0000 0.03167  0.31743  0.58942  Biso   1.000  N
  C7       1.0000 0.10120  0.31320  0.63090  Biso   1.000  C
  H19      1.0000 0.14150  0.27750  0.62180  Biso   1.000  H
  H20      1.0000 0.91010  0.39660  0.53870  Biso   1.000  H
  H21      1.0000 0.90970  0.39560  0.53890  Biso   1.000  H
  N8       1.0000 0.53167  0.81743  0.08942  Biso   1.000  N
  C8       1.0000 0.60120  0.81320  0.13090  Biso   1.000  C
  H22      1.0000 0.64150  0.77750  0.12180  Biso   1.000  H
  H23      1.0000 0.41010  0.89660  0.03870  Biso   1.000  H
  H24      1.0000 0.40970  0.89560  0.03890  Biso   1.000  H
  N9       1.0000 0.41058  0.03167  0.68257  Biso   1.000  N
  C9       1.0000 0.36910  0.10120  0.68680  Biso   1.000  C
  H25      1.0000 0.37820  0.14150  0.72250  Biso   1.000  H
  H26      1.0000 0.46130  0.91010  0.60340  Biso   1.000  H
  H27      1.0000 0.46110  0.90970  0.60440  Biso   1.000  H
  N10      1.0000 0.91058  0.53167  0.18257  Biso   1.000  N
  C10      1.0000 0.86910  0.60120  0.18680  Biso   1.000  C
  H28      1.0000 0.87820  0.64150  0.22250  Biso   1.000  H
  H29      1.0000 0.96130  0.41010  0.10340  Biso   1.000  H
  H30      1.0000 0.96110  0.40970  0.10440  Biso   1.000  H
  N11      1.0000 0.41058  0.96833  0.31743  Biso   1.000  N
  C11      1.0000 0.36910  0.89880  0.31320  Biso   1.000  C
  H31      1.0000 0.37820  0.85850  0.27750  Biso   1.000  H
  H32      1.0000 0.46130  0.08990  0.39660  Biso   1.000  H
  H33      1.0000 0.46110  0.09030  0.39560  Biso   1.000  H
  N12      1.0000 0.91058  0.46833  0.81743  Biso   1.000  N
  C12      1.0000 0.86910  0.39880  0.81320  Biso   1.000  C
  H34      1.0000 0.87820  0.35850  0.77750  Biso   1.000  H
  H35      1.0000 0.96130  0.58990  0.89660  Biso   1.000  H
  H36      1.0000 0.96110  0.59030  0.89560  Biso   1.000  H
  N13      1.0000 0.58942  0.96833  0.68257  Biso   1.000  N
  C13      1.0000 0.63090  0.89880  0.68680  Biso   1.000  C
  H37      1.0000 0.62180  0.85850  0.72250  Biso   1.000  H
  H38      1.0000 0.53870  0.08990  0.60340  Biso   1.000  H
  H39      1.0000 0.53890  0.09030  0.60440  Biso   1.000  H
  N14      1.0000 0.08942  0.46833  0.18257  Biso   1.000  N
  C14      1.0000 0.13090  0.39880  0.18680  Biso   1.000  C
  H40      1.0000 0.12180  0.35850  0.22250  Biso   1.000  H
  H41      1.0000 0.03870  0.58990  0.10340  Biso   1.000  H
  H42      1.0000 0.03890  0.59030  0.10440  Biso   1.000  H
  N15      1.0000 0.58942  0.03167  0.31743  Biso   1.000  N
  C15      1.0000 0.63090  0.10120  0.31320  Biso   1.000  C
  H43      1.0000 0.62180  0.14150  0.27750  Biso   1.000  H
  H44      1.0000 0.53870  0.91010  0.39660  Biso   1.000  H
  H45      1.0000 0.53890  0.90970  0.39560  Biso   1.000  H
  N16      1.0000 0.08942  0.53167  0.81743  Biso   1.000  N
  C16      1.0000 0.13090  0.60120  0.81320  Biso   1.000  C
  H46      1.0000 0.12180  0.64150  0.77750  Biso   1.000  H
  H47      1.0000 0.03870  0.41010  0.89660  Biso   1.000  H
  H48      1.0000 0.03890  0.40970  0.89560  Biso   1.000  H
  N17      1.0000 0.68257  0.41058  0.03167  Biso   1.000  N
  C17      1.0000 0.68680  0.36910  0.10120  Biso   1.000  C
  H49      1.0000 0.72250  0.37820  0.14150  Biso   1.000  H
  H50      1.0000 0.60340  0.46130  0.91010  Biso   1.000  H
  H51      1.0000 0.60440  0.46110  0.90970  Biso   1.000  H
  N18      1.0000 0.18257  0.91058  0.53167  Biso   1.000  N
  C18      1.0000 0.18680  0.86910  0.60120  Biso   1.000  C
  H52      1.0000 0.22250  0.87820  0.64150  Biso   1.000  H
  H53      1.0000 0.10340  0.96130  0.41010  Biso   1.000  H
  H54      1.0000 0.10440  0.96110  0.40970  Biso   1.000  H
  N19      1.0000 0.31743  0.41058  0.96833  Biso   1.000  N
  C19      1.0000 0.31320  0.36910  0.89880  Biso   1.000  C
  H55      1.0000 0.27750  0.37820  0.85850  Biso   1.000  H
  H56      1.0000 0.39660  0.46130  0.08990  Biso   1.000  H
  H57      1.0000 0.39560  0.46110  0.09030  Biso   1.000  H
  N20      1.0000 0.81743  0.91058  0.46833  Biso   1.000  N
  C20      1.0000 0.81320  0.86910  0.39880  Biso   1.000  C
  H58      1.0000 0.77750  0.87820  0.35850  Biso   1.000  H
  H59      1.0000 0.89660  0.96130  0.58990  Biso   1.000  H
  H60      1.0000 0.89560  0.96110  0.59030  Biso   1.000  H
  N21      1.0000 0.68257  0.58942  0.96833  Biso   1.000  N
  C21      1.0000 0.68680  0.63090  0.89880  Biso   1.000  C
  H61      1.0000 0.72250  0.62180  0.85850  Biso   1.000  H
  H62      1.0000 0.60340  0.53870  0.08990  Biso   1.000  H
  H63      1.0000 0.60440  0.53890  0.09030  Biso   1.000  H
  N22      1.0000 0.18257  0.08942  0.46833  Biso   1.000  N
  C22      1.0000 0.18680  0.13090  0.39880  Biso   1.000  C
  H64      1.0000 0.22250  0.12180  0.35850  Biso   1.000  H
  H65      1.0000 0.10340  0.03870  0.58990  Biso   1.000  H
  H66      1.0000 0.10440  0.03890  0.59030  Biso   1.000  H
  N23      1.0000 0.31743  0.58942  0.03167  Biso   1.000  N
  C23      1.0000 0.31320  0.63090  0.10120  Biso   1.000  C
  H67      1.0000 0.27750  0.62180  0.14150  Biso   1.000  H
  H68      1.0000 0.39660  0.53870  0.91010  Biso   1.000  H
  H69      1.0000 0.39560  0.53890  0.90970  Biso   1.000  H
  N24      1.0000 0.81743  0.08942  0.53167  Biso   1.000  N
  C24      1.0000 0.81320  0.13090  0.60120  Biso   1.000  C
  H70      1.0000 0.77750  0.12180  0.64150  Biso   1.000  H
  H71      1.0000 0.89660  0.03870  0.41010  Biso   1.000  H
  H72      1.0000 0.89560  0.03890  0.40970  Biso   1.000  H
  N25      1.0000 0.68257  0.03167  0.41058  Biso   1.000  N
  C25      1.0000 0.68680  0.10120  0.36910  Biso   1.000  C
  H73      1.0000 0.72250  0.14150  0.37820  Biso   1.000  H
  H74      1.0000 0.60340  0.91010  0.46130  Biso   1.000  H
  H75      1.0000 0.60440  0.90970  0.46110  Biso   1.000  H
  N26      1.0000 0.18257  0.53167  0.91058  Biso   1.000  N
  C26      1.0000 0.18680  0.60120  0.86910  Biso   1.000  C
  H76      1.0000 0.22250  0.64150  0.87820  Biso   1.000  H
  H77      1.0000 0.10340  0.41010  0.96130  Biso   1.000  H
  H78      1.0000 0.10440  0.40970  0.96110  Biso   1.000  H
  N27      1.0000 0.31743  0.96833  0.41058  Biso   1.000  N
  C27      1.0000 0.31320  0.89880  0.36910  Biso   1.000  C
  H79      1.0000 0.27750  0.85850  0.37820  Biso   1.000  H
  H80      1.0000 0.39660  0.08990  0.46130  Biso   1.000  H
  H81      1.0000 0.39560  0.09030  0.46110  Biso   1.000  H
  N28      1.0000 0.81743  0.46833  0.91058  Biso   1.000  N
  C28      1.0000 0.81320  0.39880  0.86910  Biso   1.000  C
  H82      1.0000 0.77750  0.35850  0.87820  Biso   1.000  H
  H83      1.0000 0.89660  0.58990  0.96130  Biso   1.000  H
  H84      1.0000 0.89560  0.59030  0.96110  Biso   1.000  H
  N29      1.0000 0.68257  0.96833  0.58942  Biso   1.000  N
  C29      1.0000 0.68680  0.89880  0.63090  Biso   1.000  C
  H85      1.0000 0.72250  0.85850  0.62180  Biso   1.000  H
  H86      1.0000 0.60340  0.08990  0.53870  Biso   1.000  H
  H87      1.0000 0.60440  0.09030  0.53890  Biso   1.000  H
  N30      1.0000 0.18257  0.46833  0.08942  Biso   1.000  N
  C30      1.0000 0.18680  0.39880  0.13090  Biso   1.000  C
  H88      1.0000 0.22250  0.35850  0.12180  Biso   1.000  H
  H89      1.0000 0.10340  0.58990  0.03870  Biso   1.000  H
  H90      1.0000 0.10440  0.59030  0.03890  Biso   1.000  H
  N31      1.0000 0.31743  0.03167  0.58942  Biso   1.000  N
  C31      1.0000 0.31320  0.10120  0.63090  Biso   1.000  C
  H91      1.0000 0.27750  0.14150  0.62180  Biso   1.000  H
  H92      1.0000 0.39660  0.91010  0.53870  Biso   1.000  H
  H93      1.0000 0.39560  0.90970  0.53890  Biso   1.000  H
  N32      1.0000 0.81743  0.53167  0.08942  Biso   1.000  N
  C32      1.0000 0.81320  0.60120  0.13090  Biso   1.000  C
  H94      1.0000 0.77750  0.64150  0.12180  Biso   1.000  H
  H95      1.0000 0.89660  0.41010  0.03870  Biso   1.000  H
  H96      1.0000 0.89560  0.40970  0.03890  Biso   1.000  H
  N33      1.0000 0.03167  0.41058  0.68257  Biso   1.000  N
  C33      1.0000 0.10120  0.36910  0.68680  Biso   1.000  C
  H97      1.0000 0.14150  0.37820  0.72250  Biso   1.000  H
  H98      1.0000 0.91010  0.46130  0.60340  Biso   1.000  H
  H99      1.0000 0.90970  0.46110  0.60440  Biso   1.000  H
  N34      1.0000 0.53167  0.91058  0.18257  Biso   1.000  N
  C34      1.0000 0.60120  0.86910  0.18680  Biso   1.000  C
  H100     1.0000 0.64150  0.87820  0.22250  Biso   1.000  H
  H101     1.0000 0.41010  0.96130  0.10340  Biso   1.000  H
  H102     1.0000 0.40970  0.96110  0.10440  Biso   1.000  H
  N35      1.0000 0.96833  0.41058  0.31743  Biso   1.000  N
  C35      1.0000 0.89880  0.36910  0.31320  Biso   1.000  C
  H103     1.0000 0.85850  0.37820  0.27750  Biso   1.000  H
  H104     1.0000 0.08990  0.46130  0.39660  Biso   1.000  H
  H105     1.0000 0.09030  0.46110  0.39560  Biso   1.000  H
  N36      1.0000 0.46833  0.91058  0.81743  Biso   1.000  N
  C36      1.0000 0.39880  0.86910  0.81320  Biso   1.000  C
  H106     1.0000 0.35850  0.87820  0.77750  Biso   1.000  H
  H107     1.0000 0.58990  0.96130  0.89660  Biso   1.000  H
  H108     1.0000 0.59030  0.96110  0.89560  Biso   1.000  H
  N37      1.0000 0.96833  0.58942  0.68257  Biso   1.000  N
  C37      1.0000 0.89880  0.63090  0.68680  Biso   1.000  C
  H109     1.0000 0.85850  0.62180  0.72250  Biso   1.000  H
  H110     1.0000 0.08990  0.53870  0.60340  Biso   1.000  H
  H111     1.0000 0.09030  0.53890  0.60440  Biso   1.000  H
  N38      1.0000 0.46833  0.08942  0.18257  Biso   1.000  N
  C38      1.0000 0.39880  0.13090  0.18680  Biso   1.000  C
  H112     1.0000 0.35850  0.12180  0.22250  Biso   1.000  H
  H113     1.0000 0.58990  0.03870  0.10340  Biso   1.000  H
  H114     1.0000 0.59030  0.03890  0.10440  Biso   1.000  H
  N39      1.0000 0.03167  0.58942  0.31743  Biso   1.000  N
  C39      1.0000 0.10120  0.63090  0.31320  Biso   1.000  C
  H115     1.0000 0.14150  0.62180  0.27750  Biso   1.000  H
  H116     1.0000 0.91010  0.53870  0.39660  Biso   1.000  H
  H117     1.0000 0.90970  0.53890  0.39560  Biso   1.000  H
  N40      1.0000 0.53167  0.08942  0.81743  Biso   1.000  N
  C40      1.0000 0.60120  0.13090  0.81320  Biso   1.000  C
  H118     1.0000 0.64150  0.12180  0.77750  Biso   1.000  H
  H119     1.0000 0.41010  0.03870  0.89660  Biso   1.000  H
  H120     1.0000 0.40970  0.03890  0.89560  Biso   1.000  H
  N41      1.0000 0.41058  0.68257  0.03167  Biso   1.000  N
  C41      1.0000 0.36910  0.68680  0.10120  Biso   1.000  C
  H121     1.0000 0.37820  0.72250  0.14150  Biso   1.000  H
  H122     1.0000 0.46130  0.60340  0.91010  Biso   1.000  H
  H123     1.0000 0.46110  0.60440  0.90970  Biso   1.000  H
  N42      1.0000 0.91058  0.18257  0.53167  Biso   1.000  N
  C42      1.0000 0.86910  0.18680  0.60120  Biso   1.000  C
  H124     1.0000 0.87820  0.22250  0.64150  Biso   1.000  H
  H125     1.0000 0.96130  0.10340  0.41010  Biso   1.000  H
  H126     1.0000 0.96110  0.10440  0.40970  Biso   1.000  H
  N43      1.0000 0.41058  0.31743  0.96833  Biso   1.000  N
  C43      1.0000 0.36910  0.31320  0.89880  Biso   1.000  C
  H127     1.0000 0.37820  0.27750  0.85850  Biso   1.000  H
  H128     1.0000 0.46130  0.39660  0.08990  Biso   1.000  H
  H129     1.0000 0.46110  0.39560  0.09030  Biso   1.000  H
  N44      1.0000 0.91058  0.81743  0.46833  Biso   1.000  N
  C44      1.0000 0.86910  0.81320  0.39880  Biso   1.000  C
  H130     1.0000 0.87820  0.77750  0.35850  Biso   1.000  H
  H131     1.0000 0.96130  0.89660  0.58990  Biso   1.000  H
  H132     1.0000 0.96110  0.89560  0.59030  Biso   1.000  H
  N45      1.0000 0.58942  0.68257  0.96833  Biso   1.000  N
  C45      1.0000 0.63090  0.68680  0.89880  Biso   1.000  C
  H133     1.0000 0.62180  0.72250  0.85850  Biso   1.000  H
  H134     1.0000 0.53870  0.60340  0.08990  Biso   1.000  H
  H135     1.0000 0.53890  0.60440  0.09030  Biso   1.000  H
  N46      1.0000 0.08942  0.18257  0.46833  Biso   1.000  N
  C46      1.0000 0.13090  0.18680  0.39880  Biso   1.000  C
  H136     1.0000 0.12180  0.22250  0.35850  Biso   1.000  H
  H137     1.0000 0.03870  0.10340  0.58990  Biso   1.000  H
  H138     1.0000 0.03890  0.10440  0.59030  Biso   1.000  H
  N47      1.0000 0.58942  0.31743  0.03167  Biso   1.000  N
  C47      1.0000 0.63090  0.31320  0.10120  Biso   1.000  C
  H139     1.0000 0.62180  0.27750  0.14150  Biso   1.000  H
  H140     1.0000 0.53870  0.39660  0.91010  Biso   1.000  H
  H141     1.0000 0.53890  0.39560  0.90970  Biso   1.000  H
  N48      1.0000 0.08942  0.81743  0.53167  Biso   1.000  N
  C48      1.0000 0.13090  0.81320  0.60120  Biso   1.000  C
  H142     1.0000 0.12180  0.77750  0.64150  Biso   1.000  H
  H143     1.0000 0.03870  0.89660  0.41010  Biso   1.000  H
  H144     1.0000 0.03890  0.89560  0.40970  Biso   1.000  H
  Zn1      1.0000 0.00000  0.75000  0.50000  Biso   1.000  Zn
  Zn2      1.0000 0.00000  0.25000  0.50000  Biso   1.000  Zn
  Zn3      1.0000 0.50000  0.00000  0.75000  Biso   1.000  Zn
  Zn4      1.0000 0.50000  0.00000  0.25000  Biso   1.000  Zn
  Zn5      1.0000 0.75000  0.50000  0.00000  Biso   1.000  Zn
  Zn6      1.0000 0.25000  0.50000  0.00000  Biso   1.000  Zn
  Zn7      1.0000 0.75000  0.00000  0.50000  Biso   1.000  Zn
  Zn8      1.0000 0.25000  0.00000  0.50000  Biso   1.000  Zn
  Zn9      1.0000 0.00000  0.50000  0.75000  Biso   1.000  Zn
  Zn10     1.0000 0.00000  0.50000  0.25000  Biso   1.000  Zn
  Zn11     1.0000 0.50000  0.75000  0.00000  Biso   1.000  Zn
  Zn12     1.0000 0.50000  0.25000  0.00000  Biso   1.000  Zn
  C49      1.0000 0.99360  0.62271  0.37729  Biso   1.000  C
  C50      1.0000 0.91450  0.59410  0.40590  Biso   1.000  C
  H145     1.0000 0.87360  0.62150  0.37850  Biso   1.000  H
  C51      1.0000 0.49360  0.12271  0.87729  Biso   1.000  C
  C52      1.0000 0.41450  0.09410  0.90590  Biso   1.000  C
  H146     1.0000 0.37360  0.12150  0.87850  Biso   1.000  H
  C53      1.0000 0.00640  0.37729  0.37729  Biso   1.000  C
  C54      1.0000 0.08550  0.40590  0.40590  Biso   1.000  C
  H147     1.0000 0.12640  0.37850  0.37850  Biso   1.000  H
  C55      1.0000 0.50640  0.87729  0.87729  Biso   1.000  C
  C56      1.0000 0.58550  0.90590  0.90590  Biso   1.000  C
  H148     1.0000 0.62640  0.87850  0.87850  Biso   1.000  H
  C57      1.0000 0.00640  0.62271  0.62271  Biso   1.000  C
  C58      1.0000 0.08550  0.59410  0.59410  Biso   1.000  C
  H149     1.0000 0.12640  0.62150  0.62150  Biso   1.000  H
  C59      1.0000 0.50640  0.12271  0.12271  Biso   1.000  C
  C60      1.0000 0.58550  0.09410  0.09410  Biso   1.000  C
  H150     1.0000 0.62640  0.12150  0.12150  Biso   1.000  H
  C61      1.0000 0.99360  0.37729  0.62271  Biso   1.000  C
  C62      1.0000 0.91450  0.40590  0.59410  Biso   1.000  C
  H151     1.0000 0.87360  0.37850  0.62150  Biso   1.000  H
  C63      1.0000 0.49360  0.87729  0.12271  Biso   1.000  C
  C64      1.0000 0.41450  0.90590  0.09410  Biso   1.000  C
  H152     1.0000 0.37360  0.87850  0.12150  Biso   1.000  H
  C65      1.0000 0.37729  0.99360  0.62271  Biso   1.000  C
  C66      1.0000 0.40590  0.91450  0.59410  Biso   1.000  C
  H153     1.0000 0.37850  0.87360  0.62150  Biso   1.000  H
  C67      1.0000 0.87729  0.49360  0.12271  Biso   1.000  C
  C68      1.0000 0.90590  0.41450  0.09410  Biso   1.000  C
  H154     1.0000 0.87850  0.37360  0.12150  Biso   1.000  H
  C69      1.0000 0.37729  0.00640  0.37729  Biso   1.000  C
  C70      1.0000 0.40590  0.08550  0.40590  Biso   1.000  C
  H155     1.0000 0.37850  0.12640  0.37850  Biso   1.000  H
  C71      1.0000 0.87729  0.50640  0.87729  Biso   1.000  C
  C72      1.0000 0.90590  0.58550  0.90590  Biso   1.000  C
  H156     1.0000 0.87850  0.62640  0.87850  Biso   1.000  H
  C73      1.0000 0.62271  0.00640  0.62271  Biso   1.000  C
  C74      1.0000 0.59410  0.08550  0.59410  Biso   1.000  C
  H157     1.0000 0.62150  0.12640  0.62150  Biso   1.000  H
  C75      1.0000 0.12271  0.50640  0.12271  Biso   1.000  C
  C76      1.0000 0.09410  0.58550  0.09410  Biso   1.000  C
  H158     1.0000 0.12150  0.62640  0.12150  Biso   1.000  H
  C77      1.0000 0.62271  0.99360  0.37729  Biso   1.000  C
  C78      1.0000 0.59410  0.91450  0.40590  Biso   1.000  C
  H159     1.0000 0.62150  0.87360  0.37850  Biso   1.000  H
  C79      1.0000 0.12271  0.49360  0.87729  Biso   1.000  C
  C80      1.0000 0.09410  0.41450  0.90590  Biso   1.000  C
  H160     1.0000 0.12150  0.37360  0.87850  Biso   1.000  H
  C81      1.0000 0.62271  0.37729  0.99360  Biso   1.000  C
  C82      1.0000 0.59410  0.40590  0.91450  Biso   1.000  C
  H161     1.0000 0.62150  0.37850  0.87360  Biso   1.000  H
  C83      1.0000 0.12271  0.87729  0.49360  Biso   1.000  C
  C84      1.0000 0.09410  0.90590  0.41450  Biso   1.000  C
  H162     1.0000 0.12150  0.87850  0.37360  Biso   1.000  H
  C85      1.0000 0.37729  0.37729  0.00640  Biso   1.000  C
  C86      1.0000 0.40590  0.40590  0.08550  Biso   1.000  C
  H163     1.0000 0.37850  0.37850  0.12640  Biso   1.000  H
  C87      1.0000 0.87729  0.87729  0.50640  Biso   1.000  C
  C88      1.0000 0.90590  0.90590  0.58550  Biso   1.000  C
  H164     1.0000 0.87850  0.87850  0.62640  Biso   1.000  H
  C89      1.0000 0.62271  0.62271  0.00640  Biso   1.000  C
  C90      1.0000 0.59410  0.59410  0.08550  Biso   1.000  C
  H165     1.0000 0.62150  0.62150  0.12640  Biso   1.000  H
  C91      1.0000 0.12271  0.12271  0.50640  Biso   1.000  C
  C92      1.0000 0.09410  0.09410  0.58550  Biso   1.000  C
  H166     1.0000 0.12150  0.12150  0.62640  Biso   1.000  H
  C93      1.0000 0.37729  0.62271  0.99360  Biso   1.000  C
  C94      1.0000 0.40590  0.59410  0.91450  Biso   1.000  C
  H167     1.0000 0.37850  0.62150  0.87360  Biso   1.000  H
  C95      1.0000 0.87729  0.12271  0.49360  Biso   1.000  C
  C96      1.0000 0.90590  0.09410  0.41450  Biso   1.000  C
  H168     1.0000 0.87850  0.12150  0.37360  Biso   1.000  H
