data_image0
_cell_length_a       17.019
_cell_length_b       17.019
_cell_length_c       17.019
_cell_angle_alpha    90
_cell_angle_beta     90
_cell_angle_gamma    90

_symmetry_space_group_name_H-M    "P 1"
_symmetry_int_tables_number       1

loop_
  _symmetry_equiv_pos_as_xyz
  'x, y, z'

loop_
  _atom_site_label
  _atom_site_occupancy
  _atom_site_fract_x
  _atom_site_fract_y
  _atom_site_fract_z
  _atom_site_thermal_displace_type
  _atom_site_B_iso_or_equiv
  _atom_site_type_symbol
  N1       1.0000 0.02753  0.68223  0.40948  Biso   1.000  N
  C1       1.0000 0.09770  0.68490  0.37000  Biso   1.000  C
  H1       1.0000 0.13860  0.71970  0.38020  Biso   1.000  H
  H2       1.0000 0.90080  0.60790  0.45660  Biso   1.000  H
  N2       1.0000 0.09770  0.63000  0.31510  Biso   1.000  N
  H3       1.0000 0.90020  0.60950  0.45630  Biso   1.000  H
  N3       1.0000 0.52753  0.18223  0.90948  Biso   1.000  N
  C2       1.0000 0.59770  0.18490  0.87000  Biso   1.000  C
  H4       1.0000 0.63860  0.21970  0.88020  Biso   1.000  H
  H5       1.0000 0.40080  0.10790  0.95660  Biso   1.000  H
  N4       1.0000 0.59770  0.13000  0.81510  Biso   1.000  N
  H6       1.0000 0.40020  0.10950  0.95630  Biso   1.000  H
  N5       1.0000 0.97247  0.31777  0.40948  Biso   1.000  N
  C3       1.0000 0.90230  0.31510  0.37000  Biso   1.000  C
  H7       1.0000 0.86140  0.28030  0.38020  Biso   1.000  H
  H8       1.0000 0.09920  0.39210  0.45660  Biso   1.000  H
  N6       1.0000 0.90230  0.37000  0.31510  Biso   1.000  N
  H9       1.0000 0.09980  0.39050  0.45630  Biso   1.000  H
  N7       1.0000 0.47247  0.81777  0.90948  Biso   1.000  N
  C4       1.0000 0.40230  0.81510  0.87000  Biso   1.000  C
  H10      1.0000 0.36140  0.78030  0.88020  Biso   1.000  H
  H11      1.0000 0.59920  0.89210  0.95660  Biso   1.000  H
  N8       1.0000 0.40230  0.87000  0.81510  Biso   1.000  N
  H12      1.0000 0.59980  0.89050  0.95630  Biso   1.000  H
  N9       1.0000 0.97247  0.68223  0.59052  Biso   1.000  N
  C5       1.0000 0.90230  0.68490  0.63000  Biso   1.000  C
  H13      1.0000 0.86140  0.71970  0.61980  Biso   1.000  H
  H14      1.0000 0.09920  0.60790  0.54340  Biso   1.000  H
  N10      1.0000 0.90230  0.63000  0.68490  Biso   1.000  N
  H15      1.0000 0.09980  0.60950  0.54370  Biso   1.000  H
  N11      1.0000 0.47247  0.18223  0.09052  Biso   1.000  N
  C6       1.0000 0.40230  0.18490  0.13000  Biso   1.000  C
  H16      1.0000 0.36140  0.21970  0.11980  Biso   1.000  H
  H17      1.0000 0.59920  0.10790  0.04340  Biso   1.000  H
  N12      1.0000 0.40230  0.13000  0.18490  Biso   1.000  N
  H18      1.0000 0.59980  0.10950  0.04370  Biso   1.000  H
  N13      1.0000 0.02753  0.31777  0.59052  Biso   1.000  N
  C7       1.0000 0.09770  0.31510  0.63000  Biso   1.000  C
  H19      1.0000 0.13860  0.28030  0.61980  Biso   1.000  H
  H20      1.0000 0.90080  0.39210  0.54340  Biso   1.000  H
  N14      1.0000 0.09770  0.37000  0.68490  Biso   1.000  N
  H21      1.0000 0.90020  0.39050  0.54370  Biso   1.000  H
  N15      1.0000 0.52753  0.81777  0.09052  Biso   1.000  N
  C8       1.0000 0.59770  0.81510  0.13000  Biso   1.000  C
  H22      1.0000 0.63860  0.78030  0.11980  Biso   1.000  H
  H23      1.0000 0.40080  0.89210  0.04340  Biso   1.000  H
  N16      1.0000 0.59770  0.87000  0.18490  Biso   1.000  N
  H24      1.0000 0.40020  0.89050  0.04370  Biso   1.000  H
  N17      1.0000 0.40948  0.02753  0.68223  Biso   1.000  N
  C9       1.0000 0.37000  0.09770  0.68490  Biso   1.000  C
  H25      1.0000 0.38020  0.13860  0.71970  Biso   1.000  H
  H26      1.0000 0.45660  0.90080  0.60790  Biso   1.000  H
  N18      1.0000 0.31510  0.09770  0.63000  Biso   1.000  N
  H27      1.0000 0.45630  0.90020  0.60950  Biso   1.000  H
  N19      1.0000 0.90948  0.52753  0.18223  Biso   1.000  N
  C10      1.0000 0.87000  0.59770  0.18490  Biso   1.000  C
  H28      1.0000 0.88020  0.63860  0.21970  Biso   1.000  H
  H29      1.0000 0.95660  0.40080  0.10790  Biso   1.000  H
  N20      1.0000 0.81510  0.59770  0.13000  Biso   1.000  N
  H30      1.0000 0.95630  0.40020  0.10950  Biso   1.000  H
  N21      1.0000 0.40948  0.97247  0.31777  Biso   1.000  N
  C11      1.0000 0.37000  0.90230  0.31510  Biso   1.000  C
  H31      1.0000 0.38020  0.86140  0.28030  Biso   1.000  H
  H32      1.0000 0.45660  0.09920  0.39210  Biso   1.000  H
  N22      1.0000 0.31510  0.90230  0.37000  Biso   1.000  N
  H33      1.0000 0.45630  0.09980  0.39050  Biso   1.000  H
  N23      1.0000 0.90948  0.47247  0.81777  Biso   1.000  N
  C12      1.0000 0.87000  0.40230  0.81510  Biso   1.000  C
  H34      1.0000 0.88020  0.36140  0.78030  Biso   1.000  H
  H35      1.0000 0.95660  0.59920  0.89210  Biso   1.000  H
  N24      1.0000 0.81510  0.40230  0.87000  Biso   1.000  N
  H36      1.0000 0.95630  0.59980  0.89050  Biso   1.000  H
  N25      1.0000 0.59052  0.97247  0.68223  Biso   1.000  N
  C13      1.0000 0.63000  0.90230  0.68490  Biso   1.000  C
  H37      1.0000 0.61980  0.86140  0.71970  Biso   1.000  H
  H38      1.0000 0.54340  0.09920  0.60790  Biso   1.000  H
  N26      1.0000 0.68490  0.90230  0.63000  Biso   1.000  N
  H39      1.0000 0.54370  0.09980  0.60950  Biso   1.000  H
  N27      1.0000 0.09052  0.47247  0.18223  Biso   1.000  N
  C14      1.0000 0.13000  0.40230  0.18490  Biso   1.000  C
  H40      1.0000 0.11980  0.36140  0.21970  Biso   1.000  H
  H41      1.0000 0.04340  0.59920  0.10790  Biso   1.000  H
  N28      1.0000 0.18490  0.40230  0.13000  Biso   1.000  N
  H42      1.0000 0.04370  0.59980  0.10950  Biso   1.000  H
  N29      1.0000 0.59052  0.02753  0.31777  Biso   1.000  N
  C15      1.0000 0.63000  0.09770  0.31510  Biso   1.000  C
  H43      1.0000 0.61980  0.13860  0.28030  Biso   1.000  H
  H44      1.0000 0.54340  0.90080  0.39210  Biso   1.000  H
  N30      1.0000 0.68490  0.09770  0.37000  Biso   1.000  N
  H45      1.0000 0.54370  0.90020  0.39050  Biso   1.000  H
  N31      1.0000 0.09052  0.52753  0.81777  Biso   1.000  N
  C16      1.0000 0.13000  0.59770  0.81510  Biso   1.000  C
  H46      1.0000 0.11980  0.63860  0.78030  Biso   1.000  H
  H47      1.0000 0.04340  0.40080  0.89210  Biso   1.000  H
  N32      1.0000 0.18490  0.59770  0.87000  Biso   1.000  N
  H48      1.0000 0.04370  0.40020  0.89050  Biso   1.000  H
  N33      1.0000 0.68223  0.40948  0.02753  Biso   1.000  N
  C17      1.0000 0.68490  0.37000  0.09770  Biso   1.000  C
  H49      1.0000 0.71970  0.38020  0.13860  Biso   1.000  H
  H50      1.0000 0.60790  0.45660  0.90080  Biso   1.000  H
  N34      1.0000 0.63000  0.31510  0.09770  Biso   1.000  N
  H51      1.0000 0.60950  0.45630  0.90020  Biso   1.000  H
  N35      1.0000 0.18223  0.90948  0.52753  Biso   1.000  N
  C18      1.0000 0.18490  0.87000  0.59770  Biso   1.000  C
  H52      1.0000 0.21970  0.88020  0.63860  Biso   1.000  H
  H53      1.0000 0.10790  0.95660  0.40080  Biso   1.000  H
  N36      1.0000 0.13000  0.81510  0.59770  Biso   1.000  N
  H54      1.0000 0.10950  0.95630  0.40020  Biso   1.000  H
  N37      1.0000 0.31777  0.40948  0.97247  Biso   1.000  N
  C19      1.0000 0.31510  0.37000  0.90230  Biso   1.000  C
  H55      1.0000 0.28030  0.38020  0.86140  Biso   1.000  H
  H56      1.0000 0.39210  0.45660  0.09920  Biso   1.000  H
  N38      1.0000 0.37000  0.31510  0.90230  Biso   1.000  N
  H57      1.0000 0.39050  0.45630  0.09980  Biso   1.000  H
  N39      1.0000 0.81777  0.90948  0.47247  Biso   1.000  N
  C20      1.0000 0.81510  0.87000  0.40230  Biso   1.000  C
  H58      1.0000 0.78030  0.88020  0.36140  Biso   1.000  H
  H59      1.0000 0.89210  0.95660  0.59920  Biso   1.000  H
  N40      1.0000 0.87000  0.81510  0.40230  Biso   1.000  N
  H60      1.0000 0.89050  0.95630  0.59980  Biso   1.000  H
  N41      1.0000 0.68223  0.59052  0.97247  Biso   1.000  N
  C21      1.0000 0.68490  0.63000  0.90230  Biso   1.000  C
  H61      1.0000 0.71970  0.61980  0.86140  Biso   1.000  H
  H62      1.0000 0.60790  0.54340  0.09920  Biso   1.000  H
  N42      1.0000 0.63000  0.68490  0.90230  Biso   1.000  N
  H63      1.0000 0.60950  0.54370  0.09980  Biso   1.000  H
  N43      1.0000 0.18223  0.09052  0.47247  Biso   1.000  N
  C22      1.0000 0.18490  0.13000  0.40230  Biso   1.000  C
  H64      1.0000 0.21970  0.11980  0.36140  Biso   1.000  H
  H65      1.0000 0.10790  0.04340  0.59920  Biso   1.000  H
  N44      1.0000 0.13000  0.18490  0.40230  Biso   1.000  N
  H66      1.0000 0.10950  0.04370  0.59980  Biso   1.000  H
  N45      1.0000 0.31777  0.59052  0.02753  Biso   1.000  N
  C23      1.0000 0.31510  0.63000  0.09770  Biso   1.000  C
  H67      1.0000 0.28030  0.61980  0.13860  Biso   1.000  H
  H68      1.0000 0.39210  0.54340  0.90080  Biso   1.000  H
  N46      1.0000 0.37000  0.68490  0.09770  Biso   1.000  N
  H69      1.0000 0.39050  0.54370  0.90020  Biso   1.000  H
  N47      1.0000 0.81777  0.09052  0.52753  Biso   1.000  N
  C24      1.0000 0.81510  0.13000  0.59770  Biso   1.000  C
  H70      1.0000 0.78030  0.11980  0.63860  Biso   1.000  H
  H71      1.0000 0.89210  0.04340  0.40080  Biso   1.000  H
  N48      1.0000 0.87000  0.18490  0.59770  Biso   1.000  N
  H72      1.0000 0.89050  0.04370  0.40020  Biso   1.000  H
  N49      1.0000 0.68223  0.02753  0.40948  Biso   1.000  N
  H73      1.0000 0.71970  0.13860  0.38020  Biso   1.000  H
  H74      1.0000 0.60790  0.90080  0.45660  Biso   1.000  H
  H75      1.0000 0.60950  0.90020  0.45630  Biso   1.000  H
  N50      1.0000 0.18223  0.52753  0.90948  Biso   1.000  N
  H76      1.0000 0.21970  0.63860  0.88020  Biso   1.000  H
  H77      1.0000 0.10790  0.40080  0.95660  Biso   1.000  H
  H78      1.0000 0.10950  0.40020  0.95630  Biso   1.000  H
  N51      1.0000 0.31777  0.97247  0.40948  Biso   1.000  N
  H79      1.0000 0.28030  0.86140  0.38020  Biso   1.000  H
  H80      1.0000 0.39210  0.09920  0.45660  Biso   1.000  H
  H81      1.0000 0.39050  0.09980  0.45630  Biso   1.000  H
  N52      1.0000 0.81777  0.47247  0.90948  Biso   1.000  N
  H82      1.0000 0.78030  0.36140  0.88020  Biso   1.000  H
  H83      1.0000 0.89210  0.59920  0.95660  Biso   1.000  H
  H84      1.0000 0.89050  0.59980  0.95630  Biso   1.000  H
  N53      1.0000 0.68223  0.97247  0.59052  Biso   1.000  N
  H85      1.0000 0.71970  0.86140  0.61980  Biso   1.000  H
  H86      1.0000 0.60790  0.09920  0.54340  Biso   1.000  H
  H87      1.0000 0.60950  0.09980  0.54370  Biso   1.000  H
  N54      1.0000 0.18223  0.47247  0.09052  Biso   1.000  N
  H88      1.0000 0.21970  0.36140  0.11980  Biso   1.000  H
  H89      1.0000 0.10790  0.59920  0.04340  Biso   1.000  H
  H90      1.0000 0.10950  0.59980  0.04370  Biso   1.000  H
  N55      1.0000 0.31777  0.02753  0.59052  Biso   1.000  N
  H91      1.0000 0.28030  0.13860  0.61980  Biso   1.000  H
  H92      1.0000 0.39210  0.90080  0.54340  Biso   1.000  H
  H93      1.0000 0.39050  0.90020  0.54370  Biso   1.000  H
  N56      1.0000 0.81777  0.52753  0.09052  Biso   1.000  N
  H94      1.0000 0.78030  0.63860  0.11980  Biso   1.000  H
  H95      1.0000 0.89210  0.40080  0.04340  Biso   1.000  H
  H96      1.0000 0.89050  0.40020  0.04370  Biso   1.000  H
  N57      1.0000 0.02753  0.40948  0.68223  Biso   1.000  N
  H97      1.0000 0.13860  0.38020  0.71970  Biso   1.000  H
  H98      1.0000 0.90080  0.45660  0.60790  Biso   1.000  H
  H99      1.0000 0.90020  0.45630  0.60950  Biso   1.000  H
  N58      1.0000 0.52753  0.90948  0.18223  Biso   1.000  N
  H100     1.0000 0.63860  0.88020  0.21970  Biso   1.000  H
  H101     1.0000 0.40080  0.95660  0.10790  Biso   1.000  H
  H102     1.0000 0.40020  0.95630  0.10950  Biso   1.000  H
  N59      1.0000 0.97247  0.40948  0.31777  Biso   1.000  N
  H103     1.0000 0.86140  0.38020  0.28030  Biso   1.000  H
  H104     1.0000 0.09920  0.45660  0.39210  Biso   1.000  H
  H105     1.0000 0.09980  0.45630  0.39050  Biso   1.000  H
  N60      1.0000 0.47247  0.90948  0.81777  Biso   1.000  N
  H106     1.0000 0.36140  0.88020  0.78030  Biso   1.000  H
  H107     1.0000 0.59920  0.95660  0.89210  Biso   1.000  H
  H108     1.0000 0.59980  0.95630  0.89050  Biso   1.000  H
  N61      1.0000 0.97247  0.59052  0.68223  Biso   1.000  N
  H109     1.0000 0.86140  0.61980  0.71970  Biso   1.000  H
  H110     1.0000 0.09920  0.54340  0.60790  Biso   1.000  H
  H111     1.0000 0.09980  0.54370  0.60950  Biso   1.000  H
  N62      1.0000 0.47247  0.09052  0.18223  Biso   1.000  N
  H112     1.0000 0.36140  0.11980  0.21970  Biso   1.000  H
  H113     1.0000 0.59920  0.04340  0.10790  Biso   1.000  H
  H114     1.0000 0.59980  0.04370  0.10950  Biso   1.000  H
  N63      1.0000 0.02753  0.59052  0.31777  Biso   1.000  N
  H115     1.0000 0.13860  0.61980  0.28030  Biso   1.000  H
  H116     1.0000 0.90080  0.54340  0.39210  Biso   1.000  H
  H117     1.0000 0.90020  0.54370  0.39050  Biso   1.000  H
  N64      1.0000 0.52753  0.09052  0.81777  Biso   1.000  N
  H118     1.0000 0.63860  0.11980  0.78030  Biso   1.000  H
  H119     1.0000 0.40080  0.04340  0.89210  Biso   1.000  H
  H120     1.0000 0.40020  0.04370  0.89050  Biso   1.000  H
  N65      1.0000 0.40948  0.68223  0.02753  Biso   1.000  N
  H121     1.0000 0.38020  0.71970  0.13860  Biso   1.000  H
  H122     1.0000 0.45660  0.60790  0.90080  Biso   1.000  H
  H123     1.0000 0.45630  0.60950  0.90020  Biso   1.000  H
  N66      1.0000 0.90948  0.18223  0.52753  Biso   1.000  N
  H124     1.0000 0.88020  0.21970  0.63860  Biso   1.000  H
  H125     1.0000 0.95660  0.10790  0.40080  Biso   1.000  H
  H126     1.0000 0.95630  0.10950  0.40020  Biso   1.000  H
  N67      1.0000 0.40948  0.31777  0.97247  Biso   1.000  N
  H127     1.0000 0.38020  0.28030  0.86140  Biso   1.000  H
  H128     1.0000 0.45660  0.39210  0.09920  Biso   1.000  H
  H129     1.0000 0.45630  0.39050  0.09980  Biso   1.000  H
  N68      1.0000 0.90948  0.81777  0.47247  Biso   1.000  N
  H130     1.0000 0.88020  0.78030  0.36140  Biso   1.000  H
  H131     1.0000 0.95660  0.89210  0.59920  Biso   1.000  H
  H132     1.0000 0.95630  0.89050  0.59980  Biso   1.000  H
  N69      1.0000 0.59052  0.68223  0.97247  Biso   1.000  N
  H133     1.0000 0.61980  0.71970  0.86140  Biso   1.000  H
  H134     1.0000 0.54340  0.60790  0.09920  Biso   1.000  H
  H135     1.0000 0.54370  0.60950  0.09980  Biso   1.000  H
  N70      1.0000 0.09052  0.18223  0.47247  Biso   1.000  N
  H136     1.0000 0.11980  0.21970  0.36140  Biso   1.000  H
  H137     1.0000 0.04340  0.10790  0.59920  Biso   1.000  H
  H138     1.0000 0.04370  0.10950  0.59980  Biso   1.000  H
  N71      1.0000 0.59052  0.31777  0.02753  Biso   1.000  N
  H139     1.0000 0.61980  0.28030  0.13860  Biso   1.000  H
  H140     1.0000 0.54340  0.39210  0.90080  Biso   1.000  H
  H141     1.0000 0.54370  0.39050  0.90020  Biso   1.000  H
  N72      1.0000 0.09052  0.81777  0.52753  Biso   1.000  N
  H142     1.0000 0.11980  0.78030  0.63860  Biso   1.000  H
  H143     1.0000 0.04340  0.89210  0.40080  Biso   1.000  H
  H144     1.0000 0.04370  0.89050  0.40020  Biso   1.000  H
  Zn1      1.0000 0.00000  0.75000  0.50000  Biso   1.000  Zn
  Zn2      1.0000 0.00000  0.25000  0.50000  Biso   1.000  Zn
  Zn3      1.0000 0.50000  0.00000  0.75000  Biso   1.000  Zn
  Zn4      1.0000 0.50000  0.00000  0.25000  Biso   1.000  Zn
  Zn5      1.0000 0.75000  0.50000  0.00000  Biso   1.000  Zn
  Zn6      1.0000 0.25000  0.50000  0.00000  Biso   1.000  Zn
  Zn7      1.0000 0.75000  0.00000  0.50000  Biso   1.000  Zn
  Zn8      1.0000 0.25000  0.00000  0.50000  Biso   1.000  Zn
  Zn9      1.0000 0.00000  0.50000  0.75000  Biso   1.000  Zn
  Zn10     1.0000 0.00000  0.50000  0.25000  Biso   1.000  Zn
  Zn11     1.0000 0.50000  0.75000  0.00000  Biso   1.000  Zn
  Zn12     1.0000 0.50000  0.25000  0.00000  Biso   1.000  Zn
  C25      1.0000 0.98820  0.62382  0.37619  Biso   1.000  C
  C26      1.0000 0.90700  0.59870  0.40130  Biso   1.000  C
  H145     1.0000 0.86850  0.62775  0.37225  Biso   1.000  H
  C27      1.0000 0.48820  0.12381  0.87618  Biso   1.000  C
  C28      1.0000 0.40700  0.09870  0.90130  Biso   1.000  C
  H146     1.0000 0.36850  0.12775  0.87225  Biso   1.000  H
  C29      1.0000 0.01180  0.37618  0.37619  Biso   1.000  C
  C30      1.0000 0.09300  0.40130  0.40130  Biso   1.000  C
  H147     1.0000 0.13150  0.37225  0.37225  Biso   1.000  H
  C31      1.0000 0.51180  0.87618  0.87618  Biso   1.000  C
  C32      1.0000 0.59300  0.90130  0.90130  Biso   1.000  C
  H148     1.0000 0.63150  0.87225  0.87225  Biso   1.000  H
  C33      1.0000 0.01180  0.62382  0.62381  Biso   1.000  C
  C34      1.0000 0.09300  0.59870  0.59870  Biso   1.000  C
  H149     1.0000 0.13150  0.62775  0.62775  Biso   1.000  H
  C35      1.0000 0.51180  0.12381  0.12381  Biso   1.000  C
  C36      1.0000 0.59300  0.09870  0.09870  Biso   1.000  C
  H150     1.0000 0.63150  0.12775  0.12775  Biso   1.000  H
  C37      1.0000 0.98820  0.37618  0.62381  Biso   1.000  C
  C38      1.0000 0.90700  0.40130  0.59870  Biso   1.000  C
  H151     1.0000 0.86850  0.37225  0.62775  Biso   1.000  H
  C39      1.0000 0.48820  0.87618  0.12381  Biso   1.000  C
  C40      1.0000 0.40700  0.90130  0.09870  Biso   1.000  C
  H152     1.0000 0.36850  0.87225  0.12775  Biso   1.000  H
  C41      1.0000 0.37619  0.98820  0.62382  Biso   1.000  C
  C42      1.0000 0.40130  0.90700  0.59870  Biso   1.000  C
  H153     1.0000 0.37225  0.86850  0.62775  Biso   1.000  H
  C43      1.0000 0.87618  0.48820  0.12381  Biso   1.000  C
  C44      1.0000 0.90130  0.40700  0.09870  Biso   1.000  C
  H154     1.0000 0.87225  0.36850  0.12775  Biso   1.000  H
  C45      1.0000 0.37619  0.01180  0.37618  Biso   1.000  C
  C46      1.0000 0.40130  0.09300  0.40130  Biso   1.000  C
  H155     1.0000 0.37225  0.13150  0.37225  Biso   1.000  H
  C47      1.0000 0.87618  0.51180  0.87618  Biso   1.000  C
  C48      1.0000 0.90130  0.59300  0.90130  Biso   1.000  C
  H156     1.0000 0.87225  0.63150  0.87225  Biso   1.000  H
  C49      1.0000 0.62381  0.01180  0.62382  Biso   1.000  C
  C50      1.0000 0.59870  0.09300  0.59870  Biso   1.000  C
  H157     1.0000 0.62775  0.13150  0.62775  Biso   1.000  H
  C51      1.0000 0.12381  0.51180  0.12381  Biso   1.000  C
  C52      1.0000 0.09870  0.59300  0.09870  Biso   1.000  C
  H158     1.0000 0.12775  0.63150  0.12775  Biso   1.000  H
  C53      1.0000 0.62381  0.98820  0.37618  Biso   1.000  C
  C54      1.0000 0.59870  0.90700  0.40130  Biso   1.000  C
  H159     1.0000 0.62775  0.86850  0.37225  Biso   1.000  H
  C55      1.0000 0.12381  0.48820  0.87618  Biso   1.000  C
  C56      1.0000 0.09870  0.40700  0.90130  Biso   1.000  C
  H160     1.0000 0.12775  0.36850  0.87225  Biso   1.000  H
  C57      1.0000 0.62382  0.37619  0.98820  Biso   1.000  C
  C58      1.0000 0.59870  0.40130  0.90700  Biso   1.000  C
  H161     1.0000 0.62775  0.37225  0.86850  Biso   1.000  H
  C59      1.0000 0.12381  0.87618  0.48820  Biso   1.000  C
  C60      1.0000 0.09870  0.90130  0.40700  Biso   1.000  C
  H162     1.0000 0.12775  0.87225  0.36850  Biso   1.000  H
  C61      1.0000 0.37618  0.37619  0.01180  Biso   1.000  C
  C62      1.0000 0.40130  0.40130  0.09300  Biso   1.000  C
  H163     1.0000 0.37225  0.37225  0.13150  Biso   1.000  H
  C63      1.0000 0.87618  0.87618  0.51180  Biso   1.000  C
  C64      1.0000 0.90130  0.90130  0.59300  Biso   1.000  C
  H164     1.0000 0.87225  0.87225  0.63150  Biso   1.000  H
  C65      1.0000 0.62382  0.62381  0.01180  Biso   1.000  C
  C66      1.0000 0.59870  0.59870  0.09300  Biso   1.000  C
  H165     1.0000 0.62775  0.62775  0.13150  Biso   1.000  H
  C67      1.0000 0.12381  0.12381  0.51180  Biso   1.000  C
  C68      1.0000 0.09870  0.09870  0.59300  Biso   1.000  C
  H166     1.0000 0.12775  0.12775  0.63150  Biso   1.000  H
  C69      1.0000 0.37618  0.62381  0.98820  Biso   1.000  C
  C70      1.0000 0.40130  0.59870  0.90700  Biso   1.000  C
  H167     1.0000 0.37225  0.62775  0.86850  Biso   1.000  H
  C71      1.0000 0.87618  0.12381  0.48820  Biso   1.000  C
  C72      1.0000 0.90130  0.09870  0.40700  Biso   1.000  C
  H168     1.0000 0.87225  0.12775  0.36850  Biso   1.000  H
