data_image0
_cell_length_a       12.3927
_cell_length_b       13.2752
_cell_length_c       14.3563
_cell_angle_alpha    81.027
_cell_angle_beta     77.828
_cell_angle_gamma    89.565

_symmetry_space_group_name_H-M    "P 1"
_symmetry_int_tables_number       1

loop_
  _symmetry_equiv_pos_as_xyz
  'x, y, z'

loop_
  _atom_site_label
  _atom_site_occupancy
  _atom_site_fract_x
  _atom_site_fract_y
  _atom_site_fract_z
  _atom_site_thermal_displace_type
  _atom_site_B_iso_or_equiv
  _atom_site_type_symbol
  Er1      1.0000 0.68069  0.86313  0.66363  Biso   1.000  Er
  Er2      1.0000 0.39816  0.40914  0.77594  Biso   1.000  Er
  Ru1      1.0000 0.65763  0.25983  0.48399  Biso   1.000  Ru
  Ru2      1.0000 0.26305  0.66117  0.04208  Biso   1.000  Ru
  N1       1.0000 0.80510  0.31200  0.51420  Biso   1.000  N
  C1       1.0000 0.81800  0.36430  0.58410  Biso   1.000  C
  H1       1.0000 0.75420  0.38460  0.62570  Biso   1.000  H
  C2       1.0000 0.91920  0.38920  0.59760  Biso   1.000  C
  H2       1.0000 0.92660  0.42640  0.64740  Biso   1.000  H
  C3       1.0000 0.01000  0.35910  0.53710  Biso   1.000  C
  H3       1.0000 0.08150  0.37320  0.54700  Biso   1.000  H
  O1       1.0000 0.70500  0.90140  0.81640  Biso   1.000  O
  O2       1.0000 0.72800  0.84800  0.80990  Biso   1.000  O
  N2       1.0000 0.00070  0.31000  0.46410  Biso   1.000  N
  O3       1.0000 0.80080  0.73130  0.70080  Biso   1.000  O
  O4       1.0000 0.78440  0.71500  0.65990  Biso   1.000  O
  C4       1.0000 0.89970  0.28890  0.45410  Biso   1.000  C
  N3       1.0000 0.77800  0.22380  0.36710  Biso   1.000  N
  C5       1.0000 0.76030  0.18140  0.29190  Biso   1.000  C
  H4       1.0000 0.68710  0.17190  0.28370  Biso   1.000  H
  C6       1.0000 0.84890  0.15220  0.22710  Biso   1.000  C
  H5       1.0000 0.83740  0.12260  0.17370  Biso   1.000  H
  C7       1.0000 0.95200  0.16580  0.24020  Biso   1.000  C
  H6       1.0000 0.01280  0.14370  0.19640  Biso   1.000  H
  N4       1.0000 0.97080  0.20970  0.31310  Biso   1.000  N
  C8       1.0000 0.88380  0.23840  0.37390  Biso   1.000  C
  N5       1.0000 0.10800  0.66230  0.00180  Biso   1.000  N
  C9       1.0000 0.08120  0.61410  0.93460  Biso   1.000  C
  H7       1.0000 0.13490  0.57600  0.89810  Biso   1.000  H
  C10      1.0000 0.97530  0.61970  0.91790  Biso   1.000  C
  H8       1.0000 0.95390  0.58590  0.87070  Biso   1.000  H
  C11      1.0000 0.90220  0.67680  0.97350  Biso   1.000  C
  H9       1.0000 0.82930  0.68250  0.96250  Biso   1.000  H
  N6       1.0000 0.92660  0.72330  0.04000  Biso   1.000  N
  C12      1.0000 0.03000  0.71460  0.05010  Biso   1.000  C
  N7       1.0000 0.16630  0.75400  0.13360  Biso   1.000  N
  C13      1.0000 0.20240  0.80300  0.19830  Biso   1.000  C
  H10      1.0000 0.27700  0.79800  0.20500  Biso   1.000  H
  C14      1.0000 0.12960  0.85980  0.25390  Biso   1.000  C
  H11      1.0000 0.15160  0.89290  0.30120  Biso   1.000  H
  C15      1.0000 0.02530  0.86690  0.23860  Biso   1.000  C
  H12      1.0000 0.97460  0.90720  0.27540  Biso   1.000  H
  N8       1.0000 0.99080  0.82010  0.17470  Biso   1.000  N
  C16      1.0000 0.06500  0.76680  0.12510  Biso   1.000  C
  C17      1.0000 0.67710  0.11800  0.55480  Biso   1.000  C
  N9       1.0000 0.68610  0.03530  0.59160  Biso   1.000  N
  C18      1.0000 0.55640  0.29240  0.59930  Biso   1.000  C
  N10      1.0000 0.49720  0.30880  0.66760  Biso   1.000  N
  C19      1.0000 0.47140  0.78930  0.55710  Biso   1.000  C
  N11      1.0000 0.54730  0.81520  0.58320  Biso   1.000  N
  C20      1.0000 0.63470  0.39750  0.40870  Biso   1.000  C
  N12      1.0000 0.61960  0.47230  0.36180  Biso   1.000  N
  C21      1.0000 0.31880  0.78800  0.94460  Biso   1.000  C
  N13      1.0000 0.35170  0.86140  0.89210  Biso   1.000  N
  C22      1.0000 0.33340  0.57510  0.94700  Biso   1.000  C
  N14      1.0000 0.36870  0.52460  0.88990  Biso   1.000  N
  C23      1.0000 0.60180  0.33770  0.90770  Biso   1.000  C
  N15      1.0000 0.52460  0.34530  0.87520  Biso   1.000  N
  C24      1.0000 0.22440  0.53640  0.14720  Biso   1.000  C
  N16      1.0000 0.21520  0.46610  0.20830  Biso   1.000  N
  N17      1.0000 0.17930  0.40070  0.74150  Biso   1.000  N
  O5       1.0000 0.20650  0.44820  0.80530  Biso   1.000  O
  O6       1.0000 0.25250  0.34300  0.70300  Biso   1.000  O
  O7       1.0000 0.08950  0.40770  0.72450  Biso   1.000  O
  N18      1.0000 0.95450  0.96470  0.56520  Biso   1.000  N
  O8       1.0000 0.86860  0.92890  0.63740  Biso   1.000  O
  O9       1.0000 0.02680  0.02200  0.57750  Biso   1.000  O
  O10      1.0000 0.97120  0.93310  0.48650  Biso   1.000  O
  Er3      1.0000 0.31931  0.13687  0.33637  Biso   1.000  Er
  Er4      1.0000 0.60184  0.59086  0.22406  Biso   1.000  Er
  Ru3      1.0000 0.34237  0.74017  0.51601  Biso   1.000  Ru
  Ru4      1.0000 0.73695  0.33883  0.95792  Biso   1.000  Ru
  N19      1.0000 0.19490  0.68800  0.48580  Biso   1.000  N
  C25      1.0000 0.18200  0.63570  0.41590  Biso   1.000  C
  H13      1.0000 0.24580  0.61540  0.37430  Biso   1.000  H
  C26      1.0000 0.08080  0.61080  0.40240  Biso   1.000  C
  H14      1.0000 0.07340  0.57360  0.35260  Biso   1.000  H
  C27      1.0000 0.99000  0.64090  0.46290  Biso   1.000  C
  H15      1.0000 0.91850  0.62680  0.45300  Biso   1.000  H
  O11      1.0000 0.29500  0.09860  0.18360  Biso   1.000  O
  O12      1.0000 0.27200  0.15200  0.19010  Biso   1.000  O
  N20      1.0000 0.99930  0.69000  0.53590  Biso   1.000  N
  O13      1.0000 0.19920  0.26870  0.29920  Biso   1.000  O
  O14      1.0000 0.21560  0.28500  0.34010  Biso   1.000  O
  C28      1.0000 0.10030  0.71110  0.54590  Biso   1.000  C
  N21      1.0000 0.22200  0.77620  0.63290  Biso   1.000  N
  C29      1.0000 0.23970  0.81860  0.70810  Biso   1.000  C
  H16      1.0000 0.31290  0.82810  0.71630  Biso   1.000  H
  C30      1.0000 0.15110  0.84780  0.77290  Biso   1.000  C
  H17      1.0000 0.16260  0.87740  0.82630  Biso   1.000  H
  C31      1.0000 0.04800  0.83420  0.75980  Biso   1.000  C
  H18      1.0000 0.98720  0.85630  0.80360  Biso   1.000  H
  N22      1.0000 0.02920  0.79030  0.68690  Biso   1.000  N
  C32      1.0000 0.11620  0.76160  0.62610  Biso   1.000  C
  N23      1.0000 0.89200  0.33770  0.99820  Biso   1.000  N
  C33      1.0000 0.91880  0.38590  0.06540  Biso   1.000  C
  H19      1.0000 0.86510  0.42400  0.10190  Biso   1.000  H
  C34      1.0000 0.02470  0.38030  0.08210  Biso   1.000  C
  H20      1.0000 0.04610  0.41410  0.12930  Biso   1.000  H
  C35      1.0000 0.09780  0.32320  0.02650  Biso   1.000  C
  H21      1.0000 0.17070  0.31750  0.03750  Biso   1.000  H
  N24      1.0000 0.07340  0.27670  0.96000  Biso   1.000  N
  C36      1.0000 0.97000  0.28540  0.94990  Biso   1.000  C
  N25      1.0000 0.83370  0.24600  0.86640  Biso   1.000  N
  C37      1.0000 0.79760  0.19700  0.80170  Biso   1.000  C
  H22      1.0000 0.72300  0.20200  0.79500  Biso   1.000  H
  C38      1.0000 0.87040  0.14020  0.74610  Biso   1.000  C
  H23      1.0000 0.84840  0.10710  0.69880  Biso   1.000  H
  C39      1.0000 0.97470  0.13310  0.76140  Biso   1.000  C
  H24      1.0000 0.02540  0.09280  0.72460  Biso   1.000  H
  N26      1.0000 0.00920  0.17990  0.82530  Biso   1.000  N
  C40      1.0000 0.93500  0.23320  0.87490  Biso   1.000  C
  C41      1.0000 0.32290  0.88200  0.44520  Biso   1.000  C
  N27      1.0000 0.31390  0.96470  0.40840  Biso   1.000  N
  C42      1.0000 0.44360  0.70760  0.40070  Biso   1.000  C
  N28      1.0000 0.50280  0.69120  0.33240  Biso   1.000  N
  C43      1.0000 0.52860  0.21070  0.44290  Biso   1.000  C
  N29      1.0000 0.45270  0.18480  0.41680  Biso   1.000  N
  C44      1.0000 0.36530  0.60250  0.59130  Biso   1.000  C
  N30      1.0000 0.38040  0.52770  0.63820  Biso   1.000  N
  C45      1.0000 0.68120  0.21200  0.05540  Biso   1.000  C
  N31      1.0000 0.64830  0.13860  0.10790  Biso   1.000  N
  C46      1.0000 0.66660  0.42490  0.05300  Biso   1.000  C
  N32      1.0000 0.63130  0.47540  0.11010  Biso   1.000  N
  C47      1.0000 0.39820  0.66230  0.09230  Biso   1.000  C
  N33      1.0000 0.47540  0.65470  0.12480  Biso   1.000  N
  C48      1.0000 0.77560  0.46360  0.85280  Biso   1.000  C
  N34      1.0000 0.78480  0.53390  0.79170  Biso   1.000  N
  N35      1.0000 0.82070  0.59930  0.25850  Biso   1.000  N
  O15      1.0000 0.79350  0.55180  0.19470  Biso   1.000  O
  O16      1.0000 0.74750  0.65700  0.29700  Biso   1.000  O
  O17      1.0000 0.91050  0.59230  0.27550  Biso   1.000  O
  N36      1.0000 0.04550  0.03530  0.43480  Biso   1.000  N
  O18      1.0000 0.13140  0.07110  0.36260  Biso   1.000  O
  O19      1.0000 0.97320  0.97800  0.42250  Biso   1.000  O
  O20      1.0000 0.02880  0.06690  0.51350  Biso   1.000  O
