data_image0
_cell_length_a       25.1267
_cell_length_b       22.1514
_cell_length_c       13.6062
_cell_angle_alpha    90
_cell_angle_beta     90
_cell_angle_gamma    90

_symmetry_space_group_name_H-M    "P 1"
_symmetry_int_tables_number       1

loop_
  _symmetry_equiv_pos_as_xyz
  'x, y, z'

loop_
  _atom_site_label
  _atom_site_occupancy
  _atom_site_fract_x
  _atom_site_fract_y
  _atom_site_fract_z
  _atom_site_thermal_displace_type
  _atom_site_B_iso_or_equiv
  _atom_site_type_symbol
  Gd1      1.0000 0.03291  0.82867  0.48271  Biso   1.000  Gd
  Ru1      1.0000 0.35137  0.69869  0.25896  Biso   1.000  Ru
  Ru2      1.0000 0.12938  0.65121  0.26092  Biso   1.000  Ru
  C1       1.0000 0.24244  0.66280  0.31180  Biso   1.000  C
  C2       1.0000 0.20290  0.60940  0.43540  Biso   1.000  C
  H1       1.0000 0.17290  0.59390  0.46620  Biso   1.000  H
  C3       1.0000 0.25250  0.60120  0.47710  Biso   1.000  C
  H2       1.0000 0.25590  0.57960  0.53550  Biso   1.000  H
  C4       1.0000 0.29660  0.62500  0.43200  Biso   1.000  C
  H3       1.0000 0.33000  0.61900  0.45970  Biso   1.000  H
  C5       1.0000 0.23674  0.69580  0.21900  Biso   1.000  C
  C6       1.0000 0.18250  0.73160  0.09720  Biso   1.000  C
  H4       1.0000 0.14890  0.73680  0.06970  Biso   1.000  H
  C7       1.0000 0.22680  0.75710  0.05110  Biso   1.000  C
  H5       1.0000 0.22310  0.77890  0.99300  Biso   1.000  H
  C8       1.0000 0.27630  0.74930  0.09370  Biso   1.000  C
  H6       1.0000 0.30630  0.76560  0.06340  Biso   1.000  H
  C9       1.0000 0.34470  0.77910  0.33190  Biso   1.000  C
  C10      1.0000 0.10180  0.73930  0.66540  Biso   1.000  C
  C11      1.0000 0.91380  0.82280  0.34080  Biso   1.000  C
  C12      1.0000 0.35930  0.61960  0.18620  Biso   1.000  C
  C13      1.0000 0.10340  0.72650  0.32970  Biso   1.000  C
  C14      1.0000 0.07000  0.66360  0.16840  Biso   1.000  C
  C15      1.0000 0.08330  0.60300  0.34820  Biso   1.000  C
  C16      1.0000 0.15140  0.57510  0.18700  Biso   1.000  C
  N1       1.0000 0.19797  0.63980  0.35070  Biso   1.000  N
  N2       1.0000 0.29209  0.65710  0.34770  Biso   1.000  N
  N3       1.0000 0.18785  0.69996  0.18040  Biso   1.000  N
  N4       1.0000 0.28168  0.71822  0.17920  Biso   1.000  N
  N5       1.0000 0.34240  0.82470  0.37130  Biso   1.000  N
  N6       1.0000 0.07680  0.76830  0.60870  Biso   1.000  N
  N7       1.0000 0.95080  0.83350  0.38810  Biso   1.000  N
  N8       1.0000 0.36440  0.57370  0.14510  Biso   1.000  N
  N9       1.0000 0.08510  0.76860  0.36670  Biso   1.000  N
  N10      1.0000 0.03450  0.67100  0.11610  Biso   1.000  N
  N11      1.0000 0.05787  0.57440  0.40150  Biso   1.000  N
  N12      1.0000 0.16360  0.53180  0.14580  Biso   1.000  N
  O1       1.0000 0.00190  0.93310  0.50870  Biso   1.000  O
  O2       1.0000 0.95530  0.58160  0.07460  Biso   1.000  O
  O3       1.0000 0.10700  0.88470  0.52610  Biso   1.000  O
  O4       1.0000 0.87020  0.64140  0.98170  Biso   1.000  O
  Gd2      1.0000 0.03291  0.32867  0.98271  Biso   1.000  Gd
  Ru3      1.0000 0.35137  0.19869  0.75896  Biso   1.000  Ru
  Ru4      1.0000 0.12938  0.15121  0.76092  Biso   1.000  Ru
  C17      1.0000 0.24244  0.16280  0.81180  Biso   1.000  C
  C18      1.0000 0.20290  0.10940  0.93540  Biso   1.000  C
  H7       1.0000 0.17290  0.09390  0.96620  Biso   1.000  H
  C19      1.0000 0.25250  0.10120  0.97710  Biso   1.000  C
  H8       1.0000 0.25590  0.07960  0.03550  Biso   1.000  H
  C20      1.0000 0.29660  0.12500  0.93200  Biso   1.000  C
  H9       1.0000 0.33000  0.11900  0.95970  Biso   1.000  H
  C21      1.0000 0.23674  0.19580  0.71900  Biso   1.000  C
  C22      1.0000 0.18250  0.23160  0.59720  Biso   1.000  C
  H10      1.0000 0.14890  0.23680  0.56970  Biso   1.000  H
  C23      1.0000 0.22680  0.25710  0.55110  Biso   1.000  C
  H11      1.0000 0.22310  0.27890  0.49300  Biso   1.000  H
  C24      1.0000 0.27630  0.24930  0.59370  Biso   1.000  C
  H12      1.0000 0.30630  0.26560  0.56340  Biso   1.000  H
  C25      1.0000 0.34470  0.27910  0.83190  Biso   1.000  C
  C26      1.0000 0.10180  0.23930  0.16540  Biso   1.000  C
  C27      1.0000 0.91380  0.32280  0.84080  Biso   1.000  C
  C28      1.0000 0.35930  0.11960  0.68620  Biso   1.000  C
  C29      1.0000 0.10340  0.22650  0.82970  Biso   1.000  C
  C30      1.0000 0.07000  0.16360  0.66840  Biso   1.000  C
  C31      1.0000 0.08330  0.10300  0.84820  Biso   1.000  C
  C32      1.0000 0.15140  0.07510  0.68700  Biso   1.000  C
  N13      1.0000 0.19797  0.13980  0.85070  Biso   1.000  N
  N14      1.0000 0.29209  0.15710  0.84770  Biso   1.000  N
  N15      1.0000 0.18785  0.19996  0.68040  Biso   1.000  N
  N16      1.0000 0.28168  0.21822  0.67920  Biso   1.000  N
  N17      1.0000 0.34240  0.32470  0.87130  Biso   1.000  N
  N18      1.0000 0.07680  0.26830  0.10870  Biso   1.000  N
  N19      1.0000 0.95080  0.33350  0.88810  Biso   1.000  N
  N20      1.0000 0.36440  0.07370  0.64510  Biso   1.000  N
  N21      1.0000 0.08510  0.26860  0.86670  Biso   1.000  N
  N22      1.0000 0.03450  0.17100  0.61610  Biso   1.000  N
  N23      1.0000 0.05787  0.07440  0.90150  Biso   1.000  N
  N24      1.0000 0.16360  0.03180  0.64580  Biso   1.000  N
  O5       1.0000 0.00190  0.43310  0.00870  Biso   1.000  O
  O6       1.0000 0.95530  0.08160  0.57460  Biso   1.000  O
  O7       1.0000 0.10700  0.38470  0.02610  Biso   1.000  O
  O8       1.0000 0.87020  0.14140  0.48170  Biso   1.000  O
  Gd3      1.0000 0.96709  0.17133  0.48271  Biso   1.000  Gd
  Ru5      1.0000 0.64863  0.30131  0.25896  Biso   1.000  Ru
  Ru6      1.0000 0.87062  0.34879  0.26092  Biso   1.000  Ru
  C33      1.0000 0.75756  0.33720  0.31180  Biso   1.000  C
  C34      1.0000 0.79710  0.39060  0.43540  Biso   1.000  C
  H13      1.0000 0.82710  0.40610  0.46620  Biso   1.000  H
  C35      1.0000 0.74750  0.39880  0.47710  Biso   1.000  C
  H14      1.0000 0.74410  0.42040  0.53550  Biso   1.000  H
  C36      1.0000 0.70340  0.37500  0.43200  Biso   1.000  C
  H15      1.0000 0.67000  0.38100  0.45970  Biso   1.000  H
  C37      1.0000 0.76326  0.30420  0.21900  Biso   1.000  C
  C38      1.0000 0.81750  0.26840  0.09720  Biso   1.000  C
  H16      1.0000 0.85110  0.26320  0.06970  Biso   1.000  H
  C39      1.0000 0.77320  0.24290  0.05110  Biso   1.000  C
  H17      1.0000 0.77690  0.22110  0.99300  Biso   1.000  H
  C40      1.0000 0.72370  0.25070  0.09370  Biso   1.000  C
  H18      1.0000 0.69370  0.23440  0.06340  Biso   1.000  H
  C41      1.0000 0.65530  0.22090  0.33190  Biso   1.000  C
  C42      1.0000 0.89820  0.26070  0.66540  Biso   1.000  C
  C43      1.0000 0.08620  0.17720  0.34080  Biso   1.000  C
  C44      1.0000 0.64070  0.38040  0.18620  Biso   1.000  C
  C45      1.0000 0.89660  0.27350  0.32970  Biso   1.000  C
  C46      1.0000 0.93000  0.33640  0.16840  Biso   1.000  C
  C47      1.0000 0.91670  0.39700  0.34820  Biso   1.000  C
  C48      1.0000 0.84860  0.42490  0.18700  Biso   1.000  C
  N25      1.0000 0.80203  0.36020  0.35070  Biso   1.000  N
  N26      1.0000 0.70791  0.34290  0.34770  Biso   1.000  N
  N27      1.0000 0.81215  0.30004  0.18040  Biso   1.000  N
  N28      1.0000 0.71832  0.28178  0.17920  Biso   1.000  N
  N29      1.0000 0.65760  0.17530  0.37130  Biso   1.000  N
  N30      1.0000 0.92320  0.23170  0.60870  Biso   1.000  N
  N31      1.0000 0.04920  0.16650  0.38810  Biso   1.000  N
  N32      1.0000 0.63560  0.42630  0.14510  Biso   1.000  N
  N33      1.0000 0.91490  0.23140  0.36670  Biso   1.000  N
  N34      1.0000 0.96550  0.32900  0.11610  Biso   1.000  N
  N35      1.0000 0.94213  0.42560  0.40150  Biso   1.000  N
  N36      1.0000 0.83640  0.46820  0.14580  Biso   1.000  N
  O9       1.0000 0.99810  0.06690  0.50870  Biso   1.000  O
  O10      1.0000 0.04470  0.41840  0.07460  Biso   1.000  O
  O11      1.0000 0.89300  0.11530  0.52610  Biso   1.000  O
  O12      1.0000 0.12980  0.35860  0.98170  Biso   1.000  O
  Gd4      1.0000 0.96709  0.67133  0.98271  Biso   1.000  Gd
  Ru7      1.0000 0.64863  0.80131  0.75896  Biso   1.000  Ru
  Ru8      1.0000 0.87062  0.84879  0.76092  Biso   1.000  Ru
  C49      1.0000 0.75756  0.83720  0.81180  Biso   1.000  C
  C50      1.0000 0.79710  0.89060  0.93540  Biso   1.000  C
  H19      1.0000 0.82710  0.90610  0.96620  Biso   1.000  H
  C51      1.0000 0.74750  0.89880  0.97710  Biso   1.000  C
  H20      1.0000 0.74410  0.92040  0.03550  Biso   1.000  H
  C52      1.0000 0.70340  0.87500  0.93200  Biso   1.000  C
  H21      1.0000 0.67000  0.88100  0.95970  Biso   1.000  H
  C53      1.0000 0.76326  0.80420  0.71900  Biso   1.000  C
  C54      1.0000 0.81750  0.76840  0.59720  Biso   1.000  C
  H22      1.0000 0.85110  0.76320  0.56970  Biso   1.000  H
  C55      1.0000 0.77320  0.74290  0.55110  Biso   1.000  C
  H23      1.0000 0.77690  0.72110  0.49300  Biso   1.000  H
  C56      1.0000 0.72370  0.75070  0.59370  Biso   1.000  C
  H24      1.0000 0.69370  0.73440  0.56340  Biso   1.000  H
  C57      1.0000 0.65530  0.72090  0.83190  Biso   1.000  C
  C58      1.0000 0.89820  0.76070  0.16540  Biso   1.000  C
  C59      1.0000 0.08620  0.67720  0.84080  Biso   1.000  C
  C60      1.0000 0.64070  0.88040  0.68620  Biso   1.000  C
  C61      1.0000 0.89660  0.77350  0.82970  Biso   1.000  C
  C62      1.0000 0.93000  0.83640  0.66840  Biso   1.000  C
  C63      1.0000 0.91670  0.89700  0.84820  Biso   1.000  C
  C64      1.0000 0.84860  0.92490  0.68700  Biso   1.000  C
  N37      1.0000 0.80203  0.86020  0.85070  Biso   1.000  N
  N38      1.0000 0.70791  0.84290  0.84770  Biso   1.000  N
  N39      1.0000 0.81215  0.80004  0.68040  Biso   1.000  N
  N40      1.0000 0.71832  0.78178  0.67920  Biso   1.000  N
  N41      1.0000 0.65760  0.67530  0.87130  Biso   1.000  N
  N42      1.0000 0.92320  0.73170  0.10870  Biso   1.000  N
  N43      1.0000 0.04920  0.66650  0.88810  Biso   1.000  N
  N44      1.0000 0.63560  0.92630  0.64510  Biso   1.000  N
  N45      1.0000 0.91490  0.73140  0.86670  Biso   1.000  N
  N46      1.0000 0.96550  0.82900  0.61610  Biso   1.000  N
  N47      1.0000 0.94213  0.92560  0.90150  Biso   1.000  N
  N48      1.0000 0.83640  0.96820  0.64580  Biso   1.000  N
  O13      1.0000 0.99810  0.56690  0.00870  Biso   1.000  O
  O14      1.0000 0.04470  0.91840  0.57460  Biso   1.000  O
  O15      1.0000 0.89300  0.61530  0.02610  Biso   1.000  O
  O16      1.0000 0.12980  0.85860  0.48170  Biso   1.000  O
  Gd5      1.0000 0.53291  0.67133  0.48271  Biso   1.000  Gd
  Ru9      1.0000 0.85137  0.80131  0.25896  Biso   1.000  Ru
  Ru10     1.0000 0.62938  0.84879  0.26092  Biso   1.000  Ru
  C65      1.0000 0.74244  0.83720  0.31180  Biso   1.000  C
  C66      1.0000 0.70290  0.89060  0.43540  Biso   1.000  C
  H25      1.0000 0.67290  0.90610  0.46620  Biso   1.000  H
  C67      1.0000 0.75250  0.89880  0.47710  Biso   1.000  C
  H26      1.0000 0.75590  0.92040  0.53550  Biso   1.000  H
  C68      1.0000 0.79660  0.87500  0.43200  Biso   1.000  C
  H27      1.0000 0.83000  0.88100  0.45970  Biso   1.000  H
  C69      1.0000 0.73674  0.80420  0.21900  Biso   1.000  C
  C70      1.0000 0.68250  0.76840  0.09720  Biso   1.000  C
  H28      1.0000 0.64890  0.76320  0.06970  Biso   1.000  H
  C71      1.0000 0.72680  0.74290  0.05110  Biso   1.000  C
  H29      1.0000 0.72310  0.72110  0.99300  Biso   1.000  H
  C72      1.0000 0.77630  0.75070  0.09370  Biso   1.000  C
  H30      1.0000 0.80630  0.73440  0.06340  Biso   1.000  H
  C73      1.0000 0.84470  0.72090  0.33190  Biso   1.000  C
  C74      1.0000 0.60180  0.76070  0.66540  Biso   1.000  C
  C75      1.0000 0.41380  0.67720  0.34080  Biso   1.000  C
  C76      1.0000 0.85930  0.88040  0.18620  Biso   1.000  C
  C77      1.0000 0.60340  0.77350  0.32970  Biso   1.000  C
  C78      1.0000 0.57000  0.83640  0.16840  Biso   1.000  C
  C79      1.0000 0.58330  0.89700  0.34820  Biso   1.000  C
  C80      1.0000 0.65140  0.92490  0.18700  Biso   1.000  C
  N49      1.0000 0.69797  0.86020  0.35070  Biso   1.000  N
  N50      1.0000 0.79209  0.84290  0.34770  Biso   1.000  N
  N51      1.0000 0.68785  0.80004  0.18040  Biso   1.000  N
  N52      1.0000 0.78168  0.78178  0.17920  Biso   1.000  N
  N53      1.0000 0.84240  0.67530  0.37130  Biso   1.000  N
  N54      1.0000 0.57680  0.73170  0.60870  Biso   1.000  N
  N55      1.0000 0.45080  0.66650  0.38810  Biso   1.000  N
  N56      1.0000 0.86440  0.92630  0.14510  Biso   1.000  N
  N57      1.0000 0.58510  0.73140  0.36670  Biso   1.000  N
  N58      1.0000 0.53450  0.82900  0.11610  Biso   1.000  N
  N59      1.0000 0.55787  0.92560  0.40150  Biso   1.000  N
  N60      1.0000 0.66360  0.96820  0.14580  Biso   1.000  N
  O17      1.0000 0.50190  0.56690  0.50870  Biso   1.000  O
  O18      1.0000 0.45530  0.91840  0.07460  Biso   1.000  O
  O19      1.0000 0.60700  0.61530  0.52610  Biso   1.000  O
  O20      1.0000 0.37020  0.85860  0.98170  Biso   1.000  O
  Gd6      1.0000 0.53291  0.17133  0.98271  Biso   1.000  Gd
  Ru11     1.0000 0.85137  0.30131  0.75896  Biso   1.000  Ru
  Ru12     1.0000 0.62938  0.34879  0.76092  Biso   1.000  Ru
  C81      1.0000 0.74244  0.33720  0.81180  Biso   1.000  C
  C82      1.0000 0.70290  0.39060  0.93540  Biso   1.000  C
  H31      1.0000 0.67290  0.40610  0.96620  Biso   1.000  H
  C83      1.0000 0.75250  0.39880  0.97710  Biso   1.000  C
  H32      1.0000 0.75590  0.42040  0.03550  Biso   1.000  H
  C84      1.0000 0.79660  0.37500  0.93200  Biso   1.000  C
  H33      1.0000 0.83000  0.38100  0.95970  Biso   1.000  H
  C85      1.0000 0.73674  0.30420  0.71900  Biso   1.000  C
  C86      1.0000 0.68250  0.26840  0.59720  Biso   1.000  C
  H34      1.0000 0.64890  0.26320  0.56970  Biso   1.000  H
  C87      1.0000 0.72680  0.24290  0.55110  Biso   1.000  C
  H35      1.0000 0.72310  0.22110  0.49300  Biso   1.000  H
  C88      1.0000 0.77630  0.25070  0.59370  Biso   1.000  C
  H36      1.0000 0.80630  0.23440  0.56340  Biso   1.000  H
  C89      1.0000 0.84470  0.22090  0.83190  Biso   1.000  C
  C90      1.0000 0.60180  0.26070  0.16540  Biso   1.000  C
  C91      1.0000 0.41380  0.17720  0.84080  Biso   1.000  C
  C92      1.0000 0.85930  0.38040  0.68620  Biso   1.000  C
  C93      1.0000 0.60340  0.27350  0.82970  Biso   1.000  C
  C94      1.0000 0.57000  0.33640  0.66840  Biso   1.000  C
  C95      1.0000 0.58330  0.39700  0.84820  Biso   1.000  C
  C96      1.0000 0.65140  0.42490  0.68700  Biso   1.000  C
  N61      1.0000 0.69797  0.36020  0.85070  Biso   1.000  N
  N62      1.0000 0.79209  0.34290  0.84770  Biso   1.000  N
  N63      1.0000 0.68785  0.30004  0.68040  Biso   1.000  N
  N64      1.0000 0.78168  0.28178  0.67920  Biso   1.000  N
  N65      1.0000 0.84240  0.17530  0.87130  Biso   1.000  N
  N66      1.0000 0.57680  0.23170  0.10870  Biso   1.000  N
  N67      1.0000 0.45080  0.16650  0.88810  Biso   1.000  N
  N68      1.0000 0.86440  0.42630  0.64510  Biso   1.000  N
  N69      1.0000 0.58510  0.23140  0.86670  Biso   1.000  N
  N70      1.0000 0.53450  0.32900  0.61610  Biso   1.000  N
  N71      1.0000 0.55787  0.42560  0.90150  Biso   1.000  N
  N72      1.0000 0.66360  0.46820  0.64580  Biso   1.000  N
  O21      1.0000 0.50190  0.06690  0.00870  Biso   1.000  O
  O22      1.0000 0.45530  0.41840  0.57460  Biso   1.000  O
  O23      1.0000 0.60700  0.11530  0.02610  Biso   1.000  O
  O24      1.0000 0.37020  0.35860  0.48170  Biso   1.000  O
  Gd7      1.0000 0.46709  0.32867  0.48271  Biso   1.000  Gd
  Ru13     1.0000 0.14863  0.19869  0.25896  Biso   1.000  Ru
  Ru14     1.0000 0.37062  0.15121  0.26092  Biso   1.000  Ru
  C97      1.0000 0.25756  0.16280  0.31180  Biso   1.000  C
  C98      1.0000 0.29710  0.10940  0.43540  Biso   1.000  C
  H37      1.0000 0.32710  0.09390  0.46620  Biso   1.000  H
  C99      1.0000 0.24750  0.10120  0.47710  Biso   1.000  C
  H38      1.0000 0.24410  0.07960  0.53550  Biso   1.000  H
  C100     1.0000 0.20340  0.12500  0.43200  Biso   1.000  C
  H39      1.0000 0.17000  0.11900  0.45970  Biso   1.000  H
  C101     1.0000 0.26326  0.19580  0.21900  Biso   1.000  C
  C102     1.0000 0.31750  0.23160  0.09720  Biso   1.000  C
  H40      1.0000 0.35110  0.23680  0.06970  Biso   1.000  H
  C103     1.0000 0.27320  0.25710  0.05110  Biso   1.000  C
  H41      1.0000 0.27690  0.27890  0.99300  Biso   1.000  H
  C104     1.0000 0.22370  0.24930  0.09370  Biso   1.000  C
  H42      1.0000 0.19370  0.26560  0.06340  Biso   1.000  H
  C105     1.0000 0.15530  0.27910  0.33190  Biso   1.000  C
  C106     1.0000 0.39820  0.23930  0.66540  Biso   1.000  C
  C107     1.0000 0.58620  0.32280  0.34080  Biso   1.000  C
  C108     1.0000 0.14070  0.11960  0.18620  Biso   1.000  C
  C109     1.0000 0.39660  0.22650  0.32970  Biso   1.000  C
  C110     1.0000 0.43000  0.16360  0.16840  Biso   1.000  C
  C111     1.0000 0.41670  0.10300  0.34820  Biso   1.000  C
  C112     1.0000 0.34860  0.07510  0.18700  Biso   1.000  C
  N73      1.0000 0.30203  0.13980  0.35070  Biso   1.000  N
  N74      1.0000 0.20791  0.15710  0.34770  Biso   1.000  N
  N75      1.0000 0.31215  0.19996  0.18040  Biso   1.000  N
  N76      1.0000 0.21832  0.21822  0.17920  Biso   1.000  N
  N77      1.0000 0.15760  0.32470  0.37130  Biso   1.000  N
  N78      1.0000 0.42320  0.26830  0.60870  Biso   1.000  N
  N79      1.0000 0.54920  0.33350  0.38810  Biso   1.000  N
  N80      1.0000 0.13560  0.07370  0.14510  Biso   1.000  N
  N81      1.0000 0.41490  0.26860  0.36670  Biso   1.000  N
  N82      1.0000 0.46550  0.17100  0.11610  Biso   1.000  N
  N83      1.0000 0.44213  0.07440  0.40150  Biso   1.000  N
  N84      1.0000 0.33640  0.03180  0.14580  Biso   1.000  N
  O25      1.0000 0.49810  0.43310  0.50870  Biso   1.000  O
  O26      1.0000 0.54470  0.08160  0.07460  Biso   1.000  O
  O27      1.0000 0.39300  0.38470  0.52610  Biso   1.000  O
  O28      1.0000 0.62980  0.14140  0.98170  Biso   1.000  O
  Gd8      1.0000 0.46709  0.82867  0.98271  Biso   1.000  Gd
  Ru15     1.0000 0.14863  0.69869  0.75896  Biso   1.000  Ru
  Ru16     1.0000 0.37062  0.65121  0.76092  Biso   1.000  Ru
  C113     1.0000 0.25756  0.66280  0.81180  Biso   1.000  C
  C114     1.0000 0.29710  0.60940  0.93540  Biso   1.000  C
  H43      1.0000 0.32710  0.59390  0.96620  Biso   1.000  H
  C115     1.0000 0.24750  0.60120  0.97710  Biso   1.000  C
  H44      1.0000 0.24410  0.57960  0.03550  Biso   1.000  H
  C116     1.0000 0.20340  0.62500  0.93200  Biso   1.000  C
  H45      1.0000 0.17000  0.61900  0.95970  Biso   1.000  H
  C117     1.0000 0.26326  0.69580  0.71900  Biso   1.000  C
  C118     1.0000 0.31750  0.73160  0.59720  Biso   1.000  C
  H46      1.0000 0.35110  0.73680  0.56970  Biso   1.000  H
  C119     1.0000 0.27320  0.75710  0.55110  Biso   1.000  C
  H47      1.0000 0.27690  0.77890  0.49300  Biso   1.000  H
  C120     1.0000 0.22370  0.74930  0.59370  Biso   1.000  C
  H48      1.0000 0.19370  0.76560  0.56340  Biso   1.000  H
  C121     1.0000 0.15530  0.77910  0.83190  Biso   1.000  C
  C122     1.0000 0.39820  0.73930  0.16540  Biso   1.000  C
  C123     1.0000 0.58620  0.82280  0.84080  Biso   1.000  C
  C124     1.0000 0.14070  0.61960  0.68620  Biso   1.000  C
  C125     1.0000 0.39660  0.72650  0.82970  Biso   1.000  C
  C126     1.0000 0.43000  0.66360  0.66840  Biso   1.000  C
  C127     1.0000 0.41670  0.60300  0.84820  Biso   1.000  C
  C128     1.0000 0.34860  0.57510  0.68700  Biso   1.000  C
  N85      1.0000 0.30203  0.63980  0.85070  Biso   1.000  N
  N86      1.0000 0.20791  0.65710  0.84770  Biso   1.000  N
  N87      1.0000 0.31215  0.69996  0.68040  Biso   1.000  N
  N88      1.0000 0.21832  0.71822  0.67920  Biso   1.000  N
  N89      1.0000 0.15760  0.82470  0.87130  Biso   1.000  N
  N90      1.0000 0.42320  0.76830  0.10870  Biso   1.000  N
  N91      1.0000 0.54920  0.83350  0.88810  Biso   1.000  N
  N92      1.0000 0.13560  0.57370  0.64510  Biso   1.000  N
  N93      1.0000 0.41490  0.76860  0.86670  Biso   1.000  N
  N94      1.0000 0.46550  0.67100  0.61610  Biso   1.000  N
  N95      1.0000 0.44213  0.57440  0.90150  Biso   1.000  N
  N96      1.0000 0.33640  0.53180  0.64580  Biso   1.000  N
  O29      1.0000 0.49810  0.93310  0.00870  Biso   1.000  O
  O30      1.0000 0.54470  0.58160  0.57460  Biso   1.000  O
  O31      1.0000 0.39300  0.88470  0.02610  Biso   1.000  O
  O32      1.0000 0.62980  0.64140  0.48170  Biso   1.000  O
  Gd9      1.0000 0.00000  0.50000  0.48378  Biso   1.000  Gd
  Gd10     1.0000 0.00000  0.00000  0.98378  Biso   1.000  Gd
  Gd11     1.0000 0.50000  0.00000  0.48378  Biso   1.000  Gd
  Gd12     1.0000 0.50000  0.50000  0.98378  Biso   1.000  Gd
