data_image0
_cell_length_a       12.3768
_cell_length_b       13.1438
_cell_length_c       14.3078
_cell_angle_alpha    81.532
_cell_angle_beta     77.86
_cell_angle_gamma    89.426

_symmetry_space_group_name_H-M    "P 1"
_symmetry_int_tables_number       1

loop_
  _symmetry_equiv_pos_as_xyz
  'x, y, z'

loop_
  _atom_site_label
  _atom_site_occupancy
  _atom_site_fract_x
  _atom_site_fract_y
  _atom_site_fract_z
  _atom_site_thermal_displace_type
  _atom_site_B_iso_or_equiv
  _atom_site_type_symbol
  Yb1      1.0000 0.67802  0.86346  0.66556  Biso   1.000  Yb
  Yb2      1.0000 0.39802  0.40956  0.77536  Biso   1.000  Yb
  Ru1      1.0000 0.65895  0.25957  0.48300  Biso   1.000  Ru
  Ru2      1.0000 0.26403  0.66246  0.04309  Biso   1.000  Ru
  N1       1.0000 0.80620  0.31130  0.51430  Biso   1.000  N
  C1       1.0000 0.81690  0.36500  0.58620  Biso   1.000  C
  H1       1.0000 0.75280  0.38550  0.62800  Biso   1.000  H
  C2       1.0000 0.91990  0.39000  0.59870  Biso   1.000  C
  H2       1.0000 0.92810  0.42800  0.64840  Biso   1.000  H
  C3       1.0000 0.01140  0.35830  0.53720  Biso   1.000  C
  H3       1.0000 0.08280  0.37260  0.54720  Biso   1.000  H
  O1       1.0000 0.70390  0.90560  0.81440  Biso   1.000  O
  O2       1.0000 0.73980  0.84800  0.81310  Biso   1.000  O
  N2       1.0000 0.00310  0.30880  0.46470  Biso   1.000  N
  O3       1.0000 0.79390  0.73690  0.70080  Biso   1.000  O
  O4       1.0000 0.78470  0.71520  0.66310  Biso   1.000  O
  C4       1.0000 0.90150  0.28760  0.45540  Biso   1.000  C
  N3       1.0000 0.78010  0.22270  0.36680  Biso   1.000  N
  C5       1.0000 0.76300  0.17960  0.29120  Biso   1.000  C
  H4       1.0000 0.69000  0.17020  0.28230  Biso   1.000  H
  C6       1.0000 0.85280  0.14910  0.22650  Biso   1.000  C
  H5       1.0000 0.84190  0.11730  0.17360  Biso   1.000  H
  C7       1.0000 0.95360  0.16460  0.23910  Biso   1.000  C
  H6       1.0000 0.01480  0.14390  0.19420  Biso   1.000  H
  N4       1.0000 0.97250  0.20880  0.31340  Biso   1.000  N
  C8       1.0000 0.88530  0.23760  0.37310  Biso   1.000  C
  N5       1.0000 0.10940  0.66460  0.00370  Biso   1.000  N
  C9       1.0000 0.07950  0.61520  0.93730  Biso   1.000  C
  H7       1.0000 0.13260  0.57590  0.90060  Biso   1.000  H
  C10      1.0000 0.97370  0.62000  0.92090  Biso   1.000  C
  H8       1.0000 0.95110  0.58510  0.87430  Biso   1.000  H
  C11      1.0000 0.89990  0.68210  0.98000  Biso   1.000  C
  H9       1.0000 0.82650  0.68980  0.97020  Biso   1.000  H
  N6       1.0000 0.92740  0.72750  0.04480  Biso   1.000  N
  C12      1.0000 0.03080  0.71850  0.05530  Biso   1.000  C
  N7       1.0000 0.16950  0.75590  0.13650  Biso   1.000  N
  C13      1.0000 0.20430  0.80450  0.20200  Biso   1.000  C
  H10      1.0000 0.27850  0.79780  0.20990  Biso   1.000  H
  C14      1.0000 0.13290  0.86330  0.25710  Biso   1.000  C
  H11      1.0000 0.15690  0.89650  0.30400  Biso   1.000  H
  C15      1.0000 0.03280  0.87330  0.24500  Biso   1.000  C
  H12      1.0000 0.98440  0.91430  0.28400  Biso   1.000  H
  N8       1.0000 0.99330  0.82820  0.17920  Biso   1.000  N
  C16      1.0000 0.06690  0.77030  0.12840  Biso   1.000  C
  C17      1.0000 0.67530  0.11680  0.55370  Biso   1.000  C
  N9       1.0000 0.68270  0.03280  0.59110  Biso   1.000  N
  C18      1.0000 0.55650  0.29390  0.59810  Biso   1.000  C
  N10      1.0000 0.49570  0.31100  0.66620  Biso   1.000  N
  C19      1.0000 0.47040  0.78940  0.55980  Biso   1.000  C
  N11      1.0000 0.54430  0.81500  0.58790  Biso   1.000  N
  C20      1.0000 0.63780  0.39810  0.40720  Biso   1.000  C
  N12      1.0000 0.62090  0.47320  0.36080  Biso   1.000  N
  C21      1.0000 0.31790  0.79040  0.94680  Biso   1.000  C
  N13      1.0000 0.35160  0.86410  0.89380  Biso   1.000  N
  C22      1.0000 0.33370  0.57520  0.94680  Biso   1.000  C
  N14      1.0000 0.36840  0.52480  0.88900  Biso   1.000  N
  C23      1.0000 0.60210  0.33780  0.90580  Biso   1.000  C
  N15      1.0000 0.52410  0.34680  0.87250  Biso   1.000  N
  C24      1.0000 0.22530  0.53650  0.14590  Biso   1.000  C
  N16      1.0000 0.21800  0.46470  0.20660  Biso   1.000  N
  N17      1.0000 0.17980  0.39810  0.74340  Biso   1.000  N
  O5       1.0000 0.20880  0.44830  0.80630  Biso   1.000  O
  O6       1.0000 0.25230  0.34110  0.70280  Biso   1.000  O
  O7       1.0000 0.08740  0.40380  0.72880  Biso   1.000  O
  N18      1.0000 0.95280  0.96290  0.55940  Biso   1.000  N
  O8       1.0000 0.86730  0.92810  0.63540  Biso   1.000  O
  O9       1.0000 0.03270  0.01650  0.56950  Biso   1.000  O
  O10      1.0000 0.96800  0.93280  0.48070  Biso   1.000  O
  Yb3      1.0000 0.32198  0.13654  0.33444  Biso   1.000  Yb
  Yb4      1.0000 0.60198  0.59044  0.22464  Biso   1.000  Yb
  Ru3      1.0000 0.34105  0.74043  0.51700  Biso   1.000  Ru
  Ru4      1.0000 0.73597  0.33754  0.95691  Biso   1.000  Ru
  N19      1.0000 0.19380  0.68870  0.48570  Biso   1.000  N
  C25      1.0000 0.18310  0.63500  0.41380  Biso   1.000  C
  H13      1.0000 0.24720  0.61450  0.37200  Biso   1.000  H
  C26      1.0000 0.08010  0.61000  0.40130  Biso   1.000  C
  H14      1.0000 0.07190  0.57200  0.35160  Biso   1.000  H
  C27      1.0000 0.98860  0.64170  0.46280  Biso   1.000  C
  H15      1.0000 0.91720  0.62740  0.45280  Biso   1.000  H
  O11      1.0000 0.29610  0.09440  0.18560  Biso   1.000  O
  O12      1.0000 0.26020  0.15200  0.18690  Biso   1.000  O
  N20      1.0000 0.99690  0.69120  0.53530  Biso   1.000  N
  O13      1.0000 0.20610  0.26310  0.29920  Biso   1.000  O
  O14      1.0000 0.21530  0.28480  0.33690  Biso   1.000  O
  C28      1.0000 0.09850  0.71240  0.54460  Biso   1.000  C
  N21      1.0000 0.21990  0.77730  0.63320  Biso   1.000  N
  C29      1.0000 0.23700  0.82040  0.70880  Biso   1.000  C
  H16      1.0000 0.31000  0.82980  0.71770  Biso   1.000  H
  C30      1.0000 0.14720  0.85090  0.77350  Biso   1.000  C
  H17      1.0000 0.15810  0.88270  0.82640  Biso   1.000  H
  C31      1.0000 0.04640  0.83540  0.76090  Biso   1.000  C
  H18      1.0000 0.98520  0.85610  0.80580  Biso   1.000  H
  N22      1.0000 0.02750  0.79120  0.68660  Biso   1.000  N
  C32      1.0000 0.11470  0.76240  0.62690  Biso   1.000  C
  N23      1.0000 0.89060  0.33540  0.99630  Biso   1.000  N
  C33      1.0000 0.92050  0.38480  0.06270  Biso   1.000  C
  H19      1.0000 0.86740  0.42410  0.09940  Biso   1.000  H
  C34      1.0000 0.02630  0.38000  0.07910  Biso   1.000  C
  H20      1.0000 0.04890  0.41490  0.12570  Biso   1.000  H
  C35      1.0000 0.10010  0.31790  0.02000  Biso   1.000  C
  H21      1.0000 0.17350  0.31020  0.02980  Biso   1.000  H
  N24      1.0000 0.07260  0.27250  0.95520  Biso   1.000  N
  C36      1.0000 0.96920  0.28150  0.94470  Biso   1.000  C
  N25      1.0000 0.83050  0.24410  0.86350  Biso   1.000  N
  C37      1.0000 0.79570  0.19550  0.79800  Biso   1.000  C
  H22      1.0000 0.72150  0.20220  0.79010  Biso   1.000  H
  C38      1.0000 0.86710  0.13670  0.74290  Biso   1.000  C
  H23      1.0000 0.84310  0.10350  0.69600  Biso   1.000  H
  C39      1.0000 0.96720  0.12670  0.75500  Biso   1.000  C
  H24      1.0000 0.01560  0.08570  0.71600  Biso   1.000  H
  N26      1.0000 0.00670  0.17180  0.82080  Biso   1.000  N
  C40      1.0000 0.93310  0.22970  0.87160  Biso   1.000  C
  C41      1.0000 0.32470  0.88320  0.44630  Biso   1.000  C
  N27      1.0000 0.31730  0.96720  0.40890  Biso   1.000  N
  C42      1.0000 0.44350  0.70610  0.40190  Biso   1.000  C
  N28      1.0000 0.50430  0.68900  0.33380  Biso   1.000  N
  C43      1.0000 0.52960  0.21060  0.44020  Biso   1.000  C
  N29      1.0000 0.45570  0.18500  0.41210  Biso   1.000  N
  C44      1.0000 0.36220  0.60190  0.59280  Biso   1.000  C
  N30      1.0000 0.37910  0.52680  0.63920  Biso   1.000  N
  C45      1.0000 0.68210  0.20960  0.05320  Biso   1.000  C
  N31      1.0000 0.64840  0.13590  0.10620  Biso   1.000  N
  C46      1.0000 0.66630  0.42480  0.05320  Biso   1.000  C
  N32      1.0000 0.63160  0.47520  0.11100  Biso   1.000  N
  C47      1.0000 0.39790  0.66220  0.09420  Biso   1.000  C
  N33      1.0000 0.47590  0.65320  0.12750  Biso   1.000  N
  C48      1.0000 0.77470  0.46350  0.85410  Biso   1.000  C
  N34      1.0000 0.78200  0.53530  0.79340  Biso   1.000  N
  N35      1.0000 0.82020  0.60190  0.25660  Biso   1.000  N
  O15      1.0000 0.79120  0.55170  0.19370  Biso   1.000  O
  O16      1.0000 0.74770  0.65890  0.29720  Biso   1.000  O
  O17      1.0000 0.91260  0.59620  0.27120  Biso   1.000  O
  N36      1.0000 0.04720  0.03710  0.44060  Biso   1.000  N
  O18      1.0000 0.13270  0.07190  0.36460  Biso   1.000  O
  O19      1.0000 0.96730  0.98350  0.43050  Biso   1.000  O
  O20      1.0000 0.03200  0.06720  0.51930  Biso   1.000  O
