data_image0
_cell_length_a       24.9856
_cell_length_b       21.9719
_cell_length_c       13.483
_cell_angle_alpha    90
_cell_angle_beta     90
_cell_angle_gamma    90

_symmetry_space_group_name_H-M    "P 1"
_symmetry_int_tables_number       1

loop_
  _symmetry_equiv_pos_as_xyz
  'x, y, z'

loop_
  _atom_site_label
  _atom_site_occupancy
  _atom_site_fract_x
  _atom_site_fract_y
  _atom_site_fract_z
  _atom_site_thermal_displace_type
  _atom_site_B_iso_or_equiv
  _atom_site_type_symbol
  Yb1      1.0000 0.03149  0.32798  0.50086  Biso   1.000  Yb
  Ru1      1.0000 0.87128  0.34820  0.77940  Biso   1.000  Ru
  Ru2      1.0000 0.64833  0.29875  0.77681  Biso   1.000  Ru
  C1       1.0000 0.75754  0.33610  0.83030  Biso   1.000  C
  C2       1.0000 0.79650  0.39100  0.95400  Biso   1.000  C
  H1       1.0000 0.82720  0.40760  0.98540  Biso   1.000  H
  C3       1.0000 0.74698  0.39940  0.99620  Biso   1.000  C
  H2       1.0000 0.74330  0.42210  0.05580  Biso   1.000  H
  C4       1.0000 0.76376  0.30220  0.73620  Biso   1.000  C
  C5       1.0000 0.81760  0.26710  0.61330  Biso   1.000  C
  H3       1.0000 0.85200  0.26230  0.58430  Biso   1.000  H
  C6       1.0000 0.77400  0.24170  0.56700  Biso   1.000  C
  H4       1.0000 0.77800  0.21920  0.50720  Biso   1.000  H
  C7       1.0000 0.84920  0.42540  0.70530  Biso   1.000  C
  C8       1.0000 0.91770  0.39770  0.86720  Biso   1.000  C
  C9       1.0000 0.93090  0.33590  0.68540  Biso   1.000  C
  C10      1.0000 0.89770  0.27290  0.85110  Biso   1.000  C
  C11      1.0000 0.70260  0.37450  0.95060  Biso   1.000  C
  H5       1.0000 0.66810  0.38050  0.97870  Biso   1.000  H
  C12      1.0000 0.72400  0.24960  0.60970  Biso   1.000  C
  H6       1.0000 0.69320  0.23340  0.57780  Biso   1.000  H
  C13      1.0000 0.63927  0.37890  0.70330  Biso   1.000  C
  C14      1.0000 0.10140  0.24350  0.68200  Biso   1.000  C
  C15      1.0000 0.91500  0.31950  0.36020  Biso   1.000  C
  C16      1.0000 0.65560  0.21740  0.84940  Biso   1.000  C
  N1       1.0000 0.80226  0.35954  0.86870  Biso   1.000  N
  N2       1.0000 0.81306  0.29818  0.69770  Biso   1.000  N
  N3       1.0000 0.83710  0.46930  0.66410  Biso   1.000  N
  N4       1.0000 0.94328  0.42710  0.91970  Biso   1.000  N
  N5       1.0000 0.96649  0.32860  0.63130  Biso   1.000  N
  N6       1.0000 0.91630  0.23200  0.89100  Biso   1.000  N
  N7       1.0000 0.70772  0.34151  0.86600  Biso   1.000  N
  N8       1.0000 0.71855  0.27995  0.69600  Biso   1.000  N
  N9       1.0000 0.63410  0.42490  0.66350  Biso   1.000  N
  N10      1.0000 0.07640  0.27260  0.62560  Biso   1.000  N
  N11      1.0000 0.95140  0.32930  0.40830  Biso   1.000  N
  N12      1.0000 0.65810  0.17140  0.88810  Biso   1.000  N
  O1       1.0000 0.10500  0.38340  0.54020  Biso   1.000  O
  O2       1.0000 0.87540  0.13780  0.99620  Biso   1.000  O
  O3       1.0000 0.00280  0.43030  0.52330  Biso   1.000  O
  O4       1.0000 0.95920  0.08150  0.08790  Biso   1.000  O
  Yb2      1.0000 0.03149  0.82798  0.00086  Biso   1.000  Yb
  Ru3      1.0000 0.87128  0.84820  0.27940  Biso   1.000  Ru
  Ru4      1.0000 0.64833  0.79875  0.27681  Biso   1.000  Ru
  C17      1.0000 0.75754  0.83610  0.33030  Biso   1.000  C
  C18      1.0000 0.79650  0.89100  0.45400  Biso   1.000  C
  H7       1.0000 0.82720  0.90760  0.48540  Biso   1.000  H
  C19      1.0000 0.74698  0.89940  0.49620  Biso   1.000  C
  H8       1.0000 0.74330  0.92210  0.55580  Biso   1.000  H
  C20      1.0000 0.76376  0.80220  0.23620  Biso   1.000  C
  C21      1.0000 0.81760  0.76710  0.11330  Biso   1.000  C
  H9       1.0000 0.85200  0.76230  0.08430  Biso   1.000  H
  C22      1.0000 0.77400  0.74170  0.06700  Biso   1.000  C
  H10      1.0000 0.77800  0.71920  0.00720  Biso   1.000  H
  C23      1.0000 0.84920  0.92540  0.20530  Biso   1.000  C
  C24      1.0000 0.91770  0.89770  0.36720  Biso   1.000  C
  C25      1.0000 0.93090  0.83590  0.18540  Biso   1.000  C
  C26      1.0000 0.89770  0.77290  0.35110  Biso   1.000  C
  C27      1.0000 0.70260  0.87450  0.45060  Biso   1.000  C
  H11      1.0000 0.66810  0.88050  0.47870  Biso   1.000  H
  C28      1.0000 0.72400  0.74960  0.10970  Biso   1.000  C
  H12      1.0000 0.69320  0.73340  0.07780  Biso   1.000  H
  C29      1.0000 0.63927  0.87890  0.20330  Biso   1.000  C
  C30      1.0000 0.10140  0.74350  0.18200  Biso   1.000  C
  C31      1.0000 0.91500  0.81950  0.86020  Biso   1.000  C
  C32      1.0000 0.65560  0.71740  0.34940  Biso   1.000  C
  N13      1.0000 0.80226  0.85954  0.36870  Biso   1.000  N
  N14      1.0000 0.81306  0.79818  0.19770  Biso   1.000  N
  N15      1.0000 0.83710  0.96930  0.16410  Biso   1.000  N
  N16      1.0000 0.94328  0.92710  0.41970  Biso   1.000  N
  N17      1.0000 0.96649  0.82860  0.13130  Biso   1.000  N
  N18      1.0000 0.91630  0.73200  0.39100  Biso   1.000  N
  N19      1.0000 0.70772  0.84151  0.36600  Biso   1.000  N
  N20      1.0000 0.71855  0.77995  0.19600  Biso   1.000  N
  N21      1.0000 0.63410  0.92490  0.16350  Biso   1.000  N
  N22      1.0000 0.07640  0.77260  0.12560  Biso   1.000  N
  N23      1.0000 0.95140  0.82930  0.90830  Biso   1.000  N
  N24      1.0000 0.65810  0.67140  0.38810  Biso   1.000  N
  O5       1.0000 0.10500  0.88340  0.04020  Biso   1.000  O
  O6       1.0000 0.87540  0.63780  0.49620  Biso   1.000  O
  O7       1.0000 0.00280  0.93030  0.02330  Biso   1.000  O
  O8       1.0000 0.95920  0.58150  0.58790  Biso   1.000  O
  Yb3      1.0000 0.96851  0.67202  0.50086  Biso   1.000  Yb
  Ru5      1.0000 0.12872  0.65180  0.77940  Biso   1.000  Ru
  Ru6      1.0000 0.35167  0.70125  0.77681  Biso   1.000  Ru
  C33      1.0000 0.24246  0.66390  0.83030  Biso   1.000  C
  C34      1.0000 0.20350  0.60900  0.95400  Biso   1.000  C
  H13      1.0000 0.17280  0.59240  0.98540  Biso   1.000  H
  C35      1.0000 0.25302  0.60060  0.99620  Biso   1.000  C
  H14      1.0000 0.25670  0.57790  0.05580  Biso   1.000  H
  C36      1.0000 0.23624  0.69780  0.73620  Biso   1.000  C
  C37      1.0000 0.18240  0.73290  0.61330  Biso   1.000  C
  H15      1.0000 0.14800  0.73770  0.58430  Biso   1.000  H
  C38      1.0000 0.22600  0.75830  0.56700  Biso   1.000  C
  H16      1.0000 0.22200  0.78080  0.50720  Biso   1.000  H
  C39      1.0000 0.15080  0.57460  0.70530  Biso   1.000  C
  C40      1.0000 0.08230  0.60230  0.86720  Biso   1.000  C
  C41      1.0000 0.06910  0.66410  0.68540  Biso   1.000  C
  C42      1.0000 0.10230  0.72710  0.85110  Biso   1.000  C
  C43      1.0000 0.29740  0.62550  0.95060  Biso   1.000  C
  H17      1.0000 0.33190  0.61950  0.97870  Biso   1.000  H
  C44      1.0000 0.27600  0.75040  0.60970  Biso   1.000  C
  H18      1.0000 0.30680  0.76660  0.57780  Biso   1.000  H
  C45      1.0000 0.36073  0.62110  0.70330  Biso   1.000  C
  C46      1.0000 0.89860  0.75650  0.68200  Biso   1.000  C
  C47      1.0000 0.08500  0.68050  0.36020  Biso   1.000  C
  C48      1.0000 0.34440  0.78260  0.84940  Biso   1.000  C
  N25      1.0000 0.19774  0.64046  0.86870  Biso   1.000  N
  N26      1.0000 0.18694  0.70182  0.69770  Biso   1.000  N
  N27      1.0000 0.16290  0.53070  0.66410  Biso   1.000  N
  N28      1.0000 0.05672  0.57290  0.91970  Biso   1.000  N
  N29      1.0000 0.03351  0.67140  0.63130  Biso   1.000  N
  N30      1.0000 0.08370  0.76800  0.89100  Biso   1.000  N
  N31      1.0000 0.29228  0.65849  0.86600  Biso   1.000  N
  N32      1.0000 0.28145  0.72005  0.69600  Biso   1.000  N
  N33      1.0000 0.36590  0.57510  0.66350  Biso   1.000  N
  N34      1.0000 0.92360  0.72740  0.62560  Biso   1.000  N
  N35      1.0000 0.04860  0.67070  0.40830  Biso   1.000  N
  N36      1.0000 0.34190  0.82860  0.88810  Biso   1.000  N
  O9       1.0000 0.89500  0.61660  0.54020  Biso   1.000  O
  O10      1.0000 0.12460  0.86220  0.99620  Biso   1.000  O
  O11      1.0000 0.99720  0.56970  0.52330  Biso   1.000  O
  O12      1.0000 0.04080  0.91850  0.08790  Biso   1.000  O
  Yb4      1.0000 0.96851  0.17202  0.00086  Biso   1.000  Yb
  Ru7      1.0000 0.12872  0.15180  0.27940  Biso   1.000  Ru
  Ru8      1.0000 0.35167  0.20125  0.27681  Biso   1.000  Ru
  C49      1.0000 0.24246  0.16390  0.33030  Biso   1.000  C
  C50      1.0000 0.20350  0.10900  0.45400  Biso   1.000  C
  H19      1.0000 0.17280  0.09240  0.48540  Biso   1.000  H
  C51      1.0000 0.25302  0.10060  0.49620  Biso   1.000  C
  H20      1.0000 0.25670  0.07790  0.55580  Biso   1.000  H
  C52      1.0000 0.23624  0.19780  0.23620  Biso   1.000  C
  C53      1.0000 0.18240  0.23290  0.11330  Biso   1.000  C
  H21      1.0000 0.14800  0.23770  0.08430  Biso   1.000  H
  C54      1.0000 0.22600  0.25830  0.06700  Biso   1.000  C
  H22      1.0000 0.22200  0.28080  0.00720  Biso   1.000  H
  C55      1.0000 0.15080  0.07460  0.20530  Biso   1.000  C
  C56      1.0000 0.08230  0.10230  0.36720  Biso   1.000  C
  C57      1.0000 0.06910  0.16410  0.18540  Biso   1.000  C
  C58      1.0000 0.10230  0.22710  0.35110  Biso   1.000  C
  C59      1.0000 0.29740  0.12550  0.45060  Biso   1.000  C
  H23      1.0000 0.33190  0.11950  0.47870  Biso   1.000  H
  C60      1.0000 0.27600  0.25040  0.10970  Biso   1.000  C
  H24      1.0000 0.30680  0.26660  0.07780  Biso   1.000  H
  C61      1.0000 0.36073  0.12110  0.20330  Biso   1.000  C
  C62      1.0000 0.89860  0.25650  0.18200  Biso   1.000  C
  C63      1.0000 0.08500  0.18050  0.86020  Biso   1.000  C
  C64      1.0000 0.34440  0.28260  0.34940  Biso   1.000  C
  N37      1.0000 0.19774  0.14046  0.36870  Biso   1.000  N
  N38      1.0000 0.18694  0.20182  0.19770  Biso   1.000  N
  N39      1.0000 0.16290  0.03070  0.16410  Biso   1.000  N
  N40      1.0000 0.05672  0.07290  0.41970  Biso   1.000  N
  N41      1.0000 0.03351  0.17140  0.13130  Biso   1.000  N
  N42      1.0000 0.08370  0.26800  0.39100  Biso   1.000  N
  N43      1.0000 0.29228  0.15849  0.36600  Biso   1.000  N
  N44      1.0000 0.28145  0.22005  0.19600  Biso   1.000  N
  N45      1.0000 0.36590  0.07510  0.16350  Biso   1.000  N
  N46      1.0000 0.92360  0.22740  0.12560  Biso   1.000  N
  N47      1.0000 0.04860  0.17070  0.90830  Biso   1.000  N
  N48      1.0000 0.34190  0.32860  0.38810  Biso   1.000  N
  O13      1.0000 0.89500  0.11660  0.04020  Biso   1.000  O
  O14      1.0000 0.12460  0.36220  0.49620  Biso   1.000  O
  O15      1.0000 0.99720  0.06970  0.02330  Biso   1.000  O
  O16      1.0000 0.04080  0.41850  0.58790  Biso   1.000  O
  Yb5      1.0000 0.53149  0.17202  0.50086  Biso   1.000  Yb
  Ru9      1.0000 0.37128  0.15180  0.77940  Biso   1.000  Ru
  Ru10     1.0000 0.14833  0.20125  0.77681  Biso   1.000  Ru
  C65      1.0000 0.25754  0.16390  0.83030  Biso   1.000  C
  C66      1.0000 0.29650  0.10900  0.95400  Biso   1.000  C
  H25      1.0000 0.32720  0.09240  0.98540  Biso   1.000  H
  C67      1.0000 0.24698  0.10060  0.99620  Biso   1.000  C
  H26      1.0000 0.24330  0.07790  0.05580  Biso   1.000  H
  C68      1.0000 0.26376  0.19780  0.73620  Biso   1.000  C
  C69      1.0000 0.31760  0.23290  0.61330  Biso   1.000  C
  H27      1.0000 0.35200  0.23770  0.58430  Biso   1.000  H
  C70      1.0000 0.27400  0.25830  0.56700  Biso   1.000  C
  H28      1.0000 0.27800  0.28080  0.50720  Biso   1.000  H
  C71      1.0000 0.34920  0.07460  0.70530  Biso   1.000  C
  C72      1.0000 0.41770  0.10230  0.86720  Biso   1.000  C
  C73      1.0000 0.43090  0.16410  0.68540  Biso   1.000  C
  C74      1.0000 0.39770  0.22710  0.85110  Biso   1.000  C
  C75      1.0000 0.20260  0.12550  0.95060  Biso   1.000  C
  H29      1.0000 0.16810  0.11950  0.97870  Biso   1.000  H
  C76      1.0000 0.22400  0.25040  0.60970  Biso   1.000  C
  H30      1.0000 0.19320  0.26660  0.57780  Biso   1.000  H
  C77      1.0000 0.13927  0.12110  0.70330  Biso   1.000  C
  C78      1.0000 0.60140  0.25650  0.68200  Biso   1.000  C
  C79      1.0000 0.41500  0.18050  0.36020  Biso   1.000  C
  C80      1.0000 0.15560  0.28260  0.84940  Biso   1.000  C
  N49      1.0000 0.30226  0.14046  0.86870  Biso   1.000  N
  N50      1.0000 0.31306  0.20182  0.69770  Biso   1.000  N
  N51      1.0000 0.33710  0.03070  0.66410  Biso   1.000  N
  N52      1.0000 0.44328  0.07290  0.91970  Biso   1.000  N
  N53      1.0000 0.46649  0.17140  0.63130  Biso   1.000  N
  N54      1.0000 0.41630  0.26800  0.89100  Biso   1.000  N
  N55      1.0000 0.20772  0.15849  0.86600  Biso   1.000  N
  N56      1.0000 0.21855  0.22005  0.69600  Biso   1.000  N
  N57      1.0000 0.13410  0.07510  0.66350  Biso   1.000  N
  N58      1.0000 0.57640  0.22740  0.62560  Biso   1.000  N
  N59      1.0000 0.45140  0.17070  0.40830  Biso   1.000  N
  N60      1.0000 0.15810  0.32860  0.88810  Biso   1.000  N
  O17      1.0000 0.60500  0.11660  0.54020  Biso   1.000  O
  O18      1.0000 0.37540  0.36220  0.99620  Biso   1.000  O
  O19      1.0000 0.50280  0.06970  0.52330  Biso   1.000  O
  O20      1.0000 0.45920  0.41850  0.08790  Biso   1.000  O
  Yb6      1.0000 0.53149  0.67202  0.00086  Biso   1.000  Yb
  Ru11     1.0000 0.37128  0.65180  0.27940  Biso   1.000  Ru
  Ru12     1.0000 0.14833  0.70125  0.27681  Biso   1.000  Ru
  C81      1.0000 0.25754  0.66390  0.33030  Biso   1.000  C
  C82      1.0000 0.29650  0.60900  0.45400  Biso   1.000  C
  H31      1.0000 0.32720  0.59240  0.48540  Biso   1.000  H
  C83      1.0000 0.24698  0.60060  0.49620  Biso   1.000  C
  H32      1.0000 0.24330  0.57790  0.55580  Biso   1.000  H
  C84      1.0000 0.26376  0.69780  0.23620  Biso   1.000  C
  C85      1.0000 0.31760  0.73290  0.11330  Biso   1.000  C
  H33      1.0000 0.35200  0.73770  0.08430  Biso   1.000  H
  C86      1.0000 0.27400  0.75830  0.06700  Biso   1.000  C
  H34      1.0000 0.27800  0.78080  0.00720  Biso   1.000  H
  C87      1.0000 0.34920  0.57460  0.20530  Biso   1.000  C
  C88      1.0000 0.41770  0.60230  0.36720  Biso   1.000  C
  C89      1.0000 0.43090  0.66410  0.18540  Biso   1.000  C
  C90      1.0000 0.39770  0.72710  0.35110  Biso   1.000  C
  C91      1.0000 0.20260  0.62550  0.45060  Biso   1.000  C
  H35      1.0000 0.16810  0.61950  0.47870  Biso   1.000  H
  C92      1.0000 0.22400  0.75040  0.10970  Biso   1.000  C
  H36      1.0000 0.19320  0.76660  0.07780  Biso   1.000  H
  C93      1.0000 0.13927  0.62110  0.20330  Biso   1.000  C
  C94      1.0000 0.60140  0.75650  0.18200  Biso   1.000  C
  C95      1.0000 0.41500  0.68050  0.86020  Biso   1.000  C
  C96      1.0000 0.15560  0.78260  0.34940  Biso   1.000  C
  N61      1.0000 0.30226  0.64046  0.36870  Biso   1.000  N
  N62      1.0000 0.31306  0.70182  0.19770  Biso   1.000  N
  N63      1.0000 0.33710  0.53070  0.16410  Biso   1.000  N
  N64      1.0000 0.44328  0.57290  0.41970  Biso   1.000  N
  N65      1.0000 0.46649  0.67140  0.13130  Biso   1.000  N
  N66      1.0000 0.41630  0.76800  0.39100  Biso   1.000  N
  N67      1.0000 0.20772  0.65849  0.36600  Biso   1.000  N
  N68      1.0000 0.21855  0.72005  0.19600  Biso   1.000  N
  N69      1.0000 0.13410  0.57510  0.16350  Biso   1.000  N
  N70      1.0000 0.57640  0.72740  0.12560  Biso   1.000  N
  N71      1.0000 0.45140  0.67070  0.90830  Biso   1.000  N
  N72      1.0000 0.15810  0.82860  0.38810  Biso   1.000  N
  O21      1.0000 0.60500  0.61660  0.04020  Biso   1.000  O
  O22      1.0000 0.37540  0.86220  0.49620  Biso   1.000  O
  O23      1.0000 0.50280  0.56970  0.02330  Biso   1.000  O
  O24      1.0000 0.45920  0.91850  0.58790  Biso   1.000  O
  Yb7      1.0000 0.46851  0.82798  0.50086  Biso   1.000  Yb
  Ru13     1.0000 0.62872  0.84820  0.77940  Biso   1.000  Ru
  Ru14     1.0000 0.85167  0.79875  0.77681  Biso   1.000  Ru
  C97      1.0000 0.74246  0.83610  0.83030  Biso   1.000  C
  C98      1.0000 0.70350  0.89100  0.95400  Biso   1.000  C
  H37      1.0000 0.67280  0.90760  0.98540  Biso   1.000  H
  C99      1.0000 0.75302  0.89940  0.99620  Biso   1.000  C
  H38      1.0000 0.75670  0.92210  0.05580  Biso   1.000  H
  C100     1.0000 0.73624  0.80220  0.73620  Biso   1.000  C
  C101     1.0000 0.68240  0.76710  0.61330  Biso   1.000  C
  H39      1.0000 0.64800  0.76230  0.58430  Biso   1.000  H
  C102     1.0000 0.72600  0.74170  0.56700  Biso   1.000  C
  H40      1.0000 0.72200  0.71920  0.50720  Biso   1.000  H
  C103     1.0000 0.65080  0.92540  0.70530  Biso   1.000  C
  C104     1.0000 0.58230  0.89770  0.86720  Biso   1.000  C
  C105     1.0000 0.56910  0.83590  0.68540  Biso   1.000  C
  C106     1.0000 0.60230  0.77290  0.85110  Biso   1.000  C
  C107     1.0000 0.79740  0.87450  0.95060  Biso   1.000  C
  H41      1.0000 0.83190  0.88050  0.97870  Biso   1.000  H
  C108     1.0000 0.77600  0.74960  0.60970  Biso   1.000  C
  H42      1.0000 0.80680  0.73340  0.57780  Biso   1.000  H
  C109     1.0000 0.86073  0.87890  0.70330  Biso   1.000  C
  C110     1.0000 0.39860  0.74350  0.68200  Biso   1.000  C
  C111     1.0000 0.58500  0.81950  0.36020  Biso   1.000  C
  C112     1.0000 0.84440  0.71740  0.84940  Biso   1.000  C
  N73      1.0000 0.69774  0.85954  0.86870  Biso   1.000  N
  N74      1.0000 0.68694  0.79818  0.69770  Biso   1.000  N
  N75      1.0000 0.66290  0.96930  0.66410  Biso   1.000  N
  N76      1.0000 0.55672  0.92710  0.91970  Biso   1.000  N
  N77      1.0000 0.53351  0.82860  0.63130  Biso   1.000  N
  N78      1.0000 0.58370  0.73200  0.89100  Biso   1.000  N
  N79      1.0000 0.79228  0.84151  0.86600  Biso   1.000  N
  N80      1.0000 0.78145  0.77995  0.69600  Biso   1.000  N
  N81      1.0000 0.86590  0.92490  0.66350  Biso   1.000  N
  N82      1.0000 0.42360  0.77260  0.62560  Biso   1.000  N
  N83      1.0000 0.54860  0.82930  0.40830  Biso   1.000  N
  N84      1.0000 0.84190  0.67140  0.88810  Biso   1.000  N
  O25      1.0000 0.39500  0.88340  0.54020  Biso   1.000  O
  O26      1.0000 0.62460  0.63780  0.99620  Biso   1.000  O
  O27      1.0000 0.49720  0.93030  0.52330  Biso   1.000  O
  O28      1.0000 0.54080  0.58150  0.08790  Biso   1.000  O
  Yb8      1.0000 0.46851  0.32798  0.00086  Biso   1.000  Yb
  Ru15     1.0000 0.62872  0.34820  0.27940  Biso   1.000  Ru
  Ru16     1.0000 0.85167  0.29875  0.27681  Biso   1.000  Ru
  C113     1.0000 0.74246  0.33610  0.33030  Biso   1.000  C
  C114     1.0000 0.70350  0.39100  0.45400  Biso   1.000  C
  H43      1.0000 0.67280  0.40760  0.48540  Biso   1.000  H
  C115     1.0000 0.75302  0.39940  0.49620  Biso   1.000  C
  H44      1.0000 0.75670  0.42210  0.55580  Biso   1.000  H
  C116     1.0000 0.73624  0.30220  0.23620  Biso   1.000  C
  C117     1.0000 0.68240  0.26710  0.11330  Biso   1.000  C
  H45      1.0000 0.64800  0.26230  0.08430  Biso   1.000  H
  C118     1.0000 0.72600  0.24170  0.06700  Biso   1.000  C
  H46      1.0000 0.72200  0.21920  0.00720  Biso   1.000  H
  C119     1.0000 0.65080  0.42540  0.20530  Biso   1.000  C
  C120     1.0000 0.58230  0.39770  0.36720  Biso   1.000  C
  C121     1.0000 0.56910  0.33590  0.18540  Biso   1.000  C
  C122     1.0000 0.60230  0.27290  0.35110  Biso   1.000  C
  C123     1.0000 0.79740  0.37450  0.45060  Biso   1.000  C
  H47      1.0000 0.83190  0.38050  0.47870  Biso   1.000  H
  C124     1.0000 0.77600  0.24960  0.10970  Biso   1.000  C
  H48      1.0000 0.80680  0.23340  0.07780  Biso   1.000  H
  C125     1.0000 0.86073  0.37890  0.20330  Biso   1.000  C
  C126     1.0000 0.39860  0.24350  0.18200  Biso   1.000  C
  C127     1.0000 0.58500  0.31950  0.86020  Biso   1.000  C
  C128     1.0000 0.84440  0.21740  0.34940  Biso   1.000  C
  N85      1.0000 0.69774  0.35954  0.36870  Biso   1.000  N
  N86      1.0000 0.68694  0.29818  0.19770  Biso   1.000  N
  N87      1.0000 0.66290  0.46930  0.16410  Biso   1.000  N
  N88      1.0000 0.55672  0.42710  0.41970  Biso   1.000  N
  N89      1.0000 0.53351  0.32860  0.13130  Biso   1.000  N
  N90      1.0000 0.58370  0.23200  0.39100  Biso   1.000  N
  N91      1.0000 0.79228  0.34151  0.36600  Biso   1.000  N
  N92      1.0000 0.78145  0.27995  0.19600  Biso   1.000  N
  N93      1.0000 0.86590  0.42490  0.16350  Biso   1.000  N
  N94      1.0000 0.42360  0.27260  0.12560  Biso   1.000  N
  N95      1.0000 0.54860  0.32930  0.90830  Biso   1.000  N
  N96      1.0000 0.84190  0.17140  0.38810  Biso   1.000  N
  O29      1.0000 0.39500  0.38340  0.04020  Biso   1.000  O
  O30      1.0000 0.62460  0.13780  0.49620  Biso   1.000  O
  O31      1.0000 0.49720  0.43030  0.02330  Biso   1.000  O
  O32      1.0000 0.54080  0.08150  0.58790  Biso   1.000  O
  Yb9      1.0000 0.00000  0.50000  0.00063  Biso   1.000  Yb
  Yb10     1.0000 0.00000  0.00000  0.50063  Biso   1.000  Yb
  Yb11     1.0000 0.50000  0.00000  0.00063  Biso   1.000  Yb
  Yb12     1.0000 0.50000  0.50000  0.50063  Biso   1.000  Yb
