data_image0
_cell_length_a       11.815
_cell_length_b       12.816
_cell_length_c       20.109
_cell_angle_alpha    90
_cell_angle_beta     96.715
_cell_angle_gamma    90

_symmetry_space_group_name_H-M    "P 1"
_symmetry_int_tables_number       1

loop_
  _symmetry_equiv_pos_as_xyz
  'x, y, z'

loop_
  _atom_site_label
  _atom_site_occupancy
  _atom_site_fract_x
  _atom_site_fract_y
  _atom_site_fract_z
  _atom_site_thermal_displace_type
  _atom_site_B_iso_or_equiv
  _atom_site_type_symbol
  Ag1      1.0000 0.22082  0.60887  0.32080  Biso   1.000  Ag
  Ag2      1.0000 0.33388  0.41360  0.27481  Biso   1.000  Ag
  Ag3      1.0000 0.33950  0.43200  0.27600  Biso   1.000  Ag
  Ag4      1.0000 0.09313  0.41805  0.28149  Biso   1.000  Ag
  Ag5      1.0000 0.31193  0.67784  0.19963  Biso   1.000  Ag
  Ag6      1.0000 0.32490  0.66700  0.19340  Biso   1.000  Ag
  Ag7      1.0000 0.07257  0.67630  0.20090  Biso   1.000  Ag
  C1       1.0000 0.19330  0.53940  0.22091  Biso   1.000  C
  C2       1.0000 0.17890  0.47820  0.17520  Biso   1.000  C
  C3       1.0000 0.15930  0.41390  0.11210  Biso   1.000  C
  C4       1.0000 0.03880  0.38580  0.09950  Biso   1.000  C
  H1       1.0000 0.99320  0.44800  0.09700  Biso   1.000  H
  H2       1.0000 0.01870  0.34240  0.13520  Biso   1.000  H
  H3       1.0000 0.02530  0.34860  0.05790  Biso   1.000  H
  C5       1.0000 0.19740  0.48360  0.05730  Biso   1.000  C
  H4       1.0000 0.15190  0.54590  0.05350  Biso   1.000  H
  H5       1.0000 0.18820  0.44680  0.01540  Biso   1.000  H
  H6       1.0000 0.27610  0.50200  0.06850  Biso   1.000  H
  C6       1.0000 0.23290  0.31930  0.11460  Biso   1.000  C
  H7       1.0000 0.21250  0.27290  0.14880  Biso   1.000  H
  H8       1.0000 0.31130  0.33940  0.12450  Biso   1.000  H
  H9       1.0000 0.22220  0.28450  0.07200  Biso   1.000  H
  O1       1.0000 0.28490  0.85810  0.21016  Biso   1.000  O
  O2       1.0000 0.09910  0.85840  0.21900  Biso   1.000  O
  O3       1.0000 0.11290  0.23350  0.28075  Biso   1.000  O
  O4       1.0000 0.30090  0.23290  0.28024  Biso   1.000  O
  C7       1.0000 0.19300  0.90040  0.21440  Biso   1.000  C
  C8       1.0000 0.19310  0.02200  0.21430  Biso   1.000  C
  C9       1.0000 0.20780  0.07050  0.28434  Biso   1.000  C
  C10      1.0000 0.20760  0.19090  0.28258  Biso   1.000  C
  F1       1.0000 0.27750  0.05828  0.18072  Biso   1.000  F
  F2       1.0000 0.09330  0.05934  0.18207  Biso   1.000  F
  F3       1.0000 0.30520  0.03333  0.31725  Biso   1.000  F
  F4       1.0000 0.12180  0.03394  0.31742  Biso   1.000  F
  O5       1.0000 0.10100  0.41070  0.39854  Biso   1.000  O
  O6       1.0000 0.15260  0.57670  0.42174  Biso   1.000  O
  C11      1.0000 0.11170  0.49070  0.43403  Biso   1.000  C
  C12      1.0000 0.06250  0.48300  0.50227  Biso   1.000  C
  F5       1.0000 0.06970  0.38432  0.52519  Biso   1.000  F
  F6       1.0000 0.12360  0.54350  0.54863  Biso   1.000  F
  O7       1.0000 0.44600  0.40700  0.37921  Biso   1.000  O
  O8       1.0000 0.42750  0.57950  0.37663  Biso   1.000  O
  C13      1.0000 0.46370  0.49600  0.40140  Biso   1.000  C
  C14      1.0000 0.53580  0.50290  0.47080  Biso   1.000  C
  F7       1.0000 0.59450  0.59310  0.47590  Biso   1.000  F
  F8       1.0000 0.61300  0.42650  0.47810  Biso   1.000  F
  O9       1.0000 0.49630  0.65160  0.25250  Biso   1.000  O
  O10      1.0000 0.49930  0.41060  0.21850  Biso   1.000  O
  Ag8      1.0000 0.77918  0.10887  0.17920  Biso   1.000  Ag
  Ag9      1.0000 0.66612  0.91360  0.22519  Biso   1.000  Ag
  Ag10     1.0000 0.66050  0.93200  0.22400  Biso   1.000  Ag
  Ag11     1.0000 0.90687  0.91805  0.21851  Biso   1.000  Ag
  Ag12     1.0000 0.68807  0.17784  0.30037  Biso   1.000  Ag
  Ag13     1.0000 0.67510  0.16700  0.30660  Biso   1.000  Ag
  Ag14     1.0000 0.92743  0.17630  0.29910  Biso   1.000  Ag
  C15      1.0000 0.80670  0.03940  0.27909  Biso   1.000  C
  C16      1.0000 0.82110  0.97820  0.32480  Biso   1.000  C
  C17      1.0000 0.84070  0.91390  0.38790  Biso   1.000  C
  C18      1.0000 0.96120  0.88580  0.40050  Biso   1.000  C
  H10      1.0000 0.00680  0.94800  0.40300  Biso   1.000  H
  H11      1.0000 0.98130  0.84240  0.36480  Biso   1.000  H
  H12      1.0000 0.97470  0.84860  0.44210  Biso   1.000  H
  C19      1.0000 0.80260  0.98360  0.44270  Biso   1.000  C
  H13      1.0000 0.84810  0.04590  0.44650  Biso   1.000  H
  H14      1.0000 0.81180  0.94680  0.48460  Biso   1.000  H
  H15      1.0000 0.72390  0.00200  0.43150  Biso   1.000  H
  C20      1.0000 0.76710  0.81930  0.38540  Biso   1.000  C
  H16      1.0000 0.78750  0.77290  0.35120  Biso   1.000  H
  H17      1.0000 0.68870  0.83940  0.37550  Biso   1.000  H
  H18      1.0000 0.77780  0.78450  0.42800  Biso   1.000  H
  O11      1.0000 0.71510  0.35810  0.28984  Biso   1.000  O
  O12      1.0000 0.90090  0.35840  0.28100  Biso   1.000  O
  O13      1.0000 0.88710  0.73350  0.21925  Biso   1.000  O
  O14      1.0000 0.69910  0.73290  0.21976  Biso   1.000  O
  C21      1.0000 0.80700  0.40040  0.28560  Biso   1.000  C
  C22      1.0000 0.80690  0.52200  0.28570  Biso   1.000  C
  C23      1.0000 0.79220  0.57050  0.21566  Biso   1.000  C
  C24      1.0000 0.79240  0.69090  0.21742  Biso   1.000  C
  F9       1.0000 0.72250  0.55828  0.31928  Biso   1.000  F
  F10      1.0000 0.90670  0.55934  0.31793  Biso   1.000  F
  F11      1.0000 0.69480  0.53333  0.18275  Biso   1.000  F
  F12      1.0000 0.87820  0.53394  0.18258  Biso   1.000  F
  O15      1.0000 0.89900  0.91070  0.10146  Biso   1.000  O
  O16      1.0000 0.84740  0.07670  0.07826  Biso   1.000  O
  C25      1.0000 0.88830  0.99070  0.06597  Biso   1.000  C
  C26      1.0000 0.93750  0.98300  0.99773  Biso   1.000  C
  F13      1.0000 0.93030  0.88432  0.97481  Biso   1.000  F
  F14      1.0000 0.87640  0.04350  0.95137  Biso   1.000  F
  O17      1.0000 0.55400  0.90700  0.12079  Biso   1.000  O
  O18      1.0000 0.57250  0.07950  0.12337  Biso   1.000  O
  C27      1.0000 0.53630  0.99600  0.09860  Biso   1.000  C
  C28      1.0000 0.46420  0.00290  0.02920  Biso   1.000  C
  F15      1.0000 0.40550  0.09310  0.02410  Biso   1.000  F
  F16      1.0000 0.38700  0.92650  0.02190  Biso   1.000  F
  O19      1.0000 0.50370  0.15160  0.24750  Biso   1.000  O
  O20      1.0000 0.50070  0.91060  0.28150  Biso   1.000  O
  Ag15     1.0000 0.77918  0.39113  0.67919  Biso   1.000  Ag
  Ag16     1.0000 0.66612  0.58640  0.72519  Biso   1.000  Ag
  Ag17     1.0000 0.66050  0.56800  0.72400  Biso   1.000  Ag
  Ag18     1.0000 0.90687  0.58195  0.71851  Biso   1.000  Ag
  Ag19     1.0000 0.68807  0.32216  0.80037  Biso   1.000  Ag
  Ag20     1.0000 0.67510  0.33300  0.80660  Biso   1.000  Ag
  Ag21     1.0000 0.92743  0.32370  0.79910  Biso   1.000  Ag
  C29      1.0000 0.80670  0.46060  0.77909  Biso   1.000  C
  C30      1.0000 0.82110  0.52180  0.82480  Biso   1.000  C
  C31      1.0000 0.84070  0.58610  0.88790  Biso   1.000  C
  C32      1.0000 0.96120  0.61420  0.90050  Biso   1.000  C
  H19      1.0000 0.00680  0.55200  0.90300  Biso   1.000  H
  H20      1.0000 0.98130  0.65760  0.86480  Biso   1.000  H
  H21      1.0000 0.97470  0.65140  0.94210  Biso   1.000  H
  C33      1.0000 0.80260  0.51640  0.94270  Biso   1.000  C
  H22      1.0000 0.84810  0.45410  0.94650  Biso   1.000  H
  H23      1.0000 0.81180  0.55320  0.98460  Biso   1.000  H
  H24      1.0000 0.72390  0.49800  0.93150  Biso   1.000  H
  C34      1.0000 0.76710  0.68070  0.88540  Biso   1.000  C
  H25      1.0000 0.78750  0.72710  0.85120  Biso   1.000  H
  H26      1.0000 0.68870  0.66060  0.87550  Biso   1.000  H
  H27      1.0000 0.77780  0.71550  0.92800  Biso   1.000  H
  O21      1.0000 0.71510  0.14190  0.78984  Biso   1.000  O
  O22      1.0000 0.90090  0.14160  0.78100  Biso   1.000  O
  O23      1.0000 0.88710  0.76650  0.71925  Biso   1.000  O
  O24      1.0000 0.69910  0.76710  0.71976  Biso   1.000  O
  C35      1.0000 0.80700  0.09960  0.78560  Biso   1.000  C
  C36      1.0000 0.80690  0.97800  0.78570  Biso   1.000  C
  C37      1.0000 0.79220  0.92950  0.71566  Biso   1.000  C
  C38      1.0000 0.79240  0.80910  0.71742  Biso   1.000  C
  F17      1.0000 0.72250  0.94172  0.81928  Biso   1.000  F
  F18      1.0000 0.90670  0.94066  0.81793  Biso   1.000  F
  F19      1.0000 0.69480  0.96667  0.68275  Biso   1.000  F
  F20      1.0000 0.87820  0.96606  0.68258  Biso   1.000  F
  O25      1.0000 0.89900  0.58930  0.60146  Biso   1.000  O
  O26      1.0000 0.84740  0.42330  0.57826  Biso   1.000  O
  C39      1.0000 0.88830  0.50930  0.56597  Biso   1.000  C
  C40      1.0000 0.93750  0.51700  0.49773  Biso   1.000  C
  F21      1.0000 0.93030  0.61568  0.47481  Biso   1.000  F
  F22      1.0000 0.87640  0.45650  0.45137  Biso   1.000  F
  O27      1.0000 0.55400  0.59300  0.62079  Biso   1.000  O
  O28      1.0000 0.57250  0.42050  0.62337  Biso   1.000  O
  C41      1.0000 0.53630  0.50400  0.59860  Biso   1.000  C
  C42      1.0000 0.46420  0.49710  0.52920  Biso   1.000  C
  F23      1.0000 0.40550  0.40690  0.52410  Biso   1.000  F
  F24      1.0000 0.38700  0.57350  0.52190  Biso   1.000  F
  O29      1.0000 0.50370  0.34840  0.74750  Biso   1.000  O
  O30      1.0000 0.50070  0.58940  0.78150  Biso   1.000  O
  Ag22     1.0000 0.22082  0.89113  0.82080  Biso   1.000  Ag
  Ag23     1.0000 0.33388  0.08640  0.77481  Biso   1.000  Ag
  Ag24     1.0000 0.33950  0.06800  0.77600  Biso   1.000  Ag
  Ag25     1.0000 0.09313  0.08195  0.78149  Biso   1.000  Ag
  Ag26     1.0000 0.31193  0.82216  0.69963  Biso   1.000  Ag
  Ag27     1.0000 0.32490  0.83300  0.69340  Biso   1.000  Ag
  Ag28     1.0000 0.07257  0.82370  0.70090  Biso   1.000  Ag
  C43      1.0000 0.19330  0.96060  0.72091  Biso   1.000  C
  C44      1.0000 0.17890  0.02180  0.67520  Biso   1.000  C
  C45      1.0000 0.15930  0.08610  0.61210  Biso   1.000  C
  C46      1.0000 0.03880  0.11420  0.59950  Biso   1.000  C
  H28      1.0000 0.99320  0.05200  0.59700  Biso   1.000  H
  H29      1.0000 0.01870  0.15760  0.63520  Biso   1.000  H
  H30      1.0000 0.02530  0.15140  0.55790  Biso   1.000  H
  C47      1.0000 0.19740  0.01640  0.55730  Biso   1.000  C
  H31      1.0000 0.15190  0.95410  0.55350  Biso   1.000  H
  H32      1.0000 0.18820  0.05320  0.51540  Biso   1.000  H
  H33      1.0000 0.27610  0.99800  0.56850  Biso   1.000  H
  C48      1.0000 0.23290  0.18070  0.61460  Biso   1.000  C
  H34      1.0000 0.21250  0.22710  0.64880  Biso   1.000  H
  H35      1.0000 0.31130  0.16060  0.62450  Biso   1.000  H
  H36      1.0000 0.22220  0.21550  0.57200  Biso   1.000  H
  O31      1.0000 0.28490  0.64190  0.71016  Biso   1.000  O
  O32      1.0000 0.09910  0.64160  0.71900  Biso   1.000  O
  O33      1.0000 0.11290  0.26650  0.78075  Biso   1.000  O
  O34      1.0000 0.30090  0.26710  0.78024  Biso   1.000  O
  C49      1.0000 0.19300  0.59960  0.71440  Biso   1.000  C
  C50      1.0000 0.19310  0.47800  0.71430  Biso   1.000  C
  C51      1.0000 0.20780  0.42950  0.78434  Biso   1.000  C
  C52      1.0000 0.20760  0.30910  0.78258  Biso   1.000  C
  F25      1.0000 0.27750  0.44172  0.68072  Biso   1.000  F
  F26      1.0000 0.09330  0.44066  0.68207  Biso   1.000  F
  F27      1.0000 0.30520  0.46667  0.81725  Biso   1.000  F
  F28      1.0000 0.12180  0.46606  0.81742  Biso   1.000  F
  O35      1.0000 0.10100  0.08930  0.89854  Biso   1.000  O
  O36      1.0000 0.15260  0.92330  0.92174  Biso   1.000  O
  C53      1.0000 0.11170  0.00930  0.93403  Biso   1.000  C
  C54      1.0000 0.06250  0.01700  0.00227  Biso   1.000  C
  F29      1.0000 0.06970  0.11568  0.02519  Biso   1.000  F
  F30      1.0000 0.12360  0.95650  0.04863  Biso   1.000  F
  O37      1.0000 0.44600  0.09300  0.87921  Biso   1.000  O
  O38      1.0000 0.42750  0.92050  0.87663  Biso   1.000  O
  C55      1.0000 0.46370  0.00400  0.90140  Biso   1.000  C
  C56      1.0000 0.53580  0.99710  0.97080  Biso   1.000  C
  F31      1.0000 0.59450  0.90690  0.97590  Biso   1.000  F
  F32      1.0000 0.61300  0.07350  0.97810  Biso   1.000  F
  O39      1.0000 0.49630  0.84840  0.75250  Biso   1.000  O
  O40      1.0000 0.49930  0.08940  0.71850  Biso   1.000  O
