data_image0
_cell_length_a       20.96
_cell_length_b       11.53
_cell_length_c       14.211
_cell_angle_alpha    90
_cell_angle_beta     116.24
_cell_angle_gamma    90

_symmetry_space_group_name_H-M    "P 1"
_symmetry_int_tables_number       1

loop_
  _symmetry_equiv_pos_as_xyz
  'x, y, z'

loop_
  _atom_site_label
  _atom_site_occupancy
  _atom_site_fract_x
  _atom_site_fract_y
  _atom_site_fract_z
  _atom_site_thermal_displace_type
  _atom_site_B_iso_or_equiv
  _atom_site_type_symbol
  C1       1.0000 0.30630  0.90090  0.21350  Biso   1.000  C
  C2       1.0000 0.36230  0.82850  0.26960  Biso   1.000  C
  C3       1.0000 0.35430  0.70610  0.25420  Biso   1.000  C
  H1       1.0000 0.31150  0.67670  0.20350  Biso   1.000  H
  C4       1.0000 0.40980  0.62820  0.31410  Biso   1.000  C
  C5       1.0000 0.47310  0.67590  0.39240  Biso   1.000  C
  C6       1.0000 0.53190  0.59560  0.46160  Biso   1.000  C
  C7       1.0000 0.48020  0.79210  0.40280  Biso   1.000  C
  H2       1.0000 0.52240  0.82210  0.45420  Biso   1.000  H
  C8       1.0000 0.42900  0.86690  0.34220  Biso   1.000  C
  H3       1.0000 0.43850  0.94610  0.34910  Biso   1.000  H
  C9       1.0000 0.70250  0.37280  0.77130  Biso   1.000  C
  H4       1.0000 0.75070  0.36610  0.78900  Biso   1.000  H
  C10      1.0000 0.58890  0.40540  0.69740  Biso   1.000  C
  H5       1.0000 0.54460  0.43380  0.65080  Biso   1.000  H
  C11      1.0000 0.60080  0.33640  0.77450  Biso   1.000  C
  H6       1.0000 0.56650  0.30430  0.79150  Biso   1.000  H
  C12      1.0000 0.70050  0.23410  0.91460  Biso   1.000  C
  H7       1.0000 0.75150  0.24670  0.95150  Biso   1.000  H
  H8       1.0000 0.68050  0.24670  0.96360  Biso   1.000  H
  C13      1.0000 0.68620  0.11170  0.87450  Biso   1.000  C
  C14      1.0000 0.72690  0.06050  0.83080  Biso   1.000  C
  H9       1.0000 0.76460  0.10100  0.82870  Biso   1.000  H
  C15      1.0000 0.71130  0.94870  0.79040  Biso   1.000  C
  H10      1.0000 0.73860  0.91450  0.76120  Biso   1.000  H
  C16      1.0000 0.65500  0.88820  0.79360  Biso   1.000  C
  C17      1.0000 0.61420  0.93940  0.83730  Biso   1.000  C
  H11      1.0000 0.57650  0.89890  0.83940  Biso   1.000  H
  C18      1.0000 0.62980  0.05120  0.87770  Biso   1.000  C
  H12      1.0000 0.60250  0.08540  0.90690  Biso   1.000  H
  C19      1.0000 0.63460  0.76200  0.75870  Biso   1.000  C
  H13      1.0000 0.58320  0.75380  0.72780  Biso   1.000  H
  H14      1.0000 0.65010  0.74210  0.70580  Biso   1.000  H
  C20      1.0000 0.74400  0.64970  0.89790  Biso   1.000  C
  H15      1.0000 0.77980  0.67220  0.87990  Biso   1.000  H
  C21      1.0000 0.75070  0.57810  0.97700  Biso   1.000  C
  H16      1.0000 0.79260  0.54180  0.02270  Biso   1.000  H
  C22      1.0000 0.64250  0.63130  0.89710  Biso   1.000  C
  H17      1.0000 0.59440  0.63380  0.88070  Biso   1.000  H
  Co1      1.0000 0.67055  0.52565  0.58687  Biso   1.000  Co
  N1       1.0000 0.39880  0.51730  0.32780  Biso   1.000  N
  H18      1.0000 0.43430  0.47440  0.32830  Biso   1.000  H
  H19      1.0000 0.35840  0.51070  0.33370  Biso   1.000  H
  N2       1.0000 0.65750  0.43210  0.69460  Biso   1.000  N
  N3       1.0000 0.66790  0.31970  0.82390  Biso   1.000  N
  N4       1.0000 0.66590  0.68640  0.84400  Biso   1.000  N
  N5       1.0000 0.68840  0.56740  0.97970  Biso   1.000  N
  O1       1.0000 0.31700  0.00900  0.21480  Biso   1.000  O
  O2       1.0000 0.24650  0.86090  0.15450  Biso   1.000  O
  O3       1.0000 0.59090  0.64170  0.51820  Biso   1.000  O
  O4       1.0000 0.52910  0.48930  0.45070  Biso   1.000  O
  C23      1.0000 0.68420  0.11170  0.87230  Biso   1.000  C
  C24      1.0000 0.68920  0.07020  0.78390  Biso   1.000  C
  C25      1.0000 0.67180  0.95550  0.75290  Biso   1.000  C
  C26      1.0000 0.64960  0.88230  0.81030  Biso   1.000  C
  C27      1.0000 0.64460  0.92380  0.89870  Biso   1.000  C
  C28      1.0000 0.66190  0.03850  0.92970  Biso   1.000  C
  H20      1.0000 0.70410  0.11920  0.74550  Biso   1.000  H
  H21      1.0000 0.67520  0.92780  0.69380  Biso   1.000  H
  H22      1.0000 0.62970  0.87480  0.93710  Biso   1.000  H
  H23      1.0000 0.65860  0.06620  0.98880  Biso   1.000  H
  C29      1.0000 0.80630  0.40090  0.21350  Biso   1.000  C
  C30      1.0000 0.86230  0.32850  0.26960  Biso   1.000  C
  C31      1.0000 0.85430  0.20610  0.25420  Biso   1.000  C
  H24      1.0000 0.81150  0.17670  0.20350  Biso   1.000  H
  C32      1.0000 0.90980  0.12820  0.31410  Biso   1.000  C
  C33      1.0000 0.97310  0.17590  0.39240  Biso   1.000  C
  C34      1.0000 0.03190  0.09560  0.46160  Biso   1.000  C
  C35      1.0000 0.98020  0.29210  0.40280  Biso   1.000  C
  H25      1.0000 0.02240  0.32210  0.45420  Biso   1.000  H
  C36      1.0000 0.92900  0.36690  0.34220  Biso   1.000  C
  H26      1.0000 0.93850  0.44610  0.34910  Biso   1.000  H
  C37      1.0000 0.20250  0.87280  0.77130  Biso   1.000  C
  H27      1.0000 0.25070  0.86610  0.78900  Biso   1.000  H
  C38      1.0000 0.08890  0.90540  0.69740  Biso   1.000  C
  H28      1.0000 0.04460  0.93380  0.65080  Biso   1.000  H
  C39      1.0000 0.10080  0.83640  0.77450  Biso   1.000  C
  H29      1.0000 0.06650  0.80430  0.79150  Biso   1.000  H
  C40      1.0000 0.20050  0.73410  0.91460  Biso   1.000  C
  H30      1.0000 0.25150  0.74670  0.95150  Biso   1.000  H
  H31      1.0000 0.18050  0.74670  0.96360  Biso   1.000  H
  C41      1.0000 0.18620  0.61170  0.87450  Biso   1.000  C
  C42      1.0000 0.22690  0.56050  0.83080  Biso   1.000  C
  H32      1.0000 0.26460  0.60100  0.82870  Biso   1.000  H
  C43      1.0000 0.21130  0.44870  0.79040  Biso   1.000  C
  H33      1.0000 0.23860  0.41450  0.76120  Biso   1.000  H
  C44      1.0000 0.15500  0.38820  0.79360  Biso   1.000  C
  C45      1.0000 0.11420  0.43940  0.83730  Biso   1.000  C
  H34      1.0000 0.07650  0.39890  0.83940  Biso   1.000  H
  C46      1.0000 0.12980  0.55120  0.87770  Biso   1.000  C
  H35      1.0000 0.10250  0.58540  0.90690  Biso   1.000  H
  C47      1.0000 0.13460  0.26200  0.75870  Biso   1.000  C
  H36      1.0000 0.08320  0.25380  0.72780  Biso   1.000  H
  H37      1.0000 0.15010  0.24210  0.70580  Biso   1.000  H
  C48      1.0000 0.24400  0.14970  0.89790  Biso   1.000  C
  H38      1.0000 0.27980  0.17220  0.87990  Biso   1.000  H
  C49      1.0000 0.25070  0.07810  0.97700  Biso   1.000  C
  H39      1.0000 0.29260  0.04180  0.02270  Biso   1.000  H
  C50      1.0000 0.14250  0.13130  0.89710  Biso   1.000  C
  H40      1.0000 0.09440  0.13380  0.88070  Biso   1.000  H
  Co2      1.0000 0.17055  0.02565  0.58687  Biso   1.000  Co
  N6       1.0000 0.89880  0.01730  0.32780  Biso   1.000  N
  H41      1.0000 0.93430  0.97440  0.32830  Biso   1.000  H
  H42      1.0000 0.85840  0.01070  0.33370  Biso   1.000  H
  N7       1.0000 0.15750  0.93210  0.69460  Biso   1.000  N
  N8       1.0000 0.16790  0.81970  0.82390  Biso   1.000  N
  N9       1.0000 0.16590  0.18640  0.84400  Biso   1.000  N
  N10      1.0000 0.18840  0.06740  0.97970  Biso   1.000  N
  O5       1.0000 0.81700  0.50900  0.21480  Biso   1.000  O
  O6       1.0000 0.74650  0.36090  0.15450  Biso   1.000  O
  O7       1.0000 0.09090  0.14170  0.51820  Biso   1.000  O
  O8       1.0000 0.02910  0.98930  0.45070  Biso   1.000  O
  C51      1.0000 0.18420  0.61170  0.87230  Biso   1.000  C
  C52      1.0000 0.18920  0.57020  0.78390  Biso   1.000  C
  C53      1.0000 0.17180  0.45550  0.75290  Biso   1.000  C
  C54      1.0000 0.14960  0.38230  0.81030  Biso   1.000  C
  C55      1.0000 0.14460  0.42380  0.89870  Biso   1.000  C
  C56      1.0000 0.16190  0.53850  0.92970  Biso   1.000  C
  H43      1.0000 0.20410  0.61920  0.74550  Biso   1.000  H
  H44      1.0000 0.17520  0.42780  0.69380  Biso   1.000  H
  H45      1.0000 0.12970  0.37480  0.93710  Biso   1.000  H
  H46      1.0000 0.15860  0.56620  0.98880  Biso   1.000  H
  C57      1.0000 0.30630  0.09910  0.71350  Biso   1.000  C
  C58      1.0000 0.36230  0.17150  0.76960  Biso   1.000  C
  C59      1.0000 0.35430  0.29390  0.75420  Biso   1.000  C
  H47      1.0000 0.31150  0.32330  0.70350  Biso   1.000  H
  C60      1.0000 0.40980  0.37180  0.81410  Biso   1.000  C
  C61      1.0000 0.47310  0.32410  0.89240  Biso   1.000  C
  C62      1.0000 0.53190  0.40440  0.96160  Biso   1.000  C
  C63      1.0000 0.48020  0.20790  0.90280  Biso   1.000  C
  H48      1.0000 0.52240  0.17790  0.95420  Biso   1.000  H
  C64      1.0000 0.42900  0.13310  0.84220  Biso   1.000  C
  H49      1.0000 0.43850  0.05390  0.84910  Biso   1.000  H
  C65      1.0000 0.70250  0.62720  0.27130  Biso   1.000  C
  H50      1.0000 0.75070  0.63390  0.28900  Biso   1.000  H
  C66      1.0000 0.58890  0.59460  0.19740  Biso   1.000  C
  H51      1.0000 0.54460  0.56620  0.15080  Biso   1.000  H
  C67      1.0000 0.60080  0.66360  0.27450  Biso   1.000  C
  H52      1.0000 0.56650  0.69570  0.29150  Biso   1.000  H
  C68      1.0000 0.70050  0.76590  0.41460  Biso   1.000  C
  H53      1.0000 0.75150  0.75330  0.45150  Biso   1.000  H
  H54      1.0000 0.68050  0.75330  0.46360  Biso   1.000  H
  C69      1.0000 0.68620  0.88830  0.37450  Biso   1.000  C
  C70      1.0000 0.72690  0.93950  0.33080  Biso   1.000  C
  H55      1.0000 0.76460  0.89900  0.32870  Biso   1.000  H
  C71      1.0000 0.71130  0.05130  0.29040  Biso   1.000  C
  H56      1.0000 0.73860  0.08550  0.26120  Biso   1.000  H
  C72      1.0000 0.65500  0.11180  0.29360  Biso   1.000  C
  C73      1.0000 0.61420  0.06060  0.33730  Biso   1.000  C
  H57      1.0000 0.57650  0.10110  0.33940  Biso   1.000  H
  C74      1.0000 0.62980  0.94880  0.37770  Biso   1.000  C
  H58      1.0000 0.60250  0.91460  0.40690  Biso   1.000  H
  C75      1.0000 0.63460  0.23800  0.25870  Biso   1.000  C
  H59      1.0000 0.58320  0.24620  0.22780  Biso   1.000  H
  H60      1.0000 0.65010  0.25790  0.20580  Biso   1.000  H
  C76      1.0000 0.74400  0.35030  0.39790  Biso   1.000  C
  H61      1.0000 0.77980  0.32780  0.37990  Biso   1.000  H
  C77      1.0000 0.75070  0.42190  0.47700  Biso   1.000  C
  H62      1.0000 0.79260  0.45820  0.52270  Biso   1.000  H
  C78      1.0000 0.64250  0.36870  0.39710  Biso   1.000  C
  H63      1.0000 0.59440  0.36620  0.38070  Biso   1.000  H
  Co3      1.0000 0.67055  0.47435  0.08687  Biso   1.000  Co
  N11      1.0000 0.39880  0.48270  0.82780  Biso   1.000  N
  H64      1.0000 0.43430  0.52560  0.82830  Biso   1.000  H
  H65      1.0000 0.35840  0.48930  0.83370  Biso   1.000  H
  N12      1.0000 0.65750  0.56790  0.19460  Biso   1.000  N
  N13      1.0000 0.66790  0.68030  0.32390  Biso   1.000  N
  N14      1.0000 0.66590  0.31360  0.34400  Biso   1.000  N
  N15      1.0000 0.68840  0.43260  0.47970  Biso   1.000  N
  O9       1.0000 0.31700  0.99100  0.71480  Biso   1.000  O
  O10      1.0000 0.24650  0.13910  0.65450  Biso   1.000  O
  O11      1.0000 0.59090  0.35830  0.01820  Biso   1.000  O
  O12      1.0000 0.52910  0.51070  0.95070  Biso   1.000  O
  C79      1.0000 0.68420  0.88830  0.37230  Biso   1.000  C
  C80      1.0000 0.68920  0.92980  0.28390  Biso   1.000  C
  C81      1.0000 0.67180  0.04450  0.25290  Biso   1.000  C
  C82      1.0000 0.64960  0.11770  0.31030  Biso   1.000  C
  C83      1.0000 0.64460  0.07620  0.39870  Biso   1.000  C
  C84      1.0000 0.66190  0.96150  0.42970  Biso   1.000  C
  H66      1.0000 0.70410  0.88080  0.24550  Biso   1.000  H
  H67      1.0000 0.67520  0.07220  0.19380  Biso   1.000  H
  H68      1.0000 0.62970  0.12520  0.43710  Biso   1.000  H
  H69      1.0000 0.65860  0.93380  0.48880  Biso   1.000  H
  C85      1.0000 0.80630  0.59910  0.71350  Biso   1.000  C
  C86      1.0000 0.86230  0.67150  0.76960  Biso   1.000  C
  C87      1.0000 0.85430  0.79390  0.75420  Biso   1.000  C
  H70      1.0000 0.81150  0.82330  0.70350  Biso   1.000  H
  C88      1.0000 0.90980  0.87180  0.81410  Biso   1.000  C
  C89      1.0000 0.97310  0.82410  0.89240  Biso   1.000  C
  C90      1.0000 0.03190  0.90440  0.96160  Biso   1.000  C
  C91      1.0000 0.98020  0.70790  0.90280  Biso   1.000  C
  H71      1.0000 0.02240  0.67790  0.95420  Biso   1.000  H
  C92      1.0000 0.92900  0.63310  0.84220  Biso   1.000  C
  H72      1.0000 0.93850  0.55390  0.84910  Biso   1.000  H
  C93      1.0000 0.20250  0.12720  0.27130  Biso   1.000  C
  H73      1.0000 0.25070  0.13390  0.28900  Biso   1.000  H
  C94      1.0000 0.08890  0.09460  0.19740  Biso   1.000  C
  H74      1.0000 0.04460  0.06620  0.15080  Biso   1.000  H
  C95      1.0000 0.10080  0.16360  0.27450  Biso   1.000  C
  H75      1.0000 0.06650  0.19570  0.29150  Biso   1.000  H
  C96      1.0000 0.20050  0.26590  0.41460  Biso   1.000  C
  H76      1.0000 0.25150  0.25330  0.45150  Biso   1.000  H
  H77      1.0000 0.18050  0.25330  0.46360  Biso   1.000  H
  C97      1.0000 0.18620  0.38830  0.37450  Biso   1.000  C
  C98      1.0000 0.22690  0.43950  0.33080  Biso   1.000  C
  H78      1.0000 0.26460  0.39900  0.32870  Biso   1.000  H
  C99      1.0000 0.21130  0.55130  0.29040  Biso   1.000  C
  H79      1.0000 0.23860  0.58550  0.26120  Biso   1.000  H
  C100     1.0000 0.15500  0.61180  0.29360  Biso   1.000  C
  C101     1.0000 0.11420  0.56060  0.33730  Biso   1.000  C
  H80      1.0000 0.07650  0.60110  0.33940  Biso   1.000  H
  C102     1.0000 0.12980  0.44880  0.37770  Biso   1.000  C
  H81      1.0000 0.10250  0.41460  0.40690  Biso   1.000  H
  C103     1.0000 0.13460  0.73800  0.25870  Biso   1.000  C
  H82      1.0000 0.08320  0.74620  0.22780  Biso   1.000  H
  H83      1.0000 0.15010  0.75790  0.20580  Biso   1.000  H
  C104     1.0000 0.24400  0.85030  0.39790  Biso   1.000  C
  H84      1.0000 0.27980  0.82780  0.37990  Biso   1.000  H
  C105     1.0000 0.25070  0.92190  0.47700  Biso   1.000  C
  H85      1.0000 0.29260  0.95820  0.52270  Biso   1.000  H
  C106     1.0000 0.14250  0.86870  0.39710  Biso   1.000  C
  H86      1.0000 0.09440  0.86620  0.38070  Biso   1.000  H
  Co4      1.0000 0.17055  0.97435  0.08687  Biso   1.000  Co
  N16      1.0000 0.89880  0.98270  0.82780  Biso   1.000  N
  H87      1.0000 0.93430  0.02560  0.82830  Biso   1.000  H
  H88      1.0000 0.85840  0.98930  0.83370  Biso   1.000  H
  N17      1.0000 0.15750  0.06790  0.19460  Biso   1.000  N
  N18      1.0000 0.16790  0.18030  0.32390  Biso   1.000  N
  N19      1.0000 0.16590  0.81360  0.34400  Biso   1.000  N
  N20      1.0000 0.18840  0.93260  0.47970  Biso   1.000  N
  O13      1.0000 0.81700  0.49100  0.71480  Biso   1.000  O
  O14      1.0000 0.74650  0.63910  0.65450  Biso   1.000  O
  O15      1.0000 0.09090  0.85830  0.01820  Biso   1.000  O
  O16      1.0000 0.02910  0.01070  0.95070  Biso   1.000  O
  C107     1.0000 0.18420  0.38830  0.37230  Biso   1.000  C
  C108     1.0000 0.18920  0.42980  0.28390  Biso   1.000  C
  C109     1.0000 0.17180  0.54450  0.25290  Biso   1.000  C
  C110     1.0000 0.14960  0.61770  0.31030  Biso   1.000  C
  C111     1.0000 0.14460  0.57620  0.39870  Biso   1.000  C
  C112     1.0000 0.16190  0.46150  0.42970  Biso   1.000  C
  H89      1.0000 0.20410  0.38080  0.24550  Biso   1.000  H
  H90      1.0000 0.17520  0.57220  0.19380  Biso   1.000  H
  H91      1.0000 0.12970  0.62520  0.43710  Biso   1.000  H
  H92      1.0000 0.15860  0.43380  0.48880  Biso   1.000  H
