data_image0
_cell_length_a       10.429
_cell_length_b       10.429
_cell_length_c       8.99
_cell_angle_alpha    90
_cell_angle_beta     90
_cell_angle_gamma    90

_symmetry_space_group_name_H-M    "P 1"
_symmetry_int_tables_number       1

loop_
  _symmetry_equiv_pos_as_xyz
  'x, y, z'

loop_
  _atom_site_label
  _atom_site_occupancy
  _atom_site_fract_x
  _atom_site_fract_y
  _atom_site_fract_z
  _atom_site_thermal_displace_type
  _atom_site_B_iso_or_equiv
  _atom_site_type_symbol
  Fe1      1.0000 0.11891  0.61886  0.15615  Biso   1.000  Fe
  P1       1.0000 0.89760  0.39759  0.20202  Biso   1.000  P
  O1       1.0000 0.99690  0.49720  0.24520  Biso   1.000  O
  O2       1.0000 0.93590  0.28170  0.31600  Biso   1.000  O
  O3       1.0000 0.07070  0.76880  0.28880  Biso   1.000  O
  O4       1.0000 0.76910  0.43190  0.21160  Biso   1.000  O
  O5       1.0000 0.28200  0.56230  0.18420  Biso   1.000  O
  O6       1.0000 0.94090  0.33590  0.04610  Biso   1.000  O
  O7       1.0000 0.16310  0.55890  0.95310  Biso   1.000  O
  Zn1      1.0000 0.88109  0.11886  0.34385  Biso   1.000  Zn
  Fe2      1.0000 0.38109  0.88114  0.15615  Biso   1.000  Fe
  P2       1.0000 0.60240  0.10241  0.20202  Biso   1.000  P
  O8       1.0000 0.50310  0.00280  0.24520  Biso   1.000  O
  O9       1.0000 0.56410  0.21830  0.31600  Biso   1.000  O
  O10      1.0000 0.42930  0.73120  0.28880  Biso   1.000  O
  O11      1.0000 0.73090  0.06810  0.21160  Biso   1.000  O
  O12      1.0000 0.21800  0.93770  0.18420  Biso   1.000  O
  O13      1.0000 0.55910  0.16410  0.04610  Biso   1.000  O
  O14      1.0000 0.33690  0.94110  0.95310  Biso   1.000  O
  Zn2      1.0000 0.61891  0.38114  0.34385  Biso   1.000  Zn
  P3       1.0000 0.10240  0.89759  0.29798  Biso   1.000  P
  O15      1.0000 0.00310  0.99720  0.25480  Biso   1.000  O
  O16      1.0000 0.06410  0.78170  0.18400  Biso   1.000  O
  O17      1.0000 0.92930  0.26880  0.21120  Biso   1.000  O
  O18      1.0000 0.23090  0.93190  0.28840  Biso   1.000  O
  O19      1.0000 0.71800  0.06230  0.31580  Biso   1.000  O
  O20      1.0000 0.05910  0.83590  0.45390  Biso   1.000  O
  O21      1.0000 0.83690  0.05890  0.54690  Biso   1.000  O
  P4       1.0000 0.39760  0.60241  0.29798  Biso   1.000  P
  O22      1.0000 0.49690  0.50280  0.25480  Biso   1.000  O
  O23      1.0000 0.43590  0.71830  0.18400  Biso   1.000  O
  O24      1.0000 0.57070  0.23120  0.21120  Biso   1.000  O
  O25      1.0000 0.26910  0.56810  0.28840  Biso   1.000  O
  O26      1.0000 0.78200  0.43770  0.31580  Biso   1.000  O
  O27      1.0000 0.44090  0.66410  0.45390  Biso   1.000  O
  O28      1.0000 0.66310  0.44110  0.54690  Biso   1.000  O
  Fe3      1.0000 0.88109  0.38114  0.84385  Biso   1.000  Fe
  P5       1.0000 0.10240  0.60241  0.79798  Biso   1.000  P
  O29      1.0000 0.00310  0.50280  0.75480  Biso   1.000  O
  O30      1.0000 0.06410  0.71830  0.68400  Biso   1.000  O
  O31      1.0000 0.92930  0.23120  0.71120  Biso   1.000  O
  O32      1.0000 0.23090  0.56810  0.78840  Biso   1.000  O
  O33      1.0000 0.71800  0.43770  0.81580  Biso   1.000  O
  O34      1.0000 0.05910  0.66410  0.95390  Biso   1.000  O
  O35      1.0000 0.83690  0.44110  0.04690  Biso   1.000  O
  Zn3      1.0000 0.11891  0.88114  0.65615  Biso   1.000  Zn
  Fe4      1.0000 0.61891  0.11886  0.84385  Biso   1.000  Fe
  P6       1.0000 0.39760  0.89759  0.79798  Biso   1.000  P
  O36      1.0000 0.49690  0.99720  0.75480  Biso   1.000  O
  O37      1.0000 0.43590  0.78170  0.68400  Biso   1.000  O
  O38      1.0000 0.57070  0.26880  0.71120  Biso   1.000  O
  O39      1.0000 0.26910  0.93190  0.78840  Biso   1.000  O
  O40      1.0000 0.78200  0.06230  0.81580  Biso   1.000  O
  O41      1.0000 0.44090  0.83590  0.95390  Biso   1.000  O
  O42      1.0000 0.66310  0.05890  0.04690  Biso   1.000  O
  Zn4      1.0000 0.38109  0.61886  0.65615  Biso   1.000  Zn
  P7       1.0000 0.89760  0.10241  0.70202  Biso   1.000  P
  O43      1.0000 0.99690  0.00280  0.74520  Biso   1.000  O
  O44      1.0000 0.93590  0.21830  0.81600  Biso   1.000  O
  O45      1.0000 0.07070  0.73120  0.78880  Biso   1.000  O
  O46      1.0000 0.76910  0.06810  0.71160  Biso   1.000  O
  O47      1.0000 0.28200  0.93770  0.68420  Biso   1.000  O
  O48      1.0000 0.94090  0.16410  0.54610  Biso   1.000  O
  O49      1.0000 0.16310  0.94110  0.45310  Biso   1.000  O
  P8       1.0000 0.60240  0.39759  0.70202  Biso   1.000  P
  O50      1.0000 0.50310  0.49720  0.74520  Biso   1.000  O
  O51      1.0000 0.56410  0.28170  0.81600  Biso   1.000  O
  O52      1.0000 0.42930  0.76880  0.78880  Biso   1.000  O
  O53      1.0000 0.73090  0.43190  0.71160  Biso   1.000  O
  O54      1.0000 0.21800  0.56230  0.68420  Biso   1.000  O
  O55      1.0000 0.55910  0.33590  0.54610  Biso   1.000  O
  O56      1.0000 0.33690  0.55890  0.45310  Biso   1.000  O
