data_image0
_cell_length_a       22.0927
_cell_length_b       22.0927
_cell_length_c       15.2503
_cell_angle_alpha    90
_cell_angle_beta     90
_cell_angle_gamma    90

_symmetry_space_group_name_H-M    "P 1"
_symmetry_int_tables_number       1

loop_
  _symmetry_equiv_pos_as_xyz
  'x, y, z'

loop_
  _atom_site_label
  _atom_site_occupancy
  _atom_site_fract_x
  _atom_site_fract_y
  _atom_site_fract_z
  _atom_site_thermal_displace_type
  _atom_site_B_iso_or_equiv
  _atom_site_type_symbol
  F1       1.0000 0.99320  0.92552  0.66200  Biso   1.000  F
  F2       1.0000 0.92592  0.01508  0.16650  Biso   1.000  F
  N1       1.0000 0.43200  0.43261  0.91150  Biso   1.000  N
  C1       1.0000 0.38700  0.43310  0.85570  Biso   1.000  C
  H1       1.0000 0.38660  0.46460  0.81320  Biso   1.000  H
  C2       1.0000 0.33990  0.39160  0.85310  Biso   1.000  C
  H2       1.0000 0.30860  0.39520  0.81080  Biso   1.000  H
  C3       1.0000 0.33960  0.34430  0.91430  Biso   1.000  C
  C4       1.0000 0.39020  0.34240  0.97670  Biso   1.000  C
  H3       1.0000 0.39340  0.31170  0.02010  Biso   1.000  H
  C5       1.0000 0.43130  0.38610  0.96880  Biso   1.000  C
  H4       1.0000 0.46430  0.38440  0.00870  Biso   1.000  H
  C6       1.0000 0.29330  0.29690  0.91730  Biso   1.000  C
  C7       1.0000 0.23200  0.30770  0.92660  Biso   1.000  C
  C8       1.0000 0.19150  0.26370  0.92310  Biso   1.000  C
  H5       1.0000 0.14980  0.27440  0.92300  Biso   1.000  H
  C9       1.0000 0.20630  0.20420  0.91950  Biso   1.000  C
  C10      1.0000 0.26790  0.18830  0.91890  Biso   1.000  C
  C11      1.0000 0.31150  0.23680  0.91750  Biso   1.000  C
  H6       1.0000 0.35350  0.22750  0.91680  Biso   1.000  H
  C12      1.0000 0.15860  0.15600  0.91850  Biso   1.000  C
  C13      1.0000 0.15710  0.11000  0.97800  Biso   1.000  C
  H7       1.0000 0.18880  0.10720  0.01990  Biso   1.000  H
  C14      1.0000 0.11210  0.06800  0.97990  Biso   1.000  C
  H8       1.0000 0.11120  0.03820  0.02490  Biso   1.000  H
  N2       1.0000 0.06759  0.06896  0.91590  Biso   1.000  N
  C15      1.0000 0.06780  0.11180  0.85430  Biso   1.000  C
  H9       1.0000 0.03730  0.11380  0.81060  Biso   1.000  H
  C16      1.0000 0.11660  0.15500  0.85720  Biso   1.000  C
  H10      1.0000 0.11870  0.18460  0.81200  Biso   1.000  H
  O1       1.0000 0.21890  0.36960  0.94010  Biso   1.000  O
  C17      1.0000 0.15910  0.38460  0.97040  Biso   1.000  C
  H11      1.0000 0.14890  0.36060  0.02320  Biso   1.000  H
  H12      1.0000 0.12880  0.37550  0.92430  Biso   1.000  H
  C18      1.0000 0.15840  0.45320  0.99250  Biso   1.000  C
  C19      1.0000 0.09030  0.46830  0.01610  Biso   1.000  C
  C20      1.0000 0.09600  0.45800  0.11940  Biso   1.000  C
  C21      1.0000 0.15510  0.48570  0.89930  Biso   1.000  C
  C22      1.0000 0.31680  0.00940  0.90680  Biso   1.000  C
  C23      1.0000 0.42430  0.04860  0.89300  Biso   1.000  C
  C24      1.0000 0.41070  0.03470  0.99060  Biso   1.000  C
  O2       1.0000 0.28340  0.13240  0.94050  Biso   1.000  O
  C25      1.0000 0.34470  0.11660  0.96230  Biso   1.000  C
  H13      1.0000 0.35970  0.14190  0.01130  Biso   1.000  H
  H14      1.0000 0.37160  0.12230  0.91110  Biso   1.000  H
  C26      1.0000 0.34210  0.04630  0.99040  Biso   1.000  C
  C27      1.0000 0.21240  0.49290  0.96800  Biso   1.000  C
  C28      1.0000 0.10780  0.46960  0.05780  Biso   1.000  C
  C29      1.0000 0.10200  0.43800  0.14800  Biso   1.000  C
  C30      1.0000 0.29900  0.01500  0.92300  Biso   1.000  C
  C31      1.0000 0.40630  0.02600  0.01700  Biso   1.000  C
  C32      1.0000 0.38800  0.96100  0.99200  Biso   1.000  C
  F3       1.0000 0.00680  0.07448  0.66200  Biso   1.000  F
  F4       1.0000 0.07408  0.98492  0.16650  Biso   1.000  F
  N3       1.0000 0.56800  0.56739  0.91150  Biso   1.000  N
  C33      1.0000 0.61300  0.56690  0.85570  Biso   1.000  C
  H15      1.0000 0.61340  0.53540  0.81320  Biso   1.000  H
  C34      1.0000 0.66010  0.60840  0.85310  Biso   1.000  C
  H16      1.0000 0.69140  0.60480  0.81080  Biso   1.000  H
  C35      1.0000 0.66040  0.65570  0.91430  Biso   1.000  C
  C36      1.0000 0.60980  0.65760  0.97670  Biso   1.000  C
  H17      1.0000 0.60660  0.68830  0.02010  Biso   1.000  H
  C37      1.0000 0.56870  0.61390  0.96880  Biso   1.000  C
  H18      1.0000 0.53570  0.61560  0.00870  Biso   1.000  H
  C38      1.0000 0.70670  0.70310  0.91730  Biso   1.000  C
  C39      1.0000 0.76800  0.69230  0.92660  Biso   1.000  C
  C40      1.0000 0.80850  0.73630  0.92310  Biso   1.000  C
  H19      1.0000 0.85020  0.72560  0.92300  Biso   1.000  H
  C41      1.0000 0.79370  0.79580  0.91950  Biso   1.000  C
  C42      1.0000 0.73210  0.81170  0.91890  Biso   1.000  C
  C43      1.0000 0.68850  0.76320  0.91750  Biso   1.000  C
  H20      1.0000 0.64650  0.77250  0.91680  Biso   1.000  H
  C44      1.0000 0.84140  0.84400  0.91850  Biso   1.000  C
  C45      1.0000 0.84290  0.89000  0.97800  Biso   1.000  C
  H21      1.0000 0.81120  0.89280  0.01990  Biso   1.000  H
  C46      1.0000 0.88790  0.93200  0.97990  Biso   1.000  C
  H22      1.0000 0.88880  0.96180  0.02490  Biso   1.000  H
  N4       1.0000 0.93241  0.93104  0.91590  Biso   1.000  N
  C47      1.0000 0.93220  0.88820  0.85430  Biso   1.000  C
  H23      1.0000 0.96270  0.88620  0.81060  Biso   1.000  H
  C48      1.0000 0.88340  0.84500  0.85720  Biso   1.000  C
  H24      1.0000 0.88130  0.81540  0.81200  Biso   1.000  H
  O3       1.0000 0.78110  0.63040  0.94010  Biso   1.000  O
  C49      1.0000 0.84090  0.61540  0.97040  Biso   1.000  C
  H25      1.0000 0.85110  0.63940  0.02320  Biso   1.000  H
  H26      1.0000 0.87120  0.62450  0.92430  Biso   1.000  H
  C50      1.0000 0.84160  0.54680  0.99250  Biso   1.000  C
  C51      1.0000 0.90970  0.53170  0.01610  Biso   1.000  C
  C52      1.0000 0.90400  0.54200  0.11940  Biso   1.000  C
  C53      1.0000 0.84490  0.51430  0.89930  Biso   1.000  C
  C54      1.0000 0.68320  0.99060  0.90680  Biso   1.000  C
  C55      1.0000 0.57570  0.95140  0.89300  Biso   1.000  C
  C56      1.0000 0.58930  0.96530  0.99060  Biso   1.000  C
  O4       1.0000 0.71660  0.86760  0.94050  Biso   1.000  O
  C57      1.0000 0.65530  0.88340  0.96230  Biso   1.000  C
  H27      1.0000 0.64030  0.85810  0.01130  Biso   1.000  H
  H28      1.0000 0.62840  0.87770  0.91110  Biso   1.000  H
  C58      1.0000 0.65790  0.95370  0.99040  Biso   1.000  C
  C59      1.0000 0.78760  0.50710  0.96800  Biso   1.000  C
  C60      1.0000 0.89220  0.53040  0.05780  Biso   1.000  C
  C61      1.0000 0.89800  0.56200  0.14800  Biso   1.000  C
  C62      1.0000 0.70100  0.98500  0.92300  Biso   1.000  C
  C63      1.0000 0.59370  0.97400  0.01700  Biso   1.000  C
  C64      1.0000 0.61200  0.03900  0.99200  Biso   1.000  C
  F5       1.0000 0.07448  0.99320  0.66200  Biso   1.000  F
  F6       1.0000 0.98492  0.92592  0.16650  Biso   1.000  F
  N5       1.0000 0.56739  0.43200  0.91150  Biso   1.000  N
  C65      1.0000 0.56690  0.38700  0.85570  Biso   1.000  C
  H29      1.0000 0.53540  0.38660  0.81320  Biso   1.000  H
  C66      1.0000 0.60840  0.33990  0.85310  Biso   1.000  C
  H30      1.0000 0.60480  0.30860  0.81080  Biso   1.000  H
  C67      1.0000 0.65570  0.33960  0.91430  Biso   1.000  C
  C68      1.0000 0.65760  0.39020  0.97670  Biso   1.000  C
  H31      1.0000 0.68830  0.39340  0.02010  Biso   1.000  H
  C69      1.0000 0.61390  0.43130  0.96880  Biso   1.000  C
  H32      1.0000 0.61560  0.46430  0.00870  Biso   1.000  H
  C70      1.0000 0.70310  0.29330  0.91730  Biso   1.000  C
  C71      1.0000 0.69230  0.23200  0.92660  Biso   1.000  C
  C72      1.0000 0.73630  0.19150  0.92310  Biso   1.000  C
  H33      1.0000 0.72560  0.14980  0.92300  Biso   1.000  H
  C73      1.0000 0.79580  0.20630  0.91950  Biso   1.000  C
  C74      1.0000 0.81170  0.26790  0.91890  Biso   1.000  C
  C75      1.0000 0.76320  0.31150  0.91750  Biso   1.000  C
  H34      1.0000 0.77250  0.35350  0.91680  Biso   1.000  H
  C76      1.0000 0.84400  0.15860  0.91850  Biso   1.000  C
  C77      1.0000 0.89000  0.15710  0.97800  Biso   1.000  C
  H35      1.0000 0.89280  0.18880  0.01990  Biso   1.000  H
  C78      1.0000 0.93200  0.11210  0.97990  Biso   1.000  C
  H36      1.0000 0.96180  0.11120  0.02490  Biso   1.000  H
  N6       1.0000 0.93104  0.06759  0.91590  Biso   1.000  N
  C79      1.0000 0.88820  0.06780  0.85430  Biso   1.000  C
  H37      1.0000 0.88620  0.03730  0.81060  Biso   1.000  H
  C80      1.0000 0.84500  0.11660  0.85720  Biso   1.000  C
  H38      1.0000 0.81540  0.11870  0.81200  Biso   1.000  H
  O5       1.0000 0.63040  0.21890  0.94010  Biso   1.000  O
  C81      1.0000 0.61540  0.15910  0.97040  Biso   1.000  C
  H39      1.0000 0.63940  0.14890  0.02320  Biso   1.000  H
  H40      1.0000 0.62450  0.12880  0.92430  Biso   1.000  H
  C82      1.0000 0.54680  0.15840  0.99250  Biso   1.000  C
  C83      1.0000 0.53170  0.09030  0.01610  Biso   1.000  C
  C84      1.0000 0.54200  0.09600  0.11940  Biso   1.000  C
  C85      1.0000 0.51430  0.15510  0.89930  Biso   1.000  C
  C86      1.0000 0.99060  0.31680  0.90680  Biso   1.000  C
  C87      1.0000 0.95140  0.42430  0.89300  Biso   1.000  C
  C88      1.0000 0.96530  0.41070  0.99060  Biso   1.000  C
  O6       1.0000 0.86760  0.28340  0.94050  Biso   1.000  O
  C89      1.0000 0.88340  0.34470  0.96230  Biso   1.000  C
  H41      1.0000 0.85810  0.35970  0.01130  Biso   1.000  H
  H42      1.0000 0.87770  0.37160  0.91110  Biso   1.000  H
  C90      1.0000 0.95370  0.34210  0.99040  Biso   1.000  C
  C91      1.0000 0.50710  0.21240  0.96800  Biso   1.000  C
  C92      1.0000 0.53040  0.10780  0.05780  Biso   1.000  C
  C93      1.0000 0.56200  0.10200  0.14800  Biso   1.000  C
  C94      1.0000 0.98500  0.29900  0.92300  Biso   1.000  C
  C95      1.0000 0.97400  0.40630  0.01700  Biso   1.000  C
  C96      1.0000 0.03900  0.38800  0.99200  Biso   1.000  C
  F7       1.0000 0.92552  0.00680  0.66200  Biso   1.000  F
  F8       1.0000 0.01508  0.07408  0.16650  Biso   1.000  F
  N7       1.0000 0.43261  0.56800  0.91150  Biso   1.000  N
  C97      1.0000 0.43310  0.61300  0.85570  Biso   1.000  C
  H43      1.0000 0.46460  0.61340  0.81320  Biso   1.000  H
  C98      1.0000 0.39160  0.66010  0.85310  Biso   1.000  C
  H44      1.0000 0.39520  0.69140  0.81080  Biso   1.000  H
  C99      1.0000 0.34430  0.66040  0.91430  Biso   1.000  C
  C100     1.0000 0.34240  0.60980  0.97670  Biso   1.000  C
  H45      1.0000 0.31170  0.60660  0.02010  Biso   1.000  H
  C101     1.0000 0.38610  0.56870  0.96880  Biso   1.000  C
  H46      1.0000 0.38440  0.53570  0.00870  Biso   1.000  H
  C102     1.0000 0.29690  0.70670  0.91730  Biso   1.000  C
  C103     1.0000 0.30770  0.76800  0.92660  Biso   1.000  C
  C104     1.0000 0.26370  0.80850  0.92310  Biso   1.000  C
  H47      1.0000 0.27440  0.85020  0.92300  Biso   1.000  H
  C105     1.0000 0.20420  0.79370  0.91950  Biso   1.000  C
  C106     1.0000 0.18830  0.73210  0.91890  Biso   1.000  C
  C107     1.0000 0.23680  0.68850  0.91750  Biso   1.000  C
  H48      1.0000 0.22750  0.64650  0.91680  Biso   1.000  H
  C108     1.0000 0.15600  0.84140  0.91850  Biso   1.000  C
  C109     1.0000 0.11000  0.84290  0.97800  Biso   1.000  C
  H49      1.0000 0.10720  0.81120  0.01990  Biso   1.000  H
  C110     1.0000 0.06800  0.88790  0.97990  Biso   1.000  C
  H50      1.0000 0.03820  0.88880  0.02490  Biso   1.000  H
  N8       1.0000 0.06896  0.93241  0.91590  Biso   1.000  N
  C111     1.0000 0.11180  0.93220  0.85430  Biso   1.000  C
  H51      1.0000 0.11380  0.96270  0.81060  Biso   1.000  H
  C112     1.0000 0.15500  0.88340  0.85720  Biso   1.000  C
  H52      1.0000 0.18460  0.88130  0.81200  Biso   1.000  H
  O7       1.0000 0.36960  0.78110  0.94010  Biso   1.000  O
  C113     1.0000 0.38460  0.84090  0.97040  Biso   1.000  C
  H53      1.0000 0.36060  0.85110  0.02320  Biso   1.000  H
  H54      1.0000 0.37550  0.87120  0.92430  Biso   1.000  H
  C114     1.0000 0.45320  0.84160  0.99250  Biso   1.000  C
  C115     1.0000 0.46830  0.90970  0.01610  Biso   1.000  C
  C116     1.0000 0.45800  0.90400  0.11940  Biso   1.000  C
  C117     1.0000 0.48570  0.84490  0.89930  Biso   1.000  C
  C118     1.0000 0.00940  0.68320  0.90680  Biso   1.000  C
  C119     1.0000 0.04860  0.57570  0.89300  Biso   1.000  C
  C120     1.0000 0.03470  0.58930  0.99060  Biso   1.000  C
  O8       1.0000 0.13240  0.71660  0.94050  Biso   1.000  O
  C121     1.0000 0.11660  0.65530  0.96230  Biso   1.000  C
  H55      1.0000 0.14190  0.64030  0.01130  Biso   1.000  H
  H56      1.0000 0.12230  0.62840  0.91110  Biso   1.000  H
  C122     1.0000 0.04630  0.65790  0.99040  Biso   1.000  C
  C123     1.0000 0.49290  0.78760  0.96800  Biso   1.000  C
  C124     1.0000 0.46960  0.89220  0.05780  Biso   1.000  C
  C125     1.0000 0.43800  0.89800  0.14800  Biso   1.000  C
  C126     1.0000 0.01500  0.70100  0.92300  Biso   1.000  C
  C127     1.0000 0.02600  0.59370  0.01700  Biso   1.000  C
  C128     1.0000 0.96100  0.61200  0.99200  Biso   1.000  C
  Zn1      1.0000 0.00000  0.00000  0.91736  Biso   1.000  Zn
  Si1      1.0000 0.00000  0.00000  0.66500  Biso   1.000  Si
  Si2      1.0000 0.00000  0.00000  0.16510  Biso   1.000  Si
  F9       1.0000 0.00000  0.00000  0.78200  Biso   1.000  F
  F10      1.0000 0.00000  0.00000  0.55800  Biso   1.000  F
  F11      1.0000 0.00000  0.00000  0.05270  Biso   1.000  F
  F12      1.0000 0.00000  0.00000  0.27650  Biso   1.000  F
  Zn2      1.0000 0.50000  0.50000  0.91515  Biso   1.000  Zn
  N9       1.0000 0.93200  0.93261  0.41150  Biso   1.000  N
  C129     1.0000 0.88700  0.93310  0.35570  Biso   1.000  C
  H57      1.0000 0.88660  0.96460  0.31320  Biso   1.000  H
  C130     1.0000 0.83990  0.89160  0.35310  Biso   1.000  C
  H58      1.0000 0.80860  0.89520  0.31080  Biso   1.000  H
  C131     1.0000 0.83960  0.84430  0.41430  Biso   1.000  C
  C132     1.0000 0.89020  0.84240  0.47670  Biso   1.000  C
  H59      1.0000 0.89340  0.81170  0.52010  Biso   1.000  H
  C133     1.0000 0.93130  0.88610  0.46880  Biso   1.000  C
  H60      1.0000 0.96430  0.88440  0.50870  Biso   1.000  H
  C134     1.0000 0.79330  0.79690  0.41730  Biso   1.000  C
  C135     1.0000 0.73200  0.80770  0.42660  Biso   1.000  C
  C136     1.0000 0.69150  0.76370  0.42310  Biso   1.000  C
  H61      1.0000 0.64980  0.77440  0.42300  Biso   1.000  H
  C137     1.0000 0.70630  0.70420  0.41950  Biso   1.000  C
  C138     1.0000 0.76790  0.68830  0.41890  Biso   1.000  C
  C139     1.0000 0.81150  0.73680  0.41750  Biso   1.000  C
  H62      1.0000 0.85350  0.72750  0.41680  Biso   1.000  H
  C140     1.0000 0.65860  0.65600  0.41850  Biso   1.000  C
  C141     1.0000 0.65710  0.61000  0.47800  Biso   1.000  C
  H63      1.0000 0.68880  0.60720  0.51990  Biso   1.000  H
  C142     1.0000 0.61210  0.56800  0.47990  Biso   1.000  C
  H64      1.0000 0.61120  0.53820  0.52490  Biso   1.000  H
  N10      1.0000 0.56759  0.56896  0.41590  Biso   1.000  N
  C143     1.0000 0.56780  0.61180  0.35430  Biso   1.000  C
  H65      1.0000 0.53730  0.61380  0.31060  Biso   1.000  H
  C144     1.0000 0.61660  0.65500  0.35720  Biso   1.000  C
  H66      1.0000 0.61870  0.68460  0.31200  Biso   1.000  H
  O9       1.0000 0.71890  0.86960  0.44010  Biso   1.000  O
  C145     1.0000 0.65910  0.88460  0.47040  Biso   1.000  C
  H67      1.0000 0.64890  0.86060  0.52320  Biso   1.000  H
  H68      1.0000 0.62880  0.87550  0.42430  Biso   1.000  H
  C146     1.0000 0.65840  0.95320  0.49250  Biso   1.000  C
  C147     1.0000 0.59030  0.96830  0.51610  Biso   1.000  C
  C148     1.0000 0.59600  0.95800  0.61940  Biso   1.000  C
  C149     1.0000 0.65510  0.98570  0.39930  Biso   1.000  C
  C150     1.0000 0.81680  0.50940  0.40680  Biso   1.000  C
  C151     1.0000 0.92430  0.54860  0.39300  Biso   1.000  C
  C152     1.0000 0.91070  0.53470  0.49060  Biso   1.000  C
  O10      1.0000 0.78340  0.63240  0.44050  Biso   1.000  O
  C153     1.0000 0.84470  0.61660  0.46230  Biso   1.000  C
  H69      1.0000 0.85970  0.64190  0.51130  Biso   1.000  H
  H70      1.0000 0.87160  0.62230  0.41110  Biso   1.000  H
  C154     1.0000 0.84210  0.54630  0.49040  Biso   1.000  C
  C155     1.0000 0.71240  0.99290  0.46800  Biso   1.000  C
  C156     1.0000 0.60780  0.96960  0.55780  Biso   1.000  C
  C157     1.0000 0.60200  0.93800  0.64800  Biso   1.000  C
  C158     1.0000 0.79900  0.51500  0.42300  Biso   1.000  C
  C159     1.0000 0.90630  0.52600  0.51700  Biso   1.000  C
  C160     1.0000 0.88800  0.46100  0.49200  Biso   1.000  C
  F13      1.0000 0.49320  0.42552  0.16200  Biso   1.000  F
  F14      1.0000 0.42592  0.51508  0.66650  Biso   1.000  F
  N11      1.0000 0.06800  0.06739  0.41150  Biso   1.000  N
  C161     1.0000 0.11300  0.06690  0.35570  Biso   1.000  C
  H71      1.0000 0.11340  0.03540  0.31320  Biso   1.000  H
  C162     1.0000 0.16010  0.10840  0.35310  Biso   1.000  C
  H72      1.0000 0.19140  0.10480  0.31080  Biso   1.000  H
  C163     1.0000 0.16040  0.15570  0.41430  Biso   1.000  C
  C164     1.0000 0.10980  0.15760  0.47670  Biso   1.000  C
  H73      1.0000 0.10660  0.18830  0.52010  Biso   1.000  H
  C165     1.0000 0.06870  0.11390  0.46880  Biso   1.000  C
  H74      1.0000 0.03570  0.11560  0.50870  Biso   1.000  H
  C166     1.0000 0.20670  0.20310  0.41730  Biso   1.000  C
  C167     1.0000 0.26800  0.19230  0.42660  Biso   1.000  C
  C168     1.0000 0.30850  0.23630  0.42310  Biso   1.000  C
  H75      1.0000 0.35020  0.22560  0.42300  Biso   1.000  H
  C169     1.0000 0.29370  0.29580  0.41950  Biso   1.000  C
  C170     1.0000 0.23210  0.31170  0.41890  Biso   1.000  C
  C171     1.0000 0.18850  0.26320  0.41750  Biso   1.000  C
  H76      1.0000 0.14650  0.27250  0.41680  Biso   1.000  H
  C172     1.0000 0.34140  0.34400  0.41850  Biso   1.000  C
  C173     1.0000 0.34290  0.39000  0.47800  Biso   1.000  C
  H77      1.0000 0.31120  0.39280  0.51990  Biso   1.000  H
  C174     1.0000 0.38790  0.43200  0.47990  Biso   1.000  C
  H78      1.0000 0.38880  0.46180  0.52490  Biso   1.000  H
  N12      1.0000 0.43241  0.43104  0.41590  Biso   1.000  N
  C175     1.0000 0.43220  0.38820  0.35430  Biso   1.000  C
  H79      1.0000 0.46270  0.38620  0.31060  Biso   1.000  H
  C176     1.0000 0.38340  0.34500  0.35720  Biso   1.000  C
  H80      1.0000 0.38130  0.31540  0.31200  Biso   1.000  H
  O11      1.0000 0.28110  0.13040  0.44010  Biso   1.000  O
  C177     1.0000 0.34090  0.11540  0.47040  Biso   1.000  C
  H81      1.0000 0.35110  0.13940  0.52320  Biso   1.000  H
  H82      1.0000 0.37120  0.12450  0.42430  Biso   1.000  H
  C178     1.0000 0.34160  0.04680  0.49250  Biso   1.000  C
  C179     1.0000 0.40970  0.03170  0.51610  Biso   1.000  C
  C180     1.0000 0.40400  0.04200  0.61940  Biso   1.000  C
  C181     1.0000 0.34490  0.01430  0.39930  Biso   1.000  C
  C182     1.0000 0.18320  0.49060  0.40680  Biso   1.000  C
  C183     1.0000 0.07570  0.45140  0.39300  Biso   1.000  C
  C184     1.0000 0.08930  0.46530  0.49060  Biso   1.000  C
  O12      1.0000 0.21660  0.36760  0.44050  Biso   1.000  O
  C185     1.0000 0.15530  0.38340  0.46230  Biso   1.000  C
  H83      1.0000 0.14030  0.35810  0.51130  Biso   1.000  H
  H84      1.0000 0.12840  0.37770  0.41110  Biso   1.000  H
  C186     1.0000 0.15790  0.45370  0.49040  Biso   1.000  C
  C187     1.0000 0.28760  0.00710  0.46800  Biso   1.000  C
  C188     1.0000 0.39220  0.03040  0.55780  Biso   1.000  C
  C189     1.0000 0.39800  0.06200  0.64800  Biso   1.000  C
  C190     1.0000 0.20100  0.48500  0.42300  Biso   1.000  C
  C191     1.0000 0.09370  0.47400  0.51700  Biso   1.000  C
  C192     1.0000 0.11200  0.53900  0.49200  Biso   1.000  C
  F15      1.0000 0.50680  0.57448  0.16200  Biso   1.000  F
  F16      1.0000 0.57408  0.48492  0.66650  Biso   1.000  F
  N13      1.0000 0.06739  0.93200  0.41150  Biso   1.000  N
  C193     1.0000 0.06690  0.88700  0.35570  Biso   1.000  C
  H85      1.0000 0.03540  0.88660  0.31320  Biso   1.000  H
  C194     1.0000 0.10840  0.83990  0.35310  Biso   1.000  C
  H86      1.0000 0.10480  0.80860  0.31080  Biso   1.000  H
  C195     1.0000 0.15570  0.83960  0.41430  Biso   1.000  C
  C196     1.0000 0.15760  0.89020  0.47670  Biso   1.000  C
  H87      1.0000 0.18830  0.89340  0.52010  Biso   1.000  H
  C197     1.0000 0.11390  0.93130  0.46880  Biso   1.000  C
  H88      1.0000 0.11560  0.96430  0.50870  Biso   1.000  H
  C198     1.0000 0.20310  0.79330  0.41730  Biso   1.000  C
  C199     1.0000 0.19230  0.73200  0.42660  Biso   1.000  C
  C200     1.0000 0.23630  0.69150  0.42310  Biso   1.000  C
  H89      1.0000 0.22560  0.64980  0.42300  Biso   1.000  H
  C201     1.0000 0.29580  0.70630  0.41950  Biso   1.000  C
  C202     1.0000 0.31170  0.76790  0.41890  Biso   1.000  C
  C203     1.0000 0.26320  0.81150  0.41750  Biso   1.000  C
  H90      1.0000 0.27250  0.85350  0.41680  Biso   1.000  H
  C204     1.0000 0.34400  0.65860  0.41850  Biso   1.000  C
  C205     1.0000 0.39000  0.65710  0.47800  Biso   1.000  C
  H91      1.0000 0.39280  0.68880  0.51990  Biso   1.000  H
  C206     1.0000 0.43200  0.61210  0.47990  Biso   1.000  C
  H92      1.0000 0.46180  0.61120  0.52490  Biso   1.000  H
  N14      1.0000 0.43104  0.56759  0.41590  Biso   1.000  N
  C207     1.0000 0.38820  0.56780  0.35430  Biso   1.000  C
  H93      1.0000 0.38620  0.53730  0.31060  Biso   1.000  H
  C208     1.0000 0.34500  0.61660  0.35720  Biso   1.000  C
  H94      1.0000 0.31540  0.61870  0.31200  Biso   1.000  H
  O13      1.0000 0.13040  0.71890  0.44010  Biso   1.000  O
  C209     1.0000 0.11540  0.65910  0.47040  Biso   1.000  C
  H95      1.0000 0.13940  0.64890  0.52320  Biso   1.000  H
  H96      1.0000 0.12450  0.62880  0.42430  Biso   1.000  H
  C210     1.0000 0.04680  0.65840  0.49250  Biso   1.000  C
  C211     1.0000 0.03170  0.59030  0.51610  Biso   1.000  C
  C212     1.0000 0.04200  0.59600  0.61940  Biso   1.000  C
  C213     1.0000 0.01430  0.65510  0.39930  Biso   1.000  C
  C214     1.0000 0.49060  0.81680  0.40680  Biso   1.000  C
  C215     1.0000 0.45140  0.92430  0.39300  Biso   1.000  C
  C216     1.0000 0.46530  0.91070  0.49060  Biso   1.000  C
  O14      1.0000 0.36760  0.78340  0.44050  Biso   1.000  O
  C217     1.0000 0.38340  0.84470  0.46230  Biso   1.000  C
  H97      1.0000 0.35810  0.85970  0.51130  Biso   1.000  H
  H98      1.0000 0.37770  0.87160  0.41110  Biso   1.000  H
  C218     1.0000 0.45370  0.84210  0.49040  Biso   1.000  C
  C219     1.0000 0.00710  0.71240  0.46800  Biso   1.000  C
  C220     1.0000 0.03040  0.60780  0.55780  Biso   1.000  C
  C221     1.0000 0.06200  0.60200  0.64800  Biso   1.000  C
  C222     1.0000 0.48500  0.79900  0.42300  Biso   1.000  C
  C223     1.0000 0.47400  0.90630  0.51700  Biso   1.000  C
  C224     1.0000 0.53900  0.88800  0.49200  Biso   1.000  C
  F17      1.0000 0.57448  0.49320  0.16200  Biso   1.000  F
  F18      1.0000 0.48492  0.42592  0.66650  Biso   1.000  F
  N15      1.0000 0.93261  0.06800  0.41150  Biso   1.000  N
  C225     1.0000 0.93310  0.11300  0.35570  Biso   1.000  C
  H99      1.0000 0.96460  0.11340  0.31320  Biso   1.000  H
  C226     1.0000 0.89160  0.16010  0.35310  Biso   1.000  C
  H100     1.0000 0.89520  0.19140  0.31080  Biso   1.000  H
  C227     1.0000 0.84430  0.16040  0.41430  Biso   1.000  C
  C228     1.0000 0.84240  0.10980  0.47670  Biso   1.000  C
  H101     1.0000 0.81170  0.10660  0.52010  Biso   1.000  H
  C229     1.0000 0.88610  0.06870  0.46880  Biso   1.000  C
  H102     1.0000 0.88440  0.03570  0.50870  Biso   1.000  H
  C230     1.0000 0.79690  0.20670  0.41730  Biso   1.000  C
  C231     1.0000 0.80770  0.26800  0.42660  Biso   1.000  C
  C232     1.0000 0.76370  0.30850  0.42310  Biso   1.000  C
  H103     1.0000 0.77440  0.35020  0.42300  Biso   1.000  H
  C233     1.0000 0.70420  0.29370  0.41950  Biso   1.000  C
  C234     1.0000 0.68830  0.23210  0.41890  Biso   1.000  C
  C235     1.0000 0.73680  0.18850  0.41750  Biso   1.000  C
  H104     1.0000 0.72750  0.14650  0.41680  Biso   1.000  H
  C236     1.0000 0.65600  0.34140  0.41850  Biso   1.000  C
  C237     1.0000 0.61000  0.34290  0.47800  Biso   1.000  C
  H105     1.0000 0.60720  0.31120  0.51990  Biso   1.000  H
  C238     1.0000 0.56800  0.38790  0.47990  Biso   1.000  C
  H106     1.0000 0.53820  0.38880  0.52490  Biso   1.000  H
  N16      1.0000 0.56896  0.43241  0.41590  Biso   1.000  N
  C239     1.0000 0.61180  0.43220  0.35430  Biso   1.000  C
  H107     1.0000 0.61380  0.46270  0.31060  Biso   1.000  H
  C240     1.0000 0.65500  0.38340  0.35720  Biso   1.000  C
  H108     1.0000 0.68460  0.38130  0.31200  Biso   1.000  H
  O15      1.0000 0.86960  0.28110  0.44010  Biso   1.000  O
  C241     1.0000 0.88460  0.34090  0.47040  Biso   1.000  C
  H109     1.0000 0.86060  0.35110  0.52320  Biso   1.000  H
  H110     1.0000 0.87550  0.37120  0.42430  Biso   1.000  H
  C242     1.0000 0.95320  0.34160  0.49250  Biso   1.000  C
  C243     1.0000 0.96830  0.40970  0.51610  Biso   1.000  C
  C244     1.0000 0.95800  0.40400  0.61940  Biso   1.000  C
  C245     1.0000 0.98570  0.34490  0.39930  Biso   1.000  C
  C246     1.0000 0.50940  0.18320  0.40680  Biso   1.000  C
  C247     1.0000 0.54860  0.07570  0.39300  Biso   1.000  C
  C248     1.0000 0.53470  0.08930  0.49060  Biso   1.000  C
  O16      1.0000 0.63240  0.21660  0.44050  Biso   1.000  O
  C249     1.0000 0.61660  0.15530  0.46230  Biso   1.000  C
  H111     1.0000 0.64190  0.14030  0.51130  Biso   1.000  H
  H112     1.0000 0.62230  0.12840  0.41110  Biso   1.000  H
  C250     1.0000 0.54630  0.15790  0.49040  Biso   1.000  C
  C251     1.0000 0.99290  0.28760  0.46800  Biso   1.000  C
  C252     1.0000 0.96960  0.39220  0.55780  Biso   1.000  C
  C253     1.0000 0.93800  0.39800  0.64800  Biso   1.000  C
  C254     1.0000 0.51500  0.20100  0.42300  Biso   1.000  C
  C255     1.0000 0.52600  0.09370  0.51700  Biso   1.000  C
  C256     1.0000 0.46100  0.11200  0.49200  Biso   1.000  C
  F19      1.0000 0.42552  0.50680  0.16200  Biso   1.000  F
  F20      1.0000 0.51508  0.57408  0.66650  Biso   1.000  F
  Zn3      1.0000 0.00000  0.00000  0.41515  Biso   1.000  Zn
  Zn4      1.0000 0.50000  0.50000  0.41736  Biso   1.000  Zn
  Si3      1.0000 0.50000  0.50000  0.16500  Biso   1.000  Si
  Si4      1.0000 0.50000  0.50000  0.66510  Biso   1.000  Si
  F21      1.0000 0.50000  0.50000  0.28200  Biso   1.000  F
  F22      1.0000 0.50000  0.50000  0.05800  Biso   1.000  F
  F23      1.0000 0.50000  0.50000  0.55270  Biso   1.000  F
  F24      1.0000 0.50000  0.50000  0.77650  Biso   1.000  F
