data_image0
_cell_length_a       22.0656
_cell_length_b       22.0656
_cell_length_c       15.273
_cell_angle_alpha    90
_cell_angle_beta     90
_cell_angle_gamma    90

_symmetry_space_group_name_H-M    "P 1"
_symmetry_int_tables_number       1

loop_
  _symmetry_equiv_pos_as_xyz
  'x, y, z'

loop_
  _atom_site_label
  _atom_site_occupancy
  _atom_site_fract_x
  _atom_site_fract_y
  _atom_site_fract_z
  _atom_site_thermal_displace_type
  _atom_site_B_iso_or_equiv
  _atom_site_type_symbol
  F1       1.0000 0.07380  0.98800  0.24020  Biso   1.000  F
  F2       1.0000 0.07280  0.00870  0.74010  Biso   1.000  F
  N1       1.0000 0.43190  0.43420  0.01890  Biso   1.000  N
  C1       1.0000 0.42410  0.39090  0.08400  Biso   1.000  C
  H1       1.0000 0.44950  0.39260  0.13420  Biso   1.000  H
  C2       1.0000 0.38210  0.34670  0.07920  Biso   1.000  C
  H2       1.0000 0.38370  0.31450  0.12060  Biso   1.000  H
  C3       1.0000 0.33620  0.34600  0.01570  Biso   1.000  C
  C4       1.0000 0.34010  0.39420  0.95520  Biso   1.000  C
  H3       1.0000 0.31000  0.39780  0.91100  Biso   1.000  H
  C5       1.0000 0.38680  0.43650  0.95850  Biso   1.000  C
  H4       1.0000 0.38720  0.46840  0.91670  Biso   1.000  H
  C6       1.0000 0.29170  0.30110  0.01070  Biso   1.000  C
  C7       1.0000 0.30840  0.23760  0.01880  Biso   1.000  C
  H5       1.0000 0.34980  0.22710  0.02730  Biso   1.000  H
  C8       1.0000 0.26580  0.19280  0.01430  Biso   1.000  C
  C9       1.0000 0.20550  0.20710  0.00370  Biso   1.000  C
  C10      1.0000 0.18720  0.26610  0.00460  Biso   1.000  C
  H6       1.0000 0.14500  0.27450  0.00320  Biso   1.000  H
  C11      1.0000 0.22740  0.31450  0.00730  Biso   1.000  C
  O1       1.0000 0.28610  0.13370  0.01680  Biso   1.000  O
  C12      1.0000 0.34940  0.11270  0.98710  Biso   1.000  C
  C13      1.0000 0.37540  0.14620  0.90640  Biso   1.000  C
  C14      1.0000 0.34990  0.04930  0.02740  Biso   1.000  C
  C15      1.0000 0.31830  0.00300  0.96700  Biso   1.000  C
  O2       1.0000 0.21390  0.37120  0.99950  Biso   1.000  O
  C16      1.0000 0.14600  0.38530  0.00780  Biso   1.000  C
  C17      1.0000 0.13000  0.44760  0.96800  Biso   1.000  C
  C18      1.0000 0.12740  0.38640  0.10610  Biso   1.000  C
  C19      1.0000 0.17450  0.42370  0.15850  Biso   1.000  C
  C20      1.0000 0.15630  0.15720  0.00120  Biso   1.000  C
  C21      1.0000 0.11320  0.15830  0.93530  Biso   1.000  C
  H7       1.0000 0.11330  0.18900  0.89170  Biso   1.000  H
  C22      1.0000 0.06870  0.11160  0.93540  Biso   1.000  C
  H8       1.0000 0.03630  0.11330  0.89440  Biso   1.000  H
  N2       1.0000 0.07140  0.06840  0.98830  Biso   1.000  N
  C23      1.0000 0.11330  0.06570  0.05510  Biso   1.000  C
  H9       1.0000 0.11130  0.03390  0.09690  Biso   1.000  H
  C24      1.0000 0.16040  0.11100  0.06170  Biso   1.000  C
  H10      1.0000 0.19170  0.10910  0.10430  Biso   1.000  H
  N3       1.0000 0.43300  0.42930  0.51480  Biso   1.000  N
  C25      1.0000 0.38900  0.42850  0.57940  Biso   1.000  C
  H11      1.0000 0.38950  0.45760  0.62530  Biso   1.000  H
  C26      1.0000 0.34300  0.38360  0.57600  Biso   1.000  C
  H12      1.0000 0.31140  0.38300  0.61820  Biso   1.000  H
  C27      1.0000 0.34490  0.33990  0.50890  Biso   1.000  C
  C28      1.0000 0.39100  0.34380  0.45090  Biso   1.000  C
  H13      1.0000 0.39330  0.31480  0.40500  Biso   1.000  H
  C29      1.0000 0.43320  0.38650  0.45550  Biso   1.000  C
  H14      1.0000 0.46510  0.38610  0.41380  Biso   1.000  H
  C30      1.0000 0.29570  0.29430  0.50660  Biso   1.000  C
  C31      1.0000 0.30882  0.23310  0.49580  Biso   1.000  C
  C32      1.0000 0.26210  0.19110  0.48980  Biso   1.000  C
  H15      1.0000 0.27100  0.14930  0.48240  Biso   1.000  H
  C33      1.0000 0.20210  0.21030  0.49460  Biso   1.000  C
  C34      1.0000 0.18899  0.27140  0.50550  Biso   1.000  C
  C35      1.0000 0.23580  0.31340  0.51150  Biso   1.000  C
  H16      1.0000 0.22680  0.35520  0.51890  Biso   1.000  H
  O3       1.0000 0.36630  0.21640  0.48800  Biso   1.000  O
  C36      1.0000 0.38610  0.15240  0.51860  Biso   1.000  C
  H17      1.0000 0.36210  0.12600  0.47810  Biso   1.000  H
  C37      1.0000 0.37730  0.11930  0.60620  Biso   1.000  C
  H18      1.0000 0.41570  0.10100  0.62440  Biso   1.000  H
  H19      1.0000 0.34670  0.08740  0.59920  Biso   1.000  H
  H20      1.0000 0.36370  0.14820  0.65080  Biso   1.000  H
  C38      1.0000 0.45080  0.14210  0.48430  Biso   1.000  C
  H21      1.0000 0.46710  0.10200  0.50140  Biso   1.000  H
  H22      1.0000 0.45370  0.14730  0.42000  Biso   1.000  H
  C39      1.0000 0.48100  0.19440  0.53460  Biso   1.000  C
  H23      1.0000 0.45540  0.23050  0.53110  Biso   1.000  H
  H24      1.0000 0.52070  0.20310  0.50860  Biso   1.000  H
  H25      1.0000 0.48630  0.18270  0.59600  Biso   1.000  H
  O4       1.0000 0.12840  0.29030  0.50240  Biso   1.000  O
  C40      1.0000 0.10940  0.35510  0.48570  Biso   1.000  C
  H26      1.0000 0.13350  0.38660  0.51750  Biso   1.000  H
  C41      1.0000 0.12210  0.35030  0.38780  Biso   1.000  C
  H27      1.0000 0.12800  0.30610  0.38120  Biso   1.000  H
  H28      1.0000 0.16350  0.36750  0.38460  Biso   1.000  H
  C42      1.0000 0.09720  0.36710  0.29720  Biso   1.000  C
  H29      1.0000 0.05290  0.36810  0.29930  Biso   1.000  H
  H30      1.0000 0.11040  0.33690  0.25420  Biso   1.000  H
  H31      1.0000 0.11250  0.40710  0.28020  Biso   1.000  H
  C43      1.0000 0.04380  0.34730  0.51700  Biso   1.000  C
  H32      1.0000 0.02830  0.30790  0.49760  Biso   1.000  H
  H33      1.0000 0.01860  0.37970  0.49240  Biso   1.000  H
  H34      1.0000 0.04250  0.34940  0.58110  Biso   1.000  H
  C44      1.0000 0.15160  0.16240  0.48950  Biso   1.000  C
  C45      1.0000 0.10410  0.16200  0.54920  Biso   1.000  C
  H35      1.0000 0.10110  0.19310  0.59210  Biso   1.000  H
  C46      1.0000 0.06090  0.11620  0.54610  Biso   1.000  C
  H36      1.0000 0.02840  0.11600  0.58690  Biso   1.000  H
  N4       1.0000 0.06530  0.07080  0.48340  Biso   1.000  N
  C47      1.0000 0.11280  0.07120  0.42370  Biso   1.000  C
  H37      1.0000 0.11580  0.04020  0.38080  Biso   1.000  H
  C48      1.0000 0.15600  0.11700  0.42670  Biso   1.000  C
  H38      1.0000 0.18850  0.11730  0.38590  Biso   1.000  H
  C49      1.0000 0.35520  0.12970  0.88600  Biso   1.000  C
  C50      1.0000 0.34820  0.04340  0.96850  Biso   1.000  C
  C51      1.0000 0.40550  0.01330  0.00630  Biso   1.000  C
  C52      1.0000 0.15670  0.45190  0.97900  Biso   1.000  C
  C53      1.0000 0.10680  0.45330  0.09800  Biso   1.000  C
  F3       1.0000 0.92620  0.01200  0.24020  Biso   1.000  F
  F4       1.0000 0.92720  0.99130  0.74010  Biso   1.000  F
  N5       1.0000 0.56810  0.56580  0.01890  Biso   1.000  N
  C54      1.0000 0.57590  0.60910  0.08400  Biso   1.000  C
  H39      1.0000 0.55050  0.60740  0.13420  Biso   1.000  H
  C55      1.0000 0.61790  0.65330  0.07920  Biso   1.000  C
  H40      1.0000 0.61630  0.68550  0.12060  Biso   1.000  H
  C56      1.0000 0.66380  0.65400  0.01570  Biso   1.000  C
  C57      1.0000 0.65990  0.60580  0.95520  Biso   1.000  C
  H41      1.0000 0.69000  0.60220  0.91100  Biso   1.000  H
  C58      1.0000 0.61320  0.56350  0.95850  Biso   1.000  C
  H42      1.0000 0.61280  0.53160  0.91670  Biso   1.000  H
  C59      1.0000 0.70830  0.69890  0.01070  Biso   1.000  C
  C60      1.0000 0.69160  0.76240  0.01880  Biso   1.000  C
  H43      1.0000 0.65020  0.77290  0.02730  Biso   1.000  H
  C61      1.0000 0.73420  0.80720  0.01430  Biso   1.000  C
  C62      1.0000 0.79450  0.79290  0.00370  Biso   1.000  C
  C63      1.0000 0.81280  0.73390  0.00460  Biso   1.000  C
  H44      1.0000 0.85500  0.72550  0.00320  Biso   1.000  H
  C64      1.0000 0.77260  0.68550  0.00730  Biso   1.000  C
  O5       1.0000 0.71390  0.86630  0.01680  Biso   1.000  O
  C65      1.0000 0.65060  0.88730  0.98710  Biso   1.000  C
  C66      1.0000 0.62460  0.85380  0.90640  Biso   1.000  C
  C67      1.0000 0.65010  0.95070  0.02740  Biso   1.000  C
  C68      1.0000 0.68170  0.99700  0.96700  Biso   1.000  C
  O6       1.0000 0.78610  0.62880  0.99950  Biso   1.000  O
  C69      1.0000 0.85400  0.61470  0.00780  Biso   1.000  C
  C70      1.0000 0.87000  0.55240  0.96800  Biso   1.000  C
  C71      1.0000 0.87260  0.61360  0.10610  Biso   1.000  C
  C72      1.0000 0.82550  0.57630  0.15850  Biso   1.000  C
  C73      1.0000 0.84370  0.84280  0.00120  Biso   1.000  C
  C74      1.0000 0.88680  0.84170  0.93530  Biso   1.000  C
  H45      1.0000 0.88670  0.81100  0.89170  Biso   1.000  H
  C75      1.0000 0.93130  0.88840  0.93540  Biso   1.000  C
  H46      1.0000 0.96370  0.88670  0.89440  Biso   1.000  H
  N6       1.0000 0.92860  0.93160  0.98830  Biso   1.000  N
  C76      1.0000 0.88670  0.93430  0.05510  Biso   1.000  C
  H47      1.0000 0.88870  0.96610  0.09690  Biso   1.000  H
  C77      1.0000 0.83960  0.88900  0.06170  Biso   1.000  C
  H48      1.0000 0.80830  0.89090  0.10430  Biso   1.000  H
  N7       1.0000 0.56700  0.57070  0.51480  Biso   1.000  N
  C78      1.0000 0.61100  0.57150  0.57940  Biso   1.000  C
  H49      1.0000 0.61050  0.54240  0.62530  Biso   1.000  H
  C79      1.0000 0.65700  0.61640  0.57600  Biso   1.000  C
  H50      1.0000 0.68860  0.61700  0.61820  Biso   1.000  H
  C80      1.0000 0.65510  0.66010  0.50890  Biso   1.000  C
  C81      1.0000 0.60900  0.65620  0.45090  Biso   1.000  C
  H51      1.0000 0.60670  0.68520  0.40500  Biso   1.000  H
  C82      1.0000 0.56680  0.61350  0.45550  Biso   1.000  C
  H52      1.0000 0.53490  0.61390  0.41380  Biso   1.000  H
  C83      1.0000 0.70430  0.70570  0.50660  Biso   1.000  C
  C84      1.0000 0.69118  0.76690  0.49580  Biso   1.000  C
  C85      1.0000 0.73790  0.80890  0.48980  Biso   1.000  C
  H53      1.0000 0.72900  0.85070  0.48240  Biso   1.000  H
  C86      1.0000 0.79790  0.78970  0.49460  Biso   1.000  C
  C87      1.0000 0.81101  0.72860  0.50550  Biso   1.000  C
  C88      1.0000 0.76420  0.68660  0.51150  Biso   1.000  C
  H54      1.0000 0.77320  0.64480  0.51890  Biso   1.000  H
  O7       1.0000 0.63370  0.78360  0.48800  Biso   1.000  O
  C89      1.0000 0.61390  0.84760  0.51860  Biso   1.000  C
  H55      1.0000 0.63790  0.87400  0.47810  Biso   1.000  H
  C90      1.0000 0.62270  0.88070  0.60620  Biso   1.000  C
  H56      1.0000 0.58430  0.89900  0.62440  Biso   1.000  H
  H57      1.0000 0.65330  0.91260  0.59920  Biso   1.000  H
  H58      1.0000 0.63630  0.85180  0.65080  Biso   1.000  H
  C91      1.0000 0.54920  0.85790  0.48430  Biso   1.000  C
  H59      1.0000 0.53290  0.89800  0.50140  Biso   1.000  H
  H60      1.0000 0.54630  0.85270  0.42000  Biso   1.000  H
  C92      1.0000 0.51900  0.80560  0.53460  Biso   1.000  C
  H61      1.0000 0.54460  0.76950  0.53110  Biso   1.000  H
  H62      1.0000 0.47930  0.79690  0.50860  Biso   1.000  H
  H63      1.0000 0.51370  0.81730  0.59600  Biso   1.000  H
  O8       1.0000 0.87160  0.70970  0.50240  Biso   1.000  O
  C93      1.0000 0.89060  0.64490  0.48570  Biso   1.000  C
  H64      1.0000 0.86650  0.61340  0.51750  Biso   1.000  H
  C94      1.0000 0.87790  0.64970  0.38780  Biso   1.000  C
  H65      1.0000 0.87200  0.69390  0.38120  Biso   1.000  H
  H66      1.0000 0.83650  0.63250  0.38460  Biso   1.000  H
  C95      1.0000 0.90280  0.63290  0.29720  Biso   1.000  C
  H67      1.0000 0.94710  0.63190  0.29930  Biso   1.000  H
  H68      1.0000 0.88960  0.66310  0.25420  Biso   1.000  H
  H69      1.0000 0.88750  0.59290  0.28020  Biso   1.000  H
  C96      1.0000 0.95620  0.65270  0.51700  Biso   1.000  C
  H70      1.0000 0.97170  0.69210  0.49760  Biso   1.000  H
  H71      1.0000 0.98140  0.62030  0.49240  Biso   1.000  H
  H72      1.0000 0.95750  0.65060  0.58110  Biso   1.000  H
  C97      1.0000 0.84840  0.83760  0.48950  Biso   1.000  C
  C98      1.0000 0.89590  0.83800  0.54920  Biso   1.000  C
  H73      1.0000 0.89890  0.80690  0.59210  Biso   1.000  H
  C99      1.0000 0.93910  0.88380  0.54610  Biso   1.000  C
  H74      1.0000 0.97160  0.88400  0.58690  Biso   1.000  H
  N8       1.0000 0.93470  0.92920  0.48340  Biso   1.000  N
  C100     1.0000 0.88720  0.92880  0.42370  Biso   1.000  C
  H75      1.0000 0.88420  0.95980  0.38080  Biso   1.000  H
  C101     1.0000 0.84400  0.88300  0.42670  Biso   1.000  C
  H76      1.0000 0.81150  0.88270  0.38590  Biso   1.000  H
  C102     1.0000 0.64480  0.87030  0.88600  Biso   1.000  C
  C103     1.0000 0.65180  0.95660  0.96850  Biso   1.000  C
  C104     1.0000 0.59450  0.98670  0.00630  Biso   1.000  C
  C105     1.0000 0.84330  0.54810  0.97900  Biso   1.000  C
  C106     1.0000 0.89320  0.54670  0.09800  Biso   1.000  C
  F5       1.0000 0.01200  0.07380  0.24020  Biso   1.000  F
  F6       1.0000 0.99130  0.07280  0.74010  Biso   1.000  F
  N9       1.0000 0.56580  0.43190  0.01890  Biso   1.000  N
  C107     1.0000 0.60910  0.42410  0.08400  Biso   1.000  C
  H77      1.0000 0.60740  0.44950  0.13420  Biso   1.000  H
  C108     1.0000 0.65330  0.38210  0.07920  Biso   1.000  C
  H78      1.0000 0.68550  0.38370  0.12060  Biso   1.000  H
  C109     1.0000 0.65400  0.33620  0.01570  Biso   1.000  C
  C110     1.0000 0.60580  0.34010  0.95520  Biso   1.000  C
  H79      1.0000 0.60220  0.31000  0.91100  Biso   1.000  H
  C111     1.0000 0.56350  0.38680  0.95850  Biso   1.000  C
  H80      1.0000 0.53160  0.38720  0.91670  Biso   1.000  H
  C112     1.0000 0.69890  0.29170  0.01070  Biso   1.000  C
  C113     1.0000 0.76240  0.30840  0.01880  Biso   1.000  C
  H81      1.0000 0.77290  0.34980  0.02730  Biso   1.000  H
  C114     1.0000 0.80720  0.26580  0.01430  Biso   1.000  C
  C115     1.0000 0.79290  0.20550  0.00370  Biso   1.000  C
  C116     1.0000 0.73390  0.18720  0.00460  Biso   1.000  C
  H82      1.0000 0.72550  0.14500  0.00320  Biso   1.000  H
  C117     1.0000 0.68550  0.22740  0.00730  Biso   1.000  C
  O9       1.0000 0.86630  0.28610  0.01680  Biso   1.000  O
  C118     1.0000 0.88730  0.34940  0.98710  Biso   1.000  C
  C119     1.0000 0.85380  0.37540  0.90640  Biso   1.000  C
  C120     1.0000 0.95070  0.34990  0.02740  Biso   1.000  C
  C121     1.0000 0.99700  0.31830  0.96700  Biso   1.000  C
  O10      1.0000 0.62880  0.21390  0.99950  Biso   1.000  O
  C122     1.0000 0.61470  0.14600  0.00780  Biso   1.000  C
  C123     1.0000 0.55240  0.13000  0.96800  Biso   1.000  C
  C124     1.0000 0.61360  0.12740  0.10610  Biso   1.000  C
  C125     1.0000 0.57630  0.17450  0.15850  Biso   1.000  C
  C126     1.0000 0.84280  0.15630  0.00120  Biso   1.000  C
  C127     1.0000 0.84170  0.11320  0.93530  Biso   1.000  C
  H83      1.0000 0.81100  0.11330  0.89170  Biso   1.000  H
  C128     1.0000 0.88840  0.06870  0.93540  Biso   1.000  C
  H84      1.0000 0.88670  0.03630  0.89440  Biso   1.000  H
  N10      1.0000 0.93160  0.07140  0.98830  Biso   1.000  N
  C129     1.0000 0.93430  0.11330  0.05510  Biso   1.000  C
  H85      1.0000 0.96610  0.11130  0.09690  Biso   1.000  H
  C130     1.0000 0.88900  0.16040  0.06170  Biso   1.000  C
  H86      1.0000 0.89090  0.19170  0.10430  Biso   1.000  H
  N11      1.0000 0.57070  0.43300  0.51480  Biso   1.000  N
  C131     1.0000 0.57150  0.38900  0.57940  Biso   1.000  C
  H87      1.0000 0.54240  0.38950  0.62530  Biso   1.000  H
  C132     1.0000 0.61640  0.34300  0.57600  Biso   1.000  C
  H88      1.0000 0.61700  0.31140  0.61820  Biso   1.000  H
  C133     1.0000 0.66010  0.34490  0.50890  Biso   1.000  C
  C134     1.0000 0.65620  0.39100  0.45090  Biso   1.000  C
  H89      1.0000 0.68520  0.39330  0.40500  Biso   1.000  H
  C135     1.0000 0.61350  0.43320  0.45550  Biso   1.000  C
  H90      1.0000 0.61390  0.46510  0.41380  Biso   1.000  H
  C136     1.0000 0.70570  0.29570  0.50660  Biso   1.000  C
  C137     1.0000 0.76690  0.30882  0.49580  Biso   1.000  C
  C138     1.0000 0.80890  0.26210  0.48980  Biso   1.000  C
  H91      1.0000 0.85070  0.27100  0.48240  Biso   1.000  H
  C139     1.0000 0.78970  0.20210  0.49460  Biso   1.000  C
  C140     1.0000 0.72860  0.18899  0.50550  Biso   1.000  C
  C141     1.0000 0.68660  0.23580  0.51150  Biso   1.000  C
  H92      1.0000 0.64480  0.22680  0.51890  Biso   1.000  H
  O11      1.0000 0.78360  0.36630  0.48800  Biso   1.000  O
  C142     1.0000 0.84760  0.38610  0.51860  Biso   1.000  C
  H93      1.0000 0.87400  0.36210  0.47810  Biso   1.000  H
  C143     1.0000 0.88070  0.37730  0.60620  Biso   1.000  C
  H94      1.0000 0.89900  0.41570  0.62440  Biso   1.000  H
  H95      1.0000 0.91260  0.34670  0.59920  Biso   1.000  H
  H96      1.0000 0.85180  0.36370  0.65080  Biso   1.000  H
  C144     1.0000 0.85790  0.45080  0.48430  Biso   1.000  C
  H97      1.0000 0.89800  0.46710  0.50140  Biso   1.000  H
  H98      1.0000 0.85270  0.45370  0.42000  Biso   1.000  H
  C145     1.0000 0.80560  0.48100  0.53460  Biso   1.000  C
  H99      1.0000 0.76950  0.45540  0.53110  Biso   1.000  H
  H100     1.0000 0.79690  0.52070  0.50860  Biso   1.000  H
  H101     1.0000 0.81730  0.48630  0.59600  Biso   1.000  H
  O12      1.0000 0.70970  0.12840  0.50240  Biso   1.000  O
  C146     1.0000 0.64490  0.10940  0.48570  Biso   1.000  C
  H102     1.0000 0.61340  0.13350  0.51750  Biso   1.000  H
  C147     1.0000 0.64970  0.12210  0.38780  Biso   1.000  C
  H103     1.0000 0.69390  0.12800  0.38120  Biso   1.000  H
  H104     1.0000 0.63250  0.16350  0.38460  Biso   1.000  H
  C148     1.0000 0.63290  0.09720  0.29720  Biso   1.000  C
  H105     1.0000 0.63190  0.05290  0.29930  Biso   1.000  H
  H106     1.0000 0.66310  0.11040  0.25420  Biso   1.000  H
  H107     1.0000 0.59290  0.11250  0.28020  Biso   1.000  H
  C149     1.0000 0.65270  0.04380  0.51700  Biso   1.000  C
  H108     1.0000 0.69210  0.02830  0.49760  Biso   1.000  H
  H109     1.0000 0.62030  0.01860  0.49240  Biso   1.000  H
  H110     1.0000 0.65060  0.04250  0.58110  Biso   1.000  H
  C150     1.0000 0.83760  0.15160  0.48950  Biso   1.000  C
  C151     1.0000 0.83800  0.10410  0.54920  Biso   1.000  C
  H111     1.0000 0.80690  0.10110  0.59210  Biso   1.000  H
  C152     1.0000 0.88380  0.06090  0.54610  Biso   1.000  C
  H112     1.0000 0.88400  0.02840  0.58690  Biso   1.000  H
  N12      1.0000 0.92920  0.06530  0.48340  Biso   1.000  N
  C153     1.0000 0.92880  0.11280  0.42370  Biso   1.000  C
  H113     1.0000 0.95980  0.11580  0.38080  Biso   1.000  H
  C154     1.0000 0.88300  0.15600  0.42670  Biso   1.000  C
  H114     1.0000 0.88270  0.18850  0.38590  Biso   1.000  H
  C155     1.0000 0.87030  0.35520  0.88600  Biso   1.000  C
  C156     1.0000 0.95660  0.34820  0.96850  Biso   1.000  C
  C157     1.0000 0.98670  0.40550  0.00630  Biso   1.000  C
  C158     1.0000 0.54810  0.15670  0.97900  Biso   1.000  C
  C159     1.0000 0.54670  0.10680  0.09800  Biso   1.000  C
  F7       1.0000 0.98800  0.92620  0.24020  Biso   1.000  F
  F8       1.0000 0.00870  0.92720  0.74010  Biso   1.000  F
  N13      1.0000 0.43420  0.56810  0.01890  Biso   1.000  N
  C160     1.0000 0.39090  0.57590  0.08400  Biso   1.000  C
  H115     1.0000 0.39260  0.55050  0.13420  Biso   1.000  H
  C161     1.0000 0.34670  0.61790  0.07920  Biso   1.000  C
  H116     1.0000 0.31450  0.61630  0.12060  Biso   1.000  H
  C162     1.0000 0.34600  0.66380  0.01570  Biso   1.000  C
  C163     1.0000 0.39420  0.65990  0.95520  Biso   1.000  C
  H117     1.0000 0.39780  0.69000  0.91100  Biso   1.000  H
  C164     1.0000 0.43650  0.61320  0.95850  Biso   1.000  C
  H118     1.0000 0.46840  0.61280  0.91670  Biso   1.000  H
  C165     1.0000 0.30110  0.70830  0.01070  Biso   1.000  C
  C166     1.0000 0.23760  0.69160  0.01880  Biso   1.000  C
  H119     1.0000 0.22710  0.65020  0.02730  Biso   1.000  H
  C167     1.0000 0.19280  0.73420  0.01430  Biso   1.000  C
  C168     1.0000 0.20710  0.79450  0.00370  Biso   1.000  C
  C169     1.0000 0.26610  0.81280  0.00460  Biso   1.000  C
  H120     1.0000 0.27450  0.85500  0.00320  Biso   1.000  H
  C170     1.0000 0.31450  0.77260  0.00730  Biso   1.000  C
  O13      1.0000 0.13370  0.71390  0.01680  Biso   1.000  O
  C171     1.0000 0.11270  0.65060  0.98710  Biso   1.000  C
  C172     1.0000 0.14620  0.62460  0.90640  Biso   1.000  C
  C173     1.0000 0.04930  0.65010  0.02740  Biso   1.000  C
  C174     1.0000 0.00300  0.68170  0.96700  Biso   1.000  C
  O14      1.0000 0.37120  0.78610  0.99950  Biso   1.000  O
  C175     1.0000 0.38530  0.85400  0.00780  Biso   1.000  C
  C176     1.0000 0.44760  0.87000  0.96800  Biso   1.000  C
  C177     1.0000 0.38640  0.87260  0.10610  Biso   1.000  C
  C178     1.0000 0.42370  0.82550  0.15850  Biso   1.000  C
  C179     1.0000 0.15720  0.84370  0.00120  Biso   1.000  C
  C180     1.0000 0.15830  0.88680  0.93530  Biso   1.000  C
  H121     1.0000 0.18900  0.88670  0.89170  Biso   1.000  H
  C181     1.0000 0.11160  0.93130  0.93540  Biso   1.000  C
  H122     1.0000 0.11330  0.96370  0.89440  Biso   1.000  H
  N14      1.0000 0.06840  0.92860  0.98830  Biso   1.000  N
  C182     1.0000 0.06570  0.88670  0.05510  Biso   1.000  C
  H123     1.0000 0.03390  0.88870  0.09690  Biso   1.000  H
  C183     1.0000 0.11100  0.83960  0.06170  Biso   1.000  C
  H124     1.0000 0.10910  0.80830  0.10430  Biso   1.000  H
  N15      1.0000 0.42930  0.56700  0.51480  Biso   1.000  N
  C184     1.0000 0.42850  0.61100  0.57940  Biso   1.000  C
  H125     1.0000 0.45760  0.61050  0.62530  Biso   1.000  H
  C185     1.0000 0.38360  0.65700  0.57600  Biso   1.000  C
  H126     1.0000 0.38300  0.68860  0.61820  Biso   1.000  H
  C186     1.0000 0.33990  0.65510  0.50890  Biso   1.000  C
  C187     1.0000 0.34380  0.60900  0.45090  Biso   1.000  C
  H127     1.0000 0.31480  0.60670  0.40500  Biso   1.000  H
  C188     1.0000 0.38650  0.56680  0.45550  Biso   1.000  C
  H128     1.0000 0.38610  0.53490  0.41380  Biso   1.000  H
  C189     1.0000 0.29430  0.70430  0.50660  Biso   1.000  C
  C190     1.0000 0.23310  0.69118  0.49580  Biso   1.000  C
  C191     1.0000 0.19110  0.73790  0.48980  Biso   1.000  C
  H129     1.0000 0.14930  0.72900  0.48240  Biso   1.000  H
  C192     1.0000 0.21030  0.79790  0.49460  Biso   1.000  C
  C193     1.0000 0.27140  0.81101  0.50550  Biso   1.000  C
  C194     1.0000 0.31340  0.76420  0.51150  Biso   1.000  C
  H130     1.0000 0.35520  0.77320  0.51890  Biso   1.000  H
  O15      1.0000 0.21640  0.63370  0.48800  Biso   1.000  O
  C195     1.0000 0.15240  0.61390  0.51860  Biso   1.000  C
  H131     1.0000 0.12600  0.63790  0.47810  Biso   1.000  H
  C196     1.0000 0.11930  0.62270  0.60620  Biso   1.000  C
  H132     1.0000 0.10100  0.58430  0.62440  Biso   1.000  H
  H133     1.0000 0.08740  0.65330  0.59920  Biso   1.000  H
  H134     1.0000 0.14820  0.63630  0.65080  Biso   1.000  H
  C197     1.0000 0.14210  0.54920  0.48430  Biso   1.000  C
  H135     1.0000 0.10200  0.53290  0.50140  Biso   1.000  H
  H136     1.0000 0.14730  0.54630  0.42000  Biso   1.000  H
  C198     1.0000 0.19440  0.51900  0.53460  Biso   1.000  C
  H137     1.0000 0.23050  0.54460  0.53110  Biso   1.000  H
  H138     1.0000 0.20310  0.47930  0.50860  Biso   1.000  H
  H139     1.0000 0.18270  0.51370  0.59600  Biso   1.000  H
  O16      1.0000 0.29030  0.87160  0.50240  Biso   1.000  O
  C199     1.0000 0.35510  0.89060  0.48570  Biso   1.000  C
  H140     1.0000 0.38660  0.86650  0.51750  Biso   1.000  H
  C200     1.0000 0.35030  0.87790  0.38780  Biso   1.000  C
  H141     1.0000 0.30610  0.87200  0.38120  Biso   1.000  H
  H142     1.0000 0.36750  0.83650  0.38460  Biso   1.000  H
  C201     1.0000 0.36710  0.90280  0.29720  Biso   1.000  C
  H143     1.0000 0.36810  0.94710  0.29930  Biso   1.000  H
  H144     1.0000 0.33690  0.88960  0.25420  Biso   1.000  H
  H145     1.0000 0.40710  0.88750  0.28020  Biso   1.000  H
  C202     1.0000 0.34730  0.95620  0.51700  Biso   1.000  C
  H146     1.0000 0.30790  0.97170  0.49760  Biso   1.000  H
  H147     1.0000 0.37970  0.98140  0.49240  Biso   1.000  H
  H148     1.0000 0.34940  0.95750  0.58110  Biso   1.000  H
  C203     1.0000 0.16240  0.84840  0.48950  Biso   1.000  C
  C204     1.0000 0.16200  0.89590  0.54920  Biso   1.000  C
  H149     1.0000 0.19310  0.89890  0.59210  Biso   1.000  H
  C205     1.0000 0.11620  0.93910  0.54610  Biso   1.000  C
  H150     1.0000 0.11600  0.97160  0.58690  Biso   1.000  H
  N16      1.0000 0.07080  0.93470  0.48340  Biso   1.000  N
  C206     1.0000 0.07120  0.88720  0.42370  Biso   1.000  C
  H151     1.0000 0.04020  0.88420  0.38080  Biso   1.000  H
  C207     1.0000 0.11700  0.84400  0.42670  Biso   1.000  C
  H152     1.0000 0.11730  0.81150  0.38590  Biso   1.000  H
  C208     1.0000 0.12970  0.64480  0.88600  Biso   1.000  C
  C209     1.0000 0.04340  0.65180  0.96850  Biso   1.000  C
  C210     1.0000 0.01330  0.59450  0.00630  Biso   1.000  C
  C211     1.0000 0.45190  0.84330  0.97900  Biso   1.000  C
  C212     1.0000 0.45330  0.89320  0.09800  Biso   1.000  C
  Zn1      1.0000 0.50000  0.50000  0.02092  Biso   1.000  Zn
  Zn2      1.0000 0.50000  0.50000  0.51983  Biso   1.000  Zn
  Zn3      1.0000 0.00000  0.00000  0.99105  Biso   1.000  Zn
  Zn4      1.0000 0.00000  0.00000  0.48979  Biso   1.000  Zn
  Si1      1.0000 0.00000  0.00000  0.24050  Biso   1.000  Si
  F9       1.0000 0.00000  0.00000  0.35520  Biso   1.000  F
  F10      1.0000 0.00000  0.00000  0.12570  Biso   1.000  F
  Si2      1.0000 0.00000  0.00000  0.74210  Biso   1.000  Si
  F11      1.0000 0.00000  0.00000  0.62770  Biso   1.000  F
  F12      1.0000 0.00000  0.00000  0.85580  Biso   1.000  F
