data_image0
_cell_length_a       20.238
_cell_length_b       5.2827
_cell_length_c       28.859
_cell_angle_alpha    90
_cell_angle_beta     112.663
_cell_angle_gamma    90

_symmetry_space_group_name_H-M    "P 1"
_symmetry_int_tables_number       1

loop_
  _symmetry_equiv_pos_as_xyz
  'x, y, z'

loop_
  _atom_site_label
  _atom_site_occupancy
  _atom_site_fract_x
  _atom_site_fract_y
  _atom_site_fract_z
  _atom_site_thermal_displace_type
  _atom_site_B_iso_or_equiv
  _atom_site_type_symbol
  Zn1      1.0000 0.96748  0.03554  0.76886  Biso   1.000  Zn
  Zn2      1.0000 0.53716  0.35290  0.73426  Biso   1.000  Zn
  Zn3      1.0000 0.65166  0.53749  0.89351  Biso   1.000  Zn
  Zn4      1.0000 0.84061  0.41960  0.77453  Biso   1.000  Zn
  Zn5      1.0000 0.84130  0.83521  0.61102  Biso   1.000  Zn
  Zn6      1.0000 0.66445  0.96565  0.73498  Biso   1.000  Zn
  P1       1.0000 0.80865  0.92840  0.70940  Biso   1.000  P
  P2       1.0000 0.49636  0.36460  0.82865  Biso   1.000  P
  P3       1.0000 0.69622  0.45930  0.80028  Biso   1.000  P
  P4       1.0000 0.00351  0.52470  0.83105  Biso   1.000  P
  P5       1.0000 0.74069  0.78460  0.49780  Biso   1.000  P
  O1       1.0000 0.00870  0.37950  0.78488  Biso   1.000  O
  O2       1.0000 0.93070  0.47070  0.83188  Biso   1.000  O
  O3       1.0000 0.82770  0.65320  0.72110  Biso   1.000  O
  O4       1.0000 0.01440  0.80740  0.82350  Biso   1.000  O
  O5       1.0000 0.86610  0.09180  0.75084  Biso   1.000  O
  O6       1.0000 0.76940  0.38910  0.80147  Biso   1.000  O
  O7       1.0000 0.64020  0.29550  0.75815  Biso   1.000  O
  O8       1.0000 0.69310  0.38620  0.85043  Biso   1.000  O
  O9       1.0000 0.50620  0.51080  0.78436  Biso   1.000  O
  O10      1.0000 0.55240  0.44680  0.87818  Biso   1.000  O
  O11      1.0000 0.50690  0.08180  0.82096  Biso   1.000  O
  O12      1.0000 0.42190  0.42030  0.82617  Biso   1.000  O
  O13      1.0000 0.73700  0.00230  0.70950  Biso   1.000  O
  O14      1.0000 0.80980  0.99420  0.65862  Biso   1.000  O
  O15      1.0000 0.06270  0.43450  0.87910  Biso   1.000  O
  O16      1.0000 0.67650  0.73650  0.78860  Biso   1.000  O
  O17      1.0000 0.76750  0.89100  0.54710  Biso   1.000  O
  O18      1.0000 0.70250  0.04620  0.46300  Biso   1.000  O
  O19      1.0000 0.79620  0.65700  0.48380  Biso   1.000  O
  O20      1.0000 0.68120  0.56290  0.49660  Biso   1.000  O
  H1       1.0000 0.69190  0.42840  0.48720  Biso   1.000  H
  P6       1.0000 0.77060  0.99440  0.50012  Biso   1.000  P
  O21      1.0000 0.79640  0.81000  0.47050  Biso   1.000  O
  O22      1.0000 0.82750  0.22120  0.52150  Biso   1.000  O
  H2       1.0000 0.81260  0.35930  0.50280  Biso   1.000  H
  Zn7      1.0000 0.03252  0.53554  0.73114  Biso   1.000  Zn
  Zn8      1.0000 0.46284  0.85290  0.76574  Biso   1.000  Zn
  Zn9      1.0000 0.34834  0.03749  0.60649  Biso   1.000  Zn
  Zn10     1.0000 0.15939  0.91960  0.72547  Biso   1.000  Zn
  Zn11     1.0000 0.15870  0.33521  0.88898  Biso   1.000  Zn
  Zn12     1.0000 0.33555  0.46565  0.76502  Biso   1.000  Zn
  P7       1.0000 0.19135  0.42840  0.79060  Biso   1.000  P
  P8       1.0000 0.50364  0.86460  0.67135  Biso   1.000  P
  P9       1.0000 0.30378  0.95930  0.69972  Biso   1.000  P
  P10      1.0000 0.99649  0.02470  0.66895  Biso   1.000  P
  P11      1.0000 0.25931  0.28460  0.00220  Biso   1.000  P
  O23      1.0000 0.99130  0.87950  0.71512  Biso   1.000  O
  O24      1.0000 0.06930  0.97070  0.66812  Biso   1.000  O
  O25      1.0000 0.17230  0.15320  0.77890  Biso   1.000  O
  O26      1.0000 0.98560  0.30740  0.67650  Biso   1.000  O
  O27      1.0000 0.13390  0.59180  0.74916  Biso   1.000  O
  O28      1.0000 0.23060  0.88910  0.69853  Biso   1.000  O
  O29      1.0000 0.35980  0.79550  0.74185  Biso   1.000  O
  O30      1.0000 0.30690  0.88620  0.64957  Biso   1.000  O
  O31      1.0000 0.49380  0.01080  0.71564  Biso   1.000  O
  O32      1.0000 0.44760  0.94680  0.62182  Biso   1.000  O
  O33      1.0000 0.49310  0.58180  0.67904  Biso   1.000  O
  O34      1.0000 0.57810  0.92030  0.67383  Biso   1.000  O
  O35      1.0000 0.26300  0.50230  0.79050  Biso   1.000  O
  O36      1.0000 0.19020  0.49420  0.84138  Biso   1.000  O
  O37      1.0000 0.93730  0.93450  0.62090  Biso   1.000  O
  O38      1.0000 0.32350  0.23650  0.71140  Biso   1.000  O
  O39      1.0000 0.23250  0.39100  0.95290  Biso   1.000  O
  O40      1.0000 0.29750  0.54620  0.03700  Biso   1.000  O
  O41      1.0000 0.20380  0.15700  0.01620  Biso   1.000  O
  O42      1.0000 0.31880  0.06290  0.00340  Biso   1.000  O
  H3       1.0000 0.30810  0.92840  0.01280  Biso   1.000  H
  P12      1.0000 0.22940  0.49440  0.99988  Biso   1.000  P
  O43      1.0000 0.20360  0.31000  0.02950  Biso   1.000  O
  O44      1.0000 0.17250  0.72120  0.97850  Biso   1.000  O
  H4       1.0000 0.18740  0.85930  0.99720  Biso   1.000  H
  Zn13     1.0000 0.03252  0.96446  0.23114  Biso   1.000  Zn
  Zn14     1.0000 0.46284  0.64710  0.26574  Biso   1.000  Zn
  Zn15     1.0000 0.34834  0.46251  0.10649  Biso   1.000  Zn
  Zn16     1.0000 0.15939  0.58040  0.22547  Biso   1.000  Zn
  Zn17     1.0000 0.15870  0.16479  0.38898  Biso   1.000  Zn
  Zn18     1.0000 0.33555  0.03435  0.26502  Biso   1.000  Zn
  P13      1.0000 0.19135  0.07160  0.29060  Biso   1.000  P
  P14      1.0000 0.50364  0.63540  0.17135  Biso   1.000  P
  P15      1.0000 0.30378  0.54070  0.19972  Biso   1.000  P
  P16      1.0000 0.99649  0.47530  0.16895  Biso   1.000  P
  P17      1.0000 0.25931  0.21540  0.50220  Biso   1.000  P
  O45      1.0000 0.99130  0.62050  0.21512  Biso   1.000  O
  O46      1.0000 0.06930  0.52930  0.16812  Biso   1.000  O
  O47      1.0000 0.17230  0.34680  0.27890  Biso   1.000  O
  O48      1.0000 0.98560  0.19260  0.17650  Biso   1.000  O
  O49      1.0000 0.13390  0.90820  0.24916  Biso   1.000  O
  O50      1.0000 0.23060  0.61090  0.19853  Biso   1.000  O
  O51      1.0000 0.35980  0.70450  0.24185  Biso   1.000  O
  O52      1.0000 0.30690  0.61380  0.14957  Biso   1.000  O
  O53      1.0000 0.49380  0.48920  0.21564  Biso   1.000  O
  O54      1.0000 0.44760  0.55320  0.12182  Biso   1.000  O
  O55      1.0000 0.49310  0.91820  0.17904  Biso   1.000  O
  O56      1.0000 0.57810  0.57970  0.17383  Biso   1.000  O
  O57      1.0000 0.26300  0.99770  0.29050  Biso   1.000  O
  O58      1.0000 0.19020  0.00580  0.34138  Biso   1.000  O
  O59      1.0000 0.93730  0.56550  0.12090  Biso   1.000  O
  O60      1.0000 0.32350  0.26350  0.21140  Biso   1.000  O
  O61      1.0000 0.23250  0.10900  0.45290  Biso   1.000  O
  O62      1.0000 0.29750  0.95380  0.53700  Biso   1.000  O
  O63      1.0000 0.20380  0.34300  0.51620  Biso   1.000  O
  O64      1.0000 0.31880  0.43710  0.50340  Biso   1.000  O
  H5       1.0000 0.30810  0.57160  0.51280  Biso   1.000  H
  P18      1.0000 0.22940  0.00560  0.49988  Biso   1.000  P
  O65      1.0000 0.20360  0.19000  0.52950  Biso   1.000  O
  O66      1.0000 0.17250  0.77880  0.47850  Biso   1.000  O
  H6       1.0000 0.18740  0.64070  0.49720  Biso   1.000  H
  Zn19     1.0000 0.96748  0.46446  0.26886  Biso   1.000  Zn
  Zn20     1.0000 0.53716  0.14710  0.23426  Biso   1.000  Zn
  Zn21     1.0000 0.65166  0.96251  0.39351  Biso   1.000  Zn
  Zn22     1.0000 0.84061  0.08040  0.27453  Biso   1.000  Zn
  Zn23     1.0000 0.84130  0.66479  0.11102  Biso   1.000  Zn
  Zn24     1.0000 0.66445  0.53435  0.23498  Biso   1.000  Zn
  P19      1.0000 0.80865  0.57160  0.20940  Biso   1.000  P
  P20      1.0000 0.49636  0.13540  0.32865  Biso   1.000  P
  P21      1.0000 0.69622  0.04070  0.30028  Biso   1.000  P
  P22      1.0000 0.00351  0.97530  0.33105  Biso   1.000  P
  P23      1.0000 0.74069  0.71540  0.99780  Biso   1.000  P
  O67      1.0000 0.00870  0.12050  0.28488  Biso   1.000  O
  O68      1.0000 0.93070  0.02930  0.33188  Biso   1.000  O
  O69      1.0000 0.82770  0.84680  0.22110  Biso   1.000  O
  O70      1.0000 0.01440  0.69260  0.32350  Biso   1.000  O
  O71      1.0000 0.86610  0.40820  0.25084  Biso   1.000  O
  O72      1.0000 0.76940  0.11090  0.30147  Biso   1.000  O
  O73      1.0000 0.64020  0.20450  0.25815  Biso   1.000  O
  O74      1.0000 0.69310  0.11380  0.35043  Biso   1.000  O
  O75      1.0000 0.50620  0.98920  0.28436  Biso   1.000  O
  O76      1.0000 0.55240  0.05320  0.37818  Biso   1.000  O
  O77      1.0000 0.50690  0.41820  0.32096  Biso   1.000  O
  O78      1.0000 0.42190  0.07970  0.32617  Biso   1.000  O
  O79      1.0000 0.73700  0.49770  0.20950  Biso   1.000  O
  O80      1.0000 0.80980  0.50580  0.15862  Biso   1.000  O
  O81      1.0000 0.06270  0.06550  0.37910  Biso   1.000  O
  O82      1.0000 0.67650  0.76350  0.28860  Biso   1.000  O
  O83      1.0000 0.76750  0.60900  0.04710  Biso   1.000  O
  O84      1.0000 0.70250  0.45380  0.96300  Biso   1.000  O
  O85      1.0000 0.79620  0.84300  0.98380  Biso   1.000  O
  O86      1.0000 0.68120  0.93710  0.99660  Biso   1.000  O
  H7       1.0000 0.69190  0.07160  0.98720  Biso   1.000  H
  P24      1.0000 0.77060  0.50560  0.00012  Biso   1.000  P
  O87      1.0000 0.79640  0.69000  0.97050  Biso   1.000  O
  O88      1.0000 0.82750  0.27880  0.02150  Biso   1.000  O
  H8       1.0000 0.81260  0.14070  0.00280  Biso   1.000  H
