data_image0
_cell_length_a       25.687
_cell_length_b       25.687
_cell_length_c       13.224
_cell_angle_alpha    90
_cell_angle_beta     90
_cell_angle_gamma    120

_symmetry_space_group_name_H-M    "P 1"
_symmetry_int_tables_number       1

loop_
  _symmetry_equiv_pos_as_xyz
  'x, y, z'

loop_
  _atom_site_label
  _atom_site_occupancy
  _atom_site_fract_x
  _atom_site_fract_y
  _atom_site_fract_z
  _atom_site_thermal_displace_type
  _atom_site_B_iso_or_equiv
  _atom_site_type_symbol
  O1       1.0000 0.06100  0.11123  0.89300  Biso   1.000  O
  C1       1.0000 0.13000  0.18270  0.73760  Biso   1.000  C
  H1       1.0000 0.09880  0.18830  0.76180  Biso   1.000  H
  C2       1.0000 0.16650  0.21730  0.66260  Biso   1.000  C
  H2       1.0000 0.16130  0.24880  0.63830  Biso   1.000  H
  O2       1.0000 0.33010  0.23740  0.51300  Biso   1.000  O
  O3       1.0000 0.35160  0.30790  0.39610  Biso   1.000  O
  C3       1.0000 0.36600  0.27680  0.45290  Biso   1.000  C
  C4       1.0000 0.42950  0.28670  0.45240  Biso   1.000  C
  C5       1.0000 0.43860  0.24610  0.50700  Biso   1.000  C
  H3       1.0000 0.40740  0.21480  0.54410  Biso   1.000  H
  C6       1.0000 0.49820  0.25430  0.50400  Biso   1.000  C
  H4       1.0000 0.50560  0.22480  0.53130  Biso   1.000  H
  C7       1.0000 0.54530  0.30660  0.46090  Biso   1.000  C
  C8       1.0000 0.53270  0.34530  0.40450  Biso   1.000  C
  H5       1.0000 0.56410  0.37770  0.36970  Biso   1.000  H
  C9       1.0000 0.47500  0.33680  0.39920  Biso   1.000  C
  H6       1.0000 0.46650  0.36290  0.36210  Biso   1.000  H
  C10      1.0000 0.65320  0.37820  0.45970  Biso   1.000  C
  H7       1.0000 0.64360  0.40900  0.46230  Biso   1.000  H
  C11      1.0000 0.60750  0.31890  0.45780  Biso   1.000  C
  O4       1.0000 0.88877  0.94977  0.89300  Biso   1.000  O
  C12      1.0000 0.81730  0.94730  0.73760  Biso   1.000  C
  H8       1.0000 0.81170  0.91050  0.76180  Biso   1.000  H
  C13      1.0000 0.78270  0.94920  0.66260  Biso   1.000  C
  H9       1.0000 0.75120  0.91250  0.63830  Biso   1.000  H
  O5       1.0000 0.76260  0.09270  0.51300  Biso   1.000  O
  O6       1.0000 0.69210  0.04370  0.39610  Biso   1.000  O
  C14      1.0000 0.72320  0.08920  0.45290  Biso   1.000  C
  C15      1.0000 0.71330  0.14280  0.45240  Biso   1.000  C
  C16      1.0000 0.75390  0.19250  0.50700  Biso   1.000  C
  H10      1.0000 0.78520  0.19260  0.54410  Biso   1.000  H
  C17      1.0000 0.74570  0.24390  0.50400  Biso   1.000  C
  H11      1.0000 0.77520  0.28080  0.53130  Biso   1.000  H
  C18      1.0000 0.69340  0.23870  0.46090  Biso   1.000  C
  C19      1.0000 0.65470  0.18740  0.40450  Biso   1.000  C
  H12      1.0000 0.62230  0.18640  0.36970  Biso   1.000  H
  C20      1.0000 0.66320  0.13820  0.39920  Biso   1.000  C
  H13      1.0000 0.63710  0.10360  0.36210  Biso   1.000  H
  C21      1.0000 0.62180  0.27500  0.45970  Biso   1.000  C
  H14      1.0000 0.59100  0.23460  0.46230  Biso   1.000  H
  C22      1.0000 0.68110  0.28860  0.45780  Biso   1.000  C
  O7       1.0000 0.05023  0.93900  0.89300  Biso   1.000  O
  C23      1.0000 0.05270  0.87000  0.73760  Biso   1.000  C
  H15      1.0000 0.08950  0.90120  0.76180  Biso   1.000  H
  C24      1.0000 0.05080  0.83350  0.66260  Biso   1.000  C
  H16      1.0000 0.08750  0.83870  0.63830  Biso   1.000  H
  O8       1.0000 0.90730  0.66990  0.51300  Biso   1.000  O
  O9       1.0000 0.95630  0.64840  0.39610  Biso   1.000  O
  C25      1.0000 0.91080  0.63400  0.45290  Biso   1.000  C
  C26      1.0000 0.85720  0.57050  0.45240  Biso   1.000  C
  C27      1.0000 0.80750  0.56140  0.50700  Biso   1.000  C
  H17      1.0000 0.80740  0.59260  0.54410  Biso   1.000  H
  C28      1.0000 0.75610  0.50180  0.50400  Biso   1.000  C
  H18      1.0000 0.71920  0.49440  0.53130  Biso   1.000  H
  C29      1.0000 0.76130  0.45470  0.46090  Biso   1.000  C
  C30      1.0000 0.81260  0.46730  0.40450  Biso   1.000  C
  H19      1.0000 0.81360  0.43590  0.36970  Biso   1.000  H
  C31      1.0000 0.86180  0.52500  0.39920  Biso   1.000  C
  H20      1.0000 0.89640  0.53350  0.36210  Biso   1.000  H
  C32      1.0000 0.72500  0.34680  0.45970  Biso   1.000  C
  H21      1.0000 0.76540  0.35640  0.46230  Biso   1.000  H
  C33      1.0000 0.71140  0.39250  0.45780  Biso   1.000  C
  O10      1.0000 0.06100  0.11123  0.10700  Biso   1.000  O
  C34      1.0000 0.13000  0.18270  0.26240  Biso   1.000  C
  H22      1.0000 0.09880  0.18830  0.23820  Biso   1.000  H
  C35      1.0000 0.16650  0.21730  0.33740  Biso   1.000  C
  H23      1.0000 0.16130  0.24880  0.36170  Biso   1.000  H
  O11      1.0000 0.33010  0.23740  0.48700  Biso   1.000  O
  O12      1.0000 0.35160  0.30790  0.60390  Biso   1.000  O
  C36      1.0000 0.36600  0.27680  0.54710  Biso   1.000  C
  C37      1.0000 0.42950  0.28670  0.54760  Biso   1.000  C
  C38      1.0000 0.43860  0.24610  0.49300  Biso   1.000  C
  H24      1.0000 0.40740  0.21480  0.45590  Biso   1.000  H
  C39      1.0000 0.49820  0.25430  0.49600  Biso   1.000  C
  H25      1.0000 0.50560  0.22480  0.46870  Biso   1.000  H
  C40      1.0000 0.54530  0.30660  0.53910  Biso   1.000  C
  C41      1.0000 0.53270  0.34530  0.59550  Biso   1.000  C
  H26      1.0000 0.56410  0.37770  0.63030  Biso   1.000  H
  C42      1.0000 0.47500  0.33680  0.60080  Biso   1.000  C
  H27      1.0000 0.46650  0.36290  0.63790  Biso   1.000  H
  C43      1.0000 0.65320  0.37820  0.54030  Biso   1.000  C
  H28      1.0000 0.64360  0.40900  0.53770  Biso   1.000  H
  C44      1.0000 0.60750  0.31890  0.54220  Biso   1.000  C
  O13      1.0000 0.88877  0.94977  0.10700  Biso   1.000  O
  C45      1.0000 0.81730  0.94730  0.26240  Biso   1.000  C
  H29      1.0000 0.81170  0.91050  0.23820  Biso   1.000  H
  C46      1.0000 0.78270  0.94920  0.33740  Biso   1.000  C
  H30      1.0000 0.75120  0.91250  0.36170  Biso   1.000  H
  O14      1.0000 0.76260  0.09270  0.48700  Biso   1.000  O
  O15      1.0000 0.69210  0.04370  0.60390  Biso   1.000  O
  C47      1.0000 0.72320  0.08920  0.54710  Biso   1.000  C
  C48      1.0000 0.71330  0.14280  0.54760  Biso   1.000  C
  C49      1.0000 0.75390  0.19250  0.49300  Biso   1.000  C
  H31      1.0000 0.78520  0.19260  0.45590  Biso   1.000  H
  C50      1.0000 0.74570  0.24390  0.49600  Biso   1.000  C
  H32      1.0000 0.77520  0.28080  0.46870  Biso   1.000  H
  C51      1.0000 0.69340  0.23870  0.53910  Biso   1.000  C
  C52      1.0000 0.65470  0.18740  0.59550  Biso   1.000  C
  H33      1.0000 0.62230  0.18640  0.63030  Biso   1.000  H
  C53      1.0000 0.66320  0.13820  0.60080  Biso   1.000  C
  H34      1.0000 0.63710  0.10360  0.63790  Biso   1.000  H
  C54      1.0000 0.62180  0.27500  0.54030  Biso   1.000  C
  H35      1.0000 0.59100  0.23460  0.53770  Biso   1.000  H
  C55      1.0000 0.68110  0.28860  0.54220  Biso   1.000  C
  O16      1.0000 0.05023  0.93900  0.10700  Biso   1.000  O
  C56      1.0000 0.05270  0.87000  0.26240  Biso   1.000  C
  H36      1.0000 0.08950  0.90120  0.23820  Biso   1.000  H
  C57      1.0000 0.05080  0.83350  0.33740  Biso   1.000  C
  H37      1.0000 0.08750  0.83870  0.36170  Biso   1.000  H
  O17      1.0000 0.90730  0.66990  0.48700  Biso   1.000  O
  O18      1.0000 0.95630  0.64840  0.60390  Biso   1.000  O
  C58      1.0000 0.91080  0.63400  0.54710  Biso   1.000  C
  C59      1.0000 0.85720  0.57050  0.54760  Biso   1.000  C
  C60      1.0000 0.80750  0.56140  0.49300  Biso   1.000  C
  H38      1.0000 0.80740  0.59260  0.45590  Biso   1.000  H
  C61      1.0000 0.75610  0.50180  0.49600  Biso   1.000  C
  H39      1.0000 0.71920  0.49440  0.46870  Biso   1.000  H
  C62      1.0000 0.76130  0.45470  0.53910  Biso   1.000  C
  C63      1.0000 0.81260  0.46730  0.59550  Biso   1.000  C
  H40      1.0000 0.81360  0.43590  0.63030  Biso   1.000  H
  C64      1.0000 0.86180  0.52500  0.60080  Biso   1.000  C
  H41      1.0000 0.89640  0.53350  0.63790  Biso   1.000  H
  C65      1.0000 0.72500  0.34680  0.54030  Biso   1.000  C
  H42      1.0000 0.76540  0.35640  0.53770  Biso   1.000  H
  C66      1.0000 0.71140  0.39250  0.54220  Biso   1.000  C
  O19      1.0000 0.11123  0.06100  0.10700  Biso   1.000  O
  C67      1.0000 0.18270  0.13000  0.26240  Biso   1.000  C
  H43      1.0000 0.18830  0.09880  0.23820  Biso   1.000  H
  C68      1.0000 0.21730  0.16650  0.33740  Biso   1.000  C
  H44      1.0000 0.24880  0.16130  0.36170  Biso   1.000  H
  O20      1.0000 0.23740  0.33010  0.48700  Biso   1.000  O
  O21      1.0000 0.30790  0.35160  0.60390  Biso   1.000  O
  C69      1.0000 0.27680  0.36600  0.54710  Biso   1.000  C
  C70      1.0000 0.28670  0.42950  0.54760  Biso   1.000  C
  C71      1.0000 0.24610  0.43860  0.49300  Biso   1.000  C
  H45      1.0000 0.21480  0.40740  0.45590  Biso   1.000  H
  C72      1.0000 0.25430  0.49820  0.49600  Biso   1.000  C
  H46      1.0000 0.22480  0.50560  0.46870  Biso   1.000  H
  C73      1.0000 0.30660  0.54530  0.53910  Biso   1.000  C
  C74      1.0000 0.34530  0.53270  0.59550  Biso   1.000  C
  H47      1.0000 0.37770  0.56410  0.63030  Biso   1.000  H
  C75      1.0000 0.33680  0.47500  0.60080  Biso   1.000  C
  H48      1.0000 0.36290  0.46650  0.63790  Biso   1.000  H
  C76      1.0000 0.37820  0.65320  0.54030  Biso   1.000  C
  H49      1.0000 0.40900  0.64360  0.53770  Biso   1.000  H
  C77      1.0000 0.31890  0.60750  0.54220  Biso   1.000  C
  O22      1.0000 0.94977  0.88877  0.10700  Biso   1.000  O
  C78      1.0000 0.94730  0.81730  0.26240  Biso   1.000  C
  H50      1.0000 0.91050  0.81170  0.23820  Biso   1.000  H
  C79      1.0000 0.94920  0.78270  0.33740  Biso   1.000  C
  H51      1.0000 0.91250  0.75120  0.36170  Biso   1.000  H
  O23      1.0000 0.09270  0.76260  0.48700  Biso   1.000  O
  O24      1.0000 0.04370  0.69210  0.60390  Biso   1.000  O
  C80      1.0000 0.08920  0.72320  0.54710  Biso   1.000  C
  C81      1.0000 0.14280  0.71330  0.54760  Biso   1.000  C
  C82      1.0000 0.19250  0.75390  0.49300  Biso   1.000  C
  H52      1.0000 0.19260  0.78520  0.45590  Biso   1.000  H
  C83      1.0000 0.24390  0.74570  0.49600  Biso   1.000  C
  H53      1.0000 0.28080  0.77520  0.46870  Biso   1.000  H
  C84      1.0000 0.23870  0.69340  0.53910  Biso   1.000  C
  C85      1.0000 0.18740  0.65470  0.59550  Biso   1.000  C
  H54      1.0000 0.18640  0.62230  0.63030  Biso   1.000  H
  C86      1.0000 0.13820  0.66320  0.60080  Biso   1.000  C
  H55      1.0000 0.10360  0.63710  0.63790  Biso   1.000  H
  C87      1.0000 0.27500  0.62180  0.54030  Biso   1.000  C
  H56      1.0000 0.23460  0.59100  0.53770  Biso   1.000  H
  C88      1.0000 0.28860  0.68110  0.54220  Biso   1.000  C
  O25      1.0000 0.93900  0.05023  0.10700  Biso   1.000  O
  C89      1.0000 0.87000  0.05270  0.26240  Biso   1.000  C
  H57      1.0000 0.90120  0.08950  0.23820  Biso   1.000  H
  C90      1.0000 0.83350  0.05080  0.33740  Biso   1.000  C
  H58      1.0000 0.83870  0.08750  0.36170  Biso   1.000  H
  O26      1.0000 0.66990  0.90730  0.48700  Biso   1.000  O
  O27      1.0000 0.64840  0.95630  0.60390  Biso   1.000  O
  C91      1.0000 0.63400  0.91080  0.54710  Biso   1.000  C
  C92      1.0000 0.57050  0.85720  0.54760  Biso   1.000  C
  C93      1.0000 0.56140  0.80750  0.49300  Biso   1.000  C
  H59      1.0000 0.59260  0.80740  0.45590  Biso   1.000  H
  C94      1.0000 0.50180  0.75610  0.49600  Biso   1.000  C
  H60      1.0000 0.49440  0.71920  0.46870  Biso   1.000  H
  C95      1.0000 0.45470  0.76130  0.53910  Biso   1.000  C
  C96      1.0000 0.46730  0.81260  0.59550  Biso   1.000  C
  H61      1.0000 0.43590  0.81360  0.63030  Biso   1.000  H
  C97      1.0000 0.52500  0.86180  0.60080  Biso   1.000  C
  H62      1.0000 0.53350  0.89640  0.63790  Biso   1.000  H
  C98      1.0000 0.34680  0.72500  0.54030  Biso   1.000  C
  H63      1.0000 0.35640  0.76540  0.53770  Biso   1.000  H
  C99      1.0000 0.39250  0.71140  0.54220  Biso   1.000  C
  O28      1.0000 0.11123  0.06100  0.89300  Biso   1.000  O
  C100     1.0000 0.18270  0.13000  0.73760  Biso   1.000  C
  H64      1.0000 0.18830  0.09880  0.76180  Biso   1.000  H
  C101     1.0000 0.21730  0.16650  0.66260  Biso   1.000  C
  H65      1.0000 0.24880  0.16130  0.63830  Biso   1.000  H
  O29      1.0000 0.23740  0.33010  0.51300  Biso   1.000  O
  O30      1.0000 0.30790  0.35160  0.39610  Biso   1.000  O
  C102     1.0000 0.27680  0.36600  0.45290  Biso   1.000  C
  C103     1.0000 0.28670  0.42950  0.45240  Biso   1.000  C
  C104     1.0000 0.24610  0.43860  0.50700  Biso   1.000  C
  H66      1.0000 0.21480  0.40740  0.54410  Biso   1.000  H
  C105     1.0000 0.25430  0.49820  0.50400  Biso   1.000  C
  H67      1.0000 0.22480  0.50560  0.53130  Biso   1.000  H
  C106     1.0000 0.30660  0.54530  0.46090  Biso   1.000  C
  C107     1.0000 0.34530  0.53270  0.40450  Biso   1.000  C
  H68      1.0000 0.37770  0.56410  0.36970  Biso   1.000  H
  C108     1.0000 0.33680  0.47500  0.39920  Biso   1.000  C
  H69      1.0000 0.36290  0.46650  0.36210  Biso   1.000  H
  C109     1.0000 0.37820  0.65320  0.45970  Biso   1.000  C
  H70      1.0000 0.40900  0.64360  0.46230  Biso   1.000  H
  C110     1.0000 0.31890  0.60750  0.45780  Biso   1.000  C
  O31      1.0000 0.94977  0.88877  0.89300  Biso   1.000  O
  C111     1.0000 0.94730  0.81730  0.73760  Biso   1.000  C
  H71      1.0000 0.91050  0.81170  0.76180  Biso   1.000  H
  C112     1.0000 0.94920  0.78270  0.66260  Biso   1.000  C
  H72      1.0000 0.91250  0.75120  0.63830  Biso   1.000  H
  O32      1.0000 0.09270  0.76260  0.51300  Biso   1.000  O
  O33      1.0000 0.04370  0.69210  0.39610  Biso   1.000  O
  C113     1.0000 0.08920  0.72320  0.45290  Biso   1.000  C
  C114     1.0000 0.14280  0.71330  0.45240  Biso   1.000  C
  C115     1.0000 0.19250  0.75390  0.50700  Biso   1.000  C
  H73      1.0000 0.19260  0.78520  0.54410  Biso   1.000  H
  C116     1.0000 0.24390  0.74570  0.50400  Biso   1.000  C
  H74      1.0000 0.28080  0.77520  0.53130  Biso   1.000  H
  C117     1.0000 0.23870  0.69340  0.46090  Biso   1.000  C
  C118     1.0000 0.18740  0.65470  0.40450  Biso   1.000  C
  H75      1.0000 0.18640  0.62230  0.36970  Biso   1.000  H
  C119     1.0000 0.13820  0.66320  0.39920  Biso   1.000  C
  H76      1.0000 0.10360  0.63710  0.36210  Biso   1.000  H
  C120     1.0000 0.27500  0.62180  0.45970  Biso   1.000  C
  H77      1.0000 0.23460  0.59100  0.46230  Biso   1.000  H
  C121     1.0000 0.28860  0.68110  0.45780  Biso   1.000  C
  O34      1.0000 0.93900  0.05023  0.89300  Biso   1.000  O
  C122     1.0000 0.87000  0.05270  0.73760  Biso   1.000  C
  H78      1.0000 0.90120  0.08950  0.76180  Biso   1.000  H
  C123     1.0000 0.83350  0.05080  0.66260  Biso   1.000  C
  H79      1.0000 0.83870  0.08750  0.63830  Biso   1.000  H
  O35      1.0000 0.66990  0.90730  0.51300  Biso   1.000  O
  O36      1.0000 0.64840  0.95630  0.39610  Biso   1.000  O
  C124     1.0000 0.63400  0.91080  0.45290  Biso   1.000  C
  C125     1.0000 0.57050  0.85720  0.45240  Biso   1.000  C
  C126     1.0000 0.56140  0.80750  0.50700  Biso   1.000  C
  H80      1.0000 0.59260  0.80740  0.54410  Biso   1.000  H
  C127     1.0000 0.50180  0.75610  0.50400  Biso   1.000  C
  H81      1.0000 0.49440  0.71920  0.53130  Biso   1.000  H
  C128     1.0000 0.45470  0.76130  0.46090  Biso   1.000  C
  C129     1.0000 0.46730  0.81260  0.40450  Biso   1.000  C
  H82      1.0000 0.43590  0.81360  0.36970  Biso   1.000  H
  C130     1.0000 0.52500  0.86180  0.39920  Biso   1.000  C
  H83      1.0000 0.53350  0.89640  0.36210  Biso   1.000  H
  C131     1.0000 0.34680  0.72500  0.45970  Biso   1.000  C
  H84      1.0000 0.35640  0.76540  0.46230  Biso   1.000  H
  C132     1.0000 0.39250  0.71140  0.45780  Biso   1.000  C
  Zn1      1.0000 0.26209  0.26209  0.50000  Biso   1.000  Zn
  Zn2      1.0000 0.73791  0.00000  0.50000  Biso   1.000  Zn
  Zn3      1.0000 0.00000  0.73791  0.50000  Biso   1.000  Zn
  Cr1      1.0000 0.00000  0.07459  0.00000  Biso   1.000  Cr
  Cr2      1.0000 0.92541  0.92541  0.00000  Biso   1.000  Cr
  Cr3      1.0000 0.07459  0.00000  0.00000  Biso   1.000  Cr
  O37      1.0000 0.00000  0.00000  0.00000  Biso   1.000  O
  C133     1.0000 0.09900  0.09900  0.86250  Biso   1.000  C
  C134     1.0000 0.13970  0.13970  0.77690  Biso   1.000  C
  N1       1.0000 0.20970  0.20970  0.62060  Biso   1.000  N
  C135     1.0000 0.90100  0.00000  0.86250  Biso   1.000  C
  C136     1.0000 0.86030  0.00000  0.77690  Biso   1.000  C
  N2       1.0000 0.79030  0.00000  0.62060  Biso   1.000  N
  C137     1.0000 0.00000  0.90100  0.86250  Biso   1.000  C
  C138     1.0000 0.00000  0.86030  0.77690  Biso   1.000  C
  N3       1.0000 0.00000  0.79030  0.62060  Biso   1.000  N
  C139     1.0000 0.09900  0.09900  0.13750  Biso   1.000  C
  C140     1.0000 0.13970  0.13970  0.22310  Biso   1.000  C
  N4       1.0000 0.20970  0.20970  0.37940  Biso   1.000  N
  C141     1.0000 0.90100  0.00000  0.13750  Biso   1.000  C
  C142     1.0000 0.86030  0.00000  0.22310  Biso   1.000  C
  N5       1.0000 0.79030  0.00000  0.37940  Biso   1.000  N
  C143     1.0000 0.00000  0.90100  0.13750  Biso   1.000  C
  C144     1.0000 0.00000  0.86030  0.22310  Biso   1.000  C
  N6       1.0000 0.00000  0.79030  0.37940  Biso   1.000  N
