data_image0
_cell_length_a       19.663
_cell_length_b       19.663
_cell_length_c       19.663
_cell_angle_alpha    90
_cell_angle_beta     90
_cell_angle_gamma    90

_symmetry_space_group_name_H-M    "P 1"
_symmetry_int_tables_number       1

loop_
  _symmetry_equiv_pos_as_xyz
  'x, y, z'

loop_
  _atom_site_label
  _atom_site_occupancy
  _atom_site_fract_x
  _atom_site_fract_y
  _atom_site_fract_z
  _atom_site_thermal_displace_type
  _atom_site_B_iso_or_equiv
  _atom_site_type_symbol
  C1       1.0000 0.55520  0.04490  0.01020  Biso   1.000  C
  C2       1.0000 0.61410  0.09380  0.02300  Biso   1.000  C
  H1       1.0000 0.65190  0.06930  0.04310  Biso   1.000  H
  H2       1.0000 0.62920  0.11310  0.98020  Biso   1.000  H
  C3       1.0000 0.61550  0.16350  0.12910  Biso   1.000  C
  H3       1.0000 0.65150  0.14230  0.15130  Biso   1.000  H
  C4       1.0000 0.53570  0.22860  0.10490  Biso   1.000  C
  H4       1.0000 0.50480  0.26440  0.10730  Biso   1.000  H
  N1       1.0000 0.57870  0.21490  0.15390  Biso   1.000  N
  N2       1.0000 0.59240  0.14770  0.06830  Biso   1.000  N
  N3       1.0000 0.53950  0.18910  0.05360  Biso   1.000  N
  C5       1.0000 0.94480  0.45510  0.01020  Biso   1.000  C
  C6       1.0000 0.88590  0.40620  0.02300  Biso   1.000  C
  H5       1.0000 0.84810  0.43070  0.04310  Biso   1.000  H
  H6       1.0000 0.87080  0.38690  0.98020  Biso   1.000  H
  C7       1.0000 0.88450  0.33650  0.12910  Biso   1.000  C
  H7       1.0000 0.84850  0.35770  0.15130  Biso   1.000  H
  C8       1.0000 0.96430  0.27140  0.10490  Biso   1.000  C
  H8       1.0000 0.99520  0.23560  0.10730  Biso   1.000  H
  N4       1.0000 0.92130  0.28510  0.15390  Biso   1.000  N
  N5       1.0000 0.90760  0.35230  0.06830  Biso   1.000  N
  N6       1.0000 0.96050  0.31090  0.05360  Biso   1.000  N
  C9       1.0000 0.94480  0.04490  0.48980  Biso   1.000  C
  C10      1.0000 0.88590  0.09380  0.47700  Biso   1.000  C
  H9       1.0000 0.84810  0.06930  0.45690  Biso   1.000  H
  H10      1.0000 0.87080  0.11310  0.51980  Biso   1.000  H
  C11      1.0000 0.88450  0.16350  0.37090  Biso   1.000  C
  H11      1.0000 0.84850  0.14230  0.34870  Biso   1.000  H
  C12      1.0000 0.96430  0.22860  0.39510  Biso   1.000  C
  H12      1.0000 0.99520  0.26440  0.39270  Biso   1.000  H
  N7       1.0000 0.92130  0.21490  0.34610  Biso   1.000  N
  N8       1.0000 0.90760  0.14770  0.43170  Biso   1.000  N
  N9       1.0000 0.96050  0.18910  0.44640  Biso   1.000  N
  C13      1.0000 0.55520  0.45510  0.48980  Biso   1.000  C
  C14      1.0000 0.61410  0.40620  0.47700  Biso   1.000  C
  H13      1.0000 0.65190  0.43070  0.45690  Biso   1.000  H
  H14      1.0000 0.62920  0.38690  0.51980  Biso   1.000  H
  C15      1.0000 0.61550  0.33650  0.37090  Biso   1.000  C
  H15      1.0000 0.65150  0.35770  0.34870  Biso   1.000  H
  C16      1.0000 0.53570  0.27140  0.39510  Biso   1.000  C
  H16      1.0000 0.50480  0.23560  0.39270  Biso   1.000  H
  N10      1.0000 0.57870  0.28510  0.34610  Biso   1.000  N
  N11      1.0000 0.59240  0.35230  0.43170  Biso   1.000  N
  N12      1.0000 0.53950  0.31090  0.44640  Biso   1.000  N
  C17      1.0000 0.01020  0.55520  0.04490  Biso   1.000  C
  C18      1.0000 0.02300  0.61410  0.09380  Biso   1.000  C
  H17      1.0000 0.04310  0.65190  0.06930  Biso   1.000  H
  H18      1.0000 0.98020  0.62920  0.11310  Biso   1.000  H
  C19      1.0000 0.12910  0.61550  0.16350  Biso   1.000  C
  H19      1.0000 0.15130  0.65150  0.14230  Biso   1.000  H
  C20      1.0000 0.10490  0.53570  0.22860  Biso   1.000  C
  H20      1.0000 0.10730  0.50480  0.26440  Biso   1.000  H
  N13      1.0000 0.15390  0.57870  0.21490  Biso   1.000  N
  N14      1.0000 0.06830  0.59240  0.14770  Biso   1.000  N
  N15      1.0000 0.05360  0.53950  0.18910  Biso   1.000  N
  C21      1.0000 0.01020  0.94480  0.45510  Biso   1.000  C
  C22      1.0000 0.02300  0.88590  0.40620  Biso   1.000  C
  H21      1.0000 0.04310  0.84810  0.43070  Biso   1.000  H
  H22      1.0000 0.98020  0.87080  0.38690  Biso   1.000  H
  C23      1.0000 0.12910  0.88450  0.33650  Biso   1.000  C
  H23      1.0000 0.15130  0.84850  0.35770  Biso   1.000  H
  C24      1.0000 0.10490  0.96430  0.27140  Biso   1.000  C
  H24      1.0000 0.10730  0.99520  0.23560  Biso   1.000  H
  N16      1.0000 0.15390  0.92130  0.28510  Biso   1.000  N
  N17      1.0000 0.06830  0.90760  0.35230  Biso   1.000  N
  N18      1.0000 0.05360  0.96050  0.31090  Biso   1.000  N
  C25      1.0000 0.48980  0.94480  0.04490  Biso   1.000  C
  C26      1.0000 0.47700  0.88590  0.09380  Biso   1.000  C
  H25      1.0000 0.45690  0.84810  0.06930  Biso   1.000  H
  H26      1.0000 0.51980  0.87080  0.11310  Biso   1.000  H
  C27      1.0000 0.37090  0.88450  0.16350  Biso   1.000  C
  H27      1.0000 0.34870  0.84850  0.14230  Biso   1.000  H
  C28      1.0000 0.39510  0.96430  0.22860  Biso   1.000  C
  H28      1.0000 0.39270  0.99520  0.26440  Biso   1.000  H
  N19      1.0000 0.34610  0.92130  0.21490  Biso   1.000  N
  N20      1.0000 0.43170  0.90760  0.14770  Biso   1.000  N
  N21      1.0000 0.44640  0.96050  0.18910  Biso   1.000  N
  C29      1.0000 0.48980  0.55520  0.45510  Biso   1.000  C
  C30      1.0000 0.47700  0.61410  0.40620  Biso   1.000  C
  H29      1.0000 0.45690  0.65190  0.43070  Biso   1.000  H
  H30      1.0000 0.51980  0.62920  0.38690  Biso   1.000  H
  C31      1.0000 0.37090  0.61550  0.33650  Biso   1.000  C
  H31      1.0000 0.34870  0.65150  0.35770  Biso   1.000  H
  C32      1.0000 0.39510  0.53570  0.27140  Biso   1.000  C
  H32      1.0000 0.39270  0.50480  0.23560  Biso   1.000  H
  N22      1.0000 0.34610  0.57870  0.28510  Biso   1.000  N
  N23      1.0000 0.43170  0.59240  0.35230  Biso   1.000  N
  N24      1.0000 0.44640  0.53950  0.31090  Biso   1.000  N
  C33      1.0000 0.04490  0.01020  0.55520  Biso   1.000  C
  C34      1.0000 0.09380  0.02300  0.61410  Biso   1.000  C
  H33      1.0000 0.06930  0.04310  0.65190  Biso   1.000  H
  H34      1.0000 0.11310  0.98020  0.62920  Biso   1.000  H
  C35      1.0000 0.16350  0.12910  0.61550  Biso   1.000  C
  H35      1.0000 0.14230  0.15130  0.65150  Biso   1.000  H
  C36      1.0000 0.22860  0.10490  0.53570  Biso   1.000  C
  H36      1.0000 0.26440  0.10730  0.50480  Biso   1.000  H
  N25      1.0000 0.21490  0.15390  0.57870  Biso   1.000  N
  N26      1.0000 0.14770  0.06830  0.59240  Biso   1.000  N
  N27      1.0000 0.18910  0.05360  0.53950  Biso   1.000  N
  C37      1.0000 0.45510  0.01020  0.94480  Biso   1.000  C
  C38      1.0000 0.40620  0.02300  0.88590  Biso   1.000  C
  H37      1.0000 0.43070  0.04310  0.84810  Biso   1.000  H
  H38      1.0000 0.38690  0.98020  0.87080  Biso   1.000  H
  C39      1.0000 0.33650  0.12910  0.88450  Biso   1.000  C
  H39      1.0000 0.35770  0.15130  0.84850  Biso   1.000  H
  C40      1.0000 0.27140  0.10490  0.96430  Biso   1.000  C
  H40      1.0000 0.23560  0.10730  0.99520  Biso   1.000  H
  N28      1.0000 0.28510  0.15390  0.92130  Biso   1.000  N
  N29      1.0000 0.35230  0.06830  0.90760  Biso   1.000  N
  N30      1.0000 0.31090  0.05360  0.96050  Biso   1.000  N
  C41      1.0000 0.04490  0.48980  0.94480  Biso   1.000  C
  C42      1.0000 0.09380  0.47700  0.88590  Biso   1.000  C
  H41      1.0000 0.06930  0.45690  0.84810  Biso   1.000  H
  H42      1.0000 0.11310  0.51980  0.87080  Biso   1.000  H
  C43      1.0000 0.16350  0.37090  0.88450  Biso   1.000  C
  H43      1.0000 0.14230  0.34870  0.84850  Biso   1.000  H
  C44      1.0000 0.22860  0.39510  0.96430  Biso   1.000  C
  H44      1.0000 0.26440  0.39270  0.99520  Biso   1.000  H
  N31      1.0000 0.21490  0.34610  0.92130  Biso   1.000  N
  N32      1.0000 0.14770  0.43170  0.90760  Biso   1.000  N
  N33      1.0000 0.18910  0.44640  0.96050  Biso   1.000  N
  C45      1.0000 0.45510  0.48980  0.55520  Biso   1.000  C
  C46      1.0000 0.40620  0.47700  0.61410  Biso   1.000  C
  H45      1.0000 0.43070  0.45690  0.65190  Biso   1.000  H
  H46      1.0000 0.38690  0.51980  0.62920  Biso   1.000  H
  C47      1.0000 0.33650  0.37090  0.61550  Biso   1.000  C
  H47      1.0000 0.35770  0.34870  0.65150  Biso   1.000  H
  C48      1.0000 0.27140  0.39510  0.53570  Biso   1.000  C
  H48      1.0000 0.23560  0.39270  0.50480  Biso   1.000  H
  N34      1.0000 0.28510  0.34610  0.57870  Biso   1.000  N
  N35      1.0000 0.35230  0.43170  0.59240  Biso   1.000  N
  N36      1.0000 0.31090  0.44640  0.53950  Biso   1.000  N
  C49      1.0000 0.04490  0.55520  0.48980  Biso   1.000  C
  C50      1.0000 0.09380  0.61410  0.47700  Biso   1.000  C
  H49      1.0000 0.06930  0.65190  0.45690  Biso   1.000  H
  H50      1.0000 0.11310  0.62920  0.51980  Biso   1.000  H
  C51      1.0000 0.16350  0.61550  0.37090  Biso   1.000  C
  H51      1.0000 0.14230  0.65150  0.34870  Biso   1.000  H
  C52      1.0000 0.22860  0.53570  0.39510  Biso   1.000  C
  H52      1.0000 0.26440  0.50480  0.39270  Biso   1.000  H
  N37      1.0000 0.21490  0.57870  0.34610  Biso   1.000  N
  N38      1.0000 0.14770  0.59240  0.43170  Biso   1.000  N
  N39      1.0000 0.18910  0.53950  0.44640  Biso   1.000  N
  C53      1.0000 0.45510  0.94480  0.48980  Biso   1.000  C
  C54      1.0000 0.40620  0.88590  0.47700  Biso   1.000  C
  H53      1.0000 0.43070  0.84810  0.45690  Biso   1.000  H
  H54      1.0000 0.38690  0.87080  0.51980  Biso   1.000  H
  C55      1.0000 0.33650  0.88450  0.37090  Biso   1.000  C
  H55      1.0000 0.35770  0.84850  0.34870  Biso   1.000  H
  C56      1.0000 0.27140  0.96430  0.39510  Biso   1.000  C
  H56      1.0000 0.23560  0.99520  0.39270  Biso   1.000  H
  N40      1.0000 0.28510  0.92130  0.34610  Biso   1.000  N
  N41      1.0000 0.35230  0.90760  0.43170  Biso   1.000  N
  N42      1.0000 0.31090  0.96050  0.44640  Biso   1.000  N
  C57      1.0000 0.04490  0.94480  0.01020  Biso   1.000  C
  C58      1.0000 0.09380  0.88590  0.02300  Biso   1.000  C
  H57      1.0000 0.06930  0.84810  0.04310  Biso   1.000  H
  H58      1.0000 0.11310  0.87080  0.98020  Biso   1.000  H
  C59      1.0000 0.16350  0.88450  0.12910  Biso   1.000  C
  H59      1.0000 0.14230  0.84850  0.15130  Biso   1.000  H
  C60      1.0000 0.22860  0.96430  0.10490  Biso   1.000  C
  H60      1.0000 0.26440  0.99520  0.10730  Biso   1.000  H
  N43      1.0000 0.21490  0.92130  0.15390  Biso   1.000  N
  N44      1.0000 0.14770  0.90760  0.06830  Biso   1.000  N
  N45      1.0000 0.18910  0.96050  0.05360  Biso   1.000  N
  C61      1.0000 0.45510  0.55520  0.01020  Biso   1.000  C
  C62      1.0000 0.40620  0.61410  0.02300  Biso   1.000  C
  H61      1.0000 0.43070  0.65190  0.04310  Biso   1.000  H
  H62      1.0000 0.38690  0.62920  0.98020  Biso   1.000  H
  C63      1.0000 0.33650  0.61550  0.12910  Biso   1.000  C
  H63      1.0000 0.35770  0.65150  0.15130  Biso   1.000  H
  C64      1.0000 0.27140  0.53570  0.10490  Biso   1.000  C
  H64      1.0000 0.23560  0.50480  0.10730  Biso   1.000  H
  N46      1.0000 0.28510  0.57870  0.15390  Biso   1.000  N
  N47      1.0000 0.35230  0.59240  0.06830  Biso   1.000  N
  N48      1.0000 0.31090  0.53950  0.05360  Biso   1.000  N
  C65      1.0000 0.55520  0.01020  0.45510  Biso   1.000  C
  C66      1.0000 0.61410  0.02300  0.40620  Biso   1.000  C
  H65      1.0000 0.65190  0.04310  0.43070  Biso   1.000  H
  H66      1.0000 0.62920  0.98020  0.38690  Biso   1.000  H
  C67      1.0000 0.61550  0.12910  0.33650  Biso   1.000  C
  H67      1.0000 0.65150  0.15130  0.35770  Biso   1.000  H
  C68      1.0000 0.53570  0.10490  0.27140  Biso   1.000  C
  H68      1.0000 0.50480  0.10730  0.23560  Biso   1.000  H
  N49      1.0000 0.57870  0.15390  0.28510  Biso   1.000  N
  N50      1.0000 0.59240  0.06830  0.35230  Biso   1.000  N
  N51      1.0000 0.53950  0.05360  0.31090  Biso   1.000  N
  C69      1.0000 0.94480  0.01020  0.04490  Biso   1.000  C
  C70      1.0000 0.88590  0.02300  0.09380  Biso   1.000  C
  H69      1.0000 0.84810  0.04310  0.06930  Biso   1.000  H
  H70      1.0000 0.87080  0.98020  0.11310  Biso   1.000  H
  C71      1.0000 0.88450  0.12910  0.16350  Biso   1.000  C
  H71      1.0000 0.84850  0.15130  0.14230  Biso   1.000  H
  C72      1.0000 0.96430  0.10490  0.22860  Biso   1.000  C
  H72      1.0000 0.99520  0.10730  0.26440  Biso   1.000  H
  N52      1.0000 0.92130  0.15390  0.21490  Biso   1.000  N
  N53      1.0000 0.90760  0.06830  0.14770  Biso   1.000  N
  N54      1.0000 0.96050  0.05360  0.18910  Biso   1.000  N
  C73      1.0000 0.94480  0.48980  0.45510  Biso   1.000  C
  C74      1.0000 0.88590  0.47700  0.40620  Biso   1.000  C
  H73      1.0000 0.84810  0.45690  0.43070  Biso   1.000  H
  H74      1.0000 0.87080  0.51980  0.38690  Biso   1.000  H
  C75      1.0000 0.88450  0.37090  0.33650  Biso   1.000  C
  H75      1.0000 0.84850  0.34870  0.35770  Biso   1.000  H
  C76      1.0000 0.96430  0.39510  0.27140  Biso   1.000  C
  H76      1.0000 0.99520  0.39270  0.23560  Biso   1.000  H
  N55      1.0000 0.92130  0.34610  0.28510  Biso   1.000  N
  N56      1.0000 0.90760  0.43170  0.35230  Biso   1.000  N
  N57      1.0000 0.96050  0.44640  0.31090  Biso   1.000  N
  C77      1.0000 0.55520  0.48980  0.04490  Biso   1.000  C
  C78      1.0000 0.61410  0.47700  0.09380  Biso   1.000  C
  H77      1.0000 0.65190  0.45690  0.06930  Biso   1.000  H
  H78      1.0000 0.62920  0.51980  0.11310  Biso   1.000  H
  C79      1.0000 0.61550  0.37090  0.16350  Biso   1.000  C
  H79      1.0000 0.65150  0.34870  0.14230  Biso   1.000  H
  C80      1.0000 0.53570  0.39510  0.22860  Biso   1.000  C
  H80      1.0000 0.50480  0.39270  0.26440  Biso   1.000  H
  N58      1.0000 0.57870  0.34610  0.21490  Biso   1.000  N
  N59      1.0000 0.59240  0.43170  0.14770  Biso   1.000  N
  N60      1.0000 0.53950  0.44640  0.18910  Biso   1.000  N
  C81      1.0000 0.01020  0.04490  0.94480  Biso   1.000  C
  C82      1.0000 0.02300  0.09380  0.88590  Biso   1.000  C
  H81      1.0000 0.04310  0.06930  0.84810  Biso   1.000  H
  H82      1.0000 0.98020  0.11310  0.87080  Biso   1.000  H
  C83      1.0000 0.12910  0.16350  0.88450  Biso   1.000  C
  H83      1.0000 0.15130  0.14230  0.84850  Biso   1.000  H
  C84      1.0000 0.10490  0.22860  0.96430  Biso   1.000  C
  H84      1.0000 0.10730  0.26440  0.99520  Biso   1.000  H
  N61      1.0000 0.15390  0.21490  0.92130  Biso   1.000  N
  N62      1.0000 0.06830  0.14770  0.90760  Biso   1.000  N
  N63      1.0000 0.05360  0.18910  0.96050  Biso   1.000  N
  C85      1.0000 0.01020  0.45510  0.55520  Biso   1.000  C
  C86      1.0000 0.02300  0.40620  0.61410  Biso   1.000  C
  H85      1.0000 0.04310  0.43070  0.65190  Biso   1.000  H
  H86      1.0000 0.98020  0.38690  0.62920  Biso   1.000  H
  C87      1.0000 0.12910  0.33650  0.61550  Biso   1.000  C
  H87      1.0000 0.15130  0.35770  0.65150  Biso   1.000  H
  C88      1.0000 0.10490  0.27140  0.53570  Biso   1.000  C
  H88      1.0000 0.10730  0.23560  0.50480  Biso   1.000  H
  N64      1.0000 0.15390  0.28510  0.57870  Biso   1.000  N
  N65      1.0000 0.06830  0.35230  0.59240  Biso   1.000  N
  N66      1.0000 0.05360  0.31090  0.53950  Biso   1.000  N
  C89      1.0000 0.48980  0.04490  0.55520  Biso   1.000  C
  C90      1.0000 0.47700  0.09380  0.61410  Biso   1.000  C
  H89      1.0000 0.45690  0.06930  0.65190  Biso   1.000  H
  H90      1.0000 0.51980  0.11310  0.62920  Biso   1.000  H
  C91      1.0000 0.37090  0.16350  0.61550  Biso   1.000  C
  H91      1.0000 0.34870  0.14230  0.65150  Biso   1.000  H
  C92      1.0000 0.39510  0.22860  0.53570  Biso   1.000  C
  H92      1.0000 0.39270  0.26440  0.50480  Biso   1.000  H
  N67      1.0000 0.34610  0.21490  0.57870  Biso   1.000  N
  N68      1.0000 0.43170  0.14770  0.59240  Biso   1.000  N
  N69      1.0000 0.44640  0.18910  0.53950  Biso   1.000  N
  C93      1.0000 0.48980  0.45510  0.94480  Biso   1.000  C
  C94      1.0000 0.47700  0.40620  0.88590  Biso   1.000  C
  H93      1.0000 0.45690  0.43070  0.84810  Biso   1.000  H
  H94      1.0000 0.51980  0.38690  0.87080  Biso   1.000  H
  C95      1.0000 0.37090  0.33650  0.88450  Biso   1.000  C
  H95      1.0000 0.34870  0.35770  0.84850  Biso   1.000  H
  C96      1.0000 0.39510  0.27140  0.96430  Biso   1.000  C
  H96      1.0000 0.39270  0.23560  0.99520  Biso   1.000  H
  N70      1.0000 0.34610  0.28510  0.92130  Biso   1.000  N
  N71      1.0000 0.43170  0.35230  0.90760  Biso   1.000  N
  N72      1.0000 0.44640  0.31090  0.96050  Biso   1.000  N
  C97      1.0000 0.44480  0.95510  0.98980  Biso   1.000  C
  C98      1.0000 0.38590  0.90620  0.97700  Biso   1.000  C
  H97      1.0000 0.34810  0.93070  0.95690  Biso   1.000  H
  H98      1.0000 0.37080  0.88690  0.01980  Biso   1.000  H
  C99      1.0000 0.38450  0.83650  0.87090  Biso   1.000  C
  H99      1.0000 0.34850  0.85770  0.84870  Biso   1.000  H
  C100     1.0000 0.46430  0.77140  0.89510  Biso   1.000  C
  H100     1.0000 0.49520  0.73560  0.89270  Biso   1.000  H
  N73      1.0000 0.42130  0.78510  0.84610  Biso   1.000  N
  N74      1.0000 0.40760  0.85230  0.93170  Biso   1.000  N
  N75      1.0000 0.46050  0.81090  0.94640  Biso   1.000  N
  C101     1.0000 0.05520  0.54490  0.98980  Biso   1.000  C
  C102     1.0000 0.11410  0.59380  0.97700  Biso   1.000  C
  H101     1.0000 0.15190  0.56930  0.95690  Biso   1.000  H
  H102     1.0000 0.12920  0.61310  0.01980  Biso   1.000  H
  C103     1.0000 0.11550  0.66350  0.87090  Biso   1.000  C
  H103     1.0000 0.15150  0.64230  0.84870  Biso   1.000  H
  C104     1.0000 0.03570  0.72860  0.89510  Biso   1.000  C
  H104     1.0000 0.00480  0.76440  0.89270  Biso   1.000  H
  N76      1.0000 0.07870  0.71490  0.84610  Biso   1.000  N
  N77      1.0000 0.09240  0.64770  0.93170  Biso   1.000  N
  N78      1.0000 0.03950  0.68910  0.94640  Biso   1.000  N
  C105     1.0000 0.05520  0.95510  0.51020  Biso   1.000  C
  C106     1.0000 0.11410  0.90620  0.52300  Biso   1.000  C
  H105     1.0000 0.15190  0.93070  0.54310  Biso   1.000  H
  H106     1.0000 0.12920  0.88690  0.48020  Biso   1.000  H
  C107     1.0000 0.11550  0.83650  0.62910  Biso   1.000  C
  H107     1.0000 0.15150  0.85770  0.65130  Biso   1.000  H
  C108     1.0000 0.03570  0.77140  0.60490  Biso   1.000  C
  H108     1.0000 0.00480  0.73560  0.60730  Biso   1.000  H
  N79      1.0000 0.07870  0.78510  0.65390  Biso   1.000  N
  N80      1.0000 0.09240  0.85230  0.56830  Biso   1.000  N
  N81      1.0000 0.03950  0.81090  0.55360  Biso   1.000  N
  C109     1.0000 0.44480  0.54490  0.51020  Biso   1.000  C
  C110     1.0000 0.38590  0.59380  0.52300  Biso   1.000  C
  H109     1.0000 0.34810  0.56930  0.54310  Biso   1.000  H
  H110     1.0000 0.37080  0.61310  0.48020  Biso   1.000  H
  C111     1.0000 0.38450  0.66350  0.62910  Biso   1.000  C
  H111     1.0000 0.34850  0.64230  0.65130  Biso   1.000  H
  C112     1.0000 0.46430  0.72860  0.60490  Biso   1.000  C
  H112     1.0000 0.49520  0.76440  0.60730  Biso   1.000  H
  N82      1.0000 0.42130  0.71490  0.65390  Biso   1.000  N
  N83      1.0000 0.40760  0.64770  0.56830  Biso   1.000  N
  N84      1.0000 0.46050  0.68910  0.55360  Biso   1.000  N
  C113     1.0000 0.98980  0.44480  0.95510  Biso   1.000  C
  C114     1.0000 0.97700  0.38590  0.90620  Biso   1.000  C
  H113     1.0000 0.95690  0.34810  0.93070  Biso   1.000  H
  H114     1.0000 0.01980  0.37080  0.88690  Biso   1.000  H
  C115     1.0000 0.87090  0.38450  0.83650  Biso   1.000  C
  H115     1.0000 0.84870  0.34850  0.85770  Biso   1.000  H
  C116     1.0000 0.89510  0.46430  0.77140  Biso   1.000  C
  H116     1.0000 0.89270  0.49520  0.73560  Biso   1.000  H
  N85      1.0000 0.84610  0.42130  0.78510  Biso   1.000  N
  N86      1.0000 0.93170  0.40760  0.85230  Biso   1.000  N
  N87      1.0000 0.94640  0.46050  0.81090  Biso   1.000  N
  C117     1.0000 0.98980  0.05520  0.54490  Biso   1.000  C
  C118     1.0000 0.97700  0.11410  0.59380  Biso   1.000  C
  H117     1.0000 0.95690  0.15190  0.56930  Biso   1.000  H
  H118     1.0000 0.01980  0.12920  0.61310  Biso   1.000  H
  C119     1.0000 0.87090  0.11550  0.66350  Biso   1.000  C
  H119     1.0000 0.84870  0.15150  0.64230  Biso   1.000  H
  C120     1.0000 0.89510  0.03570  0.72860  Biso   1.000  C
  H120     1.0000 0.89270  0.00480  0.76440  Biso   1.000  H
  N88      1.0000 0.84610  0.07870  0.71490  Biso   1.000  N
  N89      1.0000 0.93170  0.09240  0.64770  Biso   1.000  N
  N90      1.0000 0.94640  0.03950  0.68910  Biso   1.000  N
  C121     1.0000 0.51020  0.05520  0.95510  Biso   1.000  C
  C122     1.0000 0.52300  0.11410  0.90620  Biso   1.000  C
  H121     1.0000 0.54310  0.15190  0.93070  Biso   1.000  H
  H122     1.0000 0.48020  0.12920  0.88690  Biso   1.000  H
  C123     1.0000 0.62910  0.11550  0.83650  Biso   1.000  C
  H123     1.0000 0.65130  0.15150  0.85770  Biso   1.000  H
  C124     1.0000 0.60490  0.03570  0.77140  Biso   1.000  C
  H124     1.0000 0.60730  0.00480  0.73560  Biso   1.000  H
  N91      1.0000 0.65390  0.07870  0.78510  Biso   1.000  N
  N92      1.0000 0.56830  0.09240  0.85230  Biso   1.000  N
  N93      1.0000 0.55360  0.03950  0.81090  Biso   1.000  N
  C125     1.0000 0.51020  0.44480  0.54490  Biso   1.000  C
  C126     1.0000 0.52300  0.38590  0.59380  Biso   1.000  C
  H125     1.0000 0.54310  0.34810  0.56930  Biso   1.000  H
  H126     1.0000 0.48020  0.37080  0.61310  Biso   1.000  H
  C127     1.0000 0.62910  0.38450  0.66350  Biso   1.000  C
  H127     1.0000 0.65130  0.34850  0.64230  Biso   1.000  H
  C128     1.0000 0.60490  0.46430  0.72860  Biso   1.000  C
  H128     1.0000 0.60730  0.49520  0.76440  Biso   1.000  H
  N94      1.0000 0.65390  0.42130  0.71490  Biso   1.000  N
  N95      1.0000 0.56830  0.40760  0.64770  Biso   1.000  N
  N96      1.0000 0.55360  0.46050  0.68910  Biso   1.000  N
  C129     1.0000 0.95510  0.98980  0.44480  Biso   1.000  C
  C130     1.0000 0.90620  0.97700  0.38590  Biso   1.000  C
  H129     1.0000 0.93070  0.95690  0.34810  Biso   1.000  H
  H130     1.0000 0.88690  0.01980  0.37080  Biso   1.000  H
  C131     1.0000 0.83650  0.87090  0.38450  Biso   1.000  C
  H131     1.0000 0.85770  0.84870  0.34850  Biso   1.000  H
  C132     1.0000 0.77140  0.89510  0.46430  Biso   1.000  C
  H132     1.0000 0.73560  0.89270  0.49520  Biso   1.000  H
  N97      1.0000 0.78510  0.84610  0.42130  Biso   1.000  N
  N98      1.0000 0.85230  0.93170  0.40760  Biso   1.000  N
  N99      1.0000 0.81090  0.94640  0.46050  Biso   1.000  N
  C133     1.0000 0.54490  0.98980  0.05520  Biso   1.000  C
  C134     1.0000 0.59380  0.97700  0.11410  Biso   1.000  C
  H133     1.0000 0.56930  0.95690  0.15190  Biso   1.000  H
  H134     1.0000 0.61310  0.01980  0.12920  Biso   1.000  H
  C135     1.0000 0.66350  0.87090  0.11550  Biso   1.000  C
  H135     1.0000 0.64230  0.84870  0.15150  Biso   1.000  H
  C136     1.0000 0.72860  0.89510  0.03570  Biso   1.000  C
  H136     1.0000 0.76440  0.89270  0.00480  Biso   1.000  H
  N100     1.0000 0.71490  0.84610  0.07870  Biso   1.000  N
  N101     1.0000 0.64770  0.93170  0.09240  Biso   1.000  N
  N102     1.0000 0.68910  0.94640  0.03950  Biso   1.000  N
  C137     1.0000 0.95510  0.51020  0.05520  Biso   1.000  C
  C138     1.0000 0.90620  0.52300  0.11410  Biso   1.000  C
  H137     1.0000 0.93070  0.54310  0.15190  Biso   1.000  H
  H138     1.0000 0.88690  0.48020  0.12920  Biso   1.000  H
  C139     1.0000 0.83650  0.62910  0.11550  Biso   1.000  C
  H139     1.0000 0.85770  0.65130  0.15150  Biso   1.000  H
  C140     1.0000 0.77140  0.60490  0.03570  Biso   1.000  C
  H140     1.0000 0.73560  0.60730  0.00480  Biso   1.000  H
  N103     1.0000 0.78510  0.65390  0.07870  Biso   1.000  N
  N104     1.0000 0.85230  0.56830  0.09240  Biso   1.000  N
  N105     1.0000 0.81090  0.55360  0.03950  Biso   1.000  N
  C141     1.0000 0.54490  0.51020  0.44480  Biso   1.000  C
  C142     1.0000 0.59380  0.52300  0.38590  Biso   1.000  C
  H141     1.0000 0.56930  0.54310  0.34810  Biso   1.000  H
  H142     1.0000 0.61310  0.48020  0.37080  Biso   1.000  H
  C143     1.0000 0.66350  0.62910  0.38450  Biso   1.000  C
  H143     1.0000 0.64230  0.65130  0.34850  Biso   1.000  H
  C144     1.0000 0.72860  0.60490  0.46430  Biso   1.000  C
  H144     1.0000 0.76440  0.60730  0.49520  Biso   1.000  H
  N106     1.0000 0.71490  0.65390  0.42130  Biso   1.000  N
  N107     1.0000 0.64770  0.56830  0.40760  Biso   1.000  N
  N108     1.0000 0.68910  0.55360  0.46050  Biso   1.000  N
  C145     1.0000 0.95510  0.44480  0.51020  Biso   1.000  C
  C146     1.0000 0.90620  0.38590  0.52300  Biso   1.000  C
  H145     1.0000 0.93070  0.34810  0.54310  Biso   1.000  H
  H146     1.0000 0.88690  0.37080  0.48020  Biso   1.000  H
  C147     1.0000 0.83650  0.38450  0.62910  Biso   1.000  C
  H147     1.0000 0.85770  0.34850  0.65130  Biso   1.000  H
  C148     1.0000 0.77140  0.46430  0.60490  Biso   1.000  C
  H148     1.0000 0.73560  0.49520  0.60730  Biso   1.000  H
  N109     1.0000 0.78510  0.42130  0.65390  Biso   1.000  N
  N110     1.0000 0.85230  0.40760  0.56830  Biso   1.000  N
  N111     1.0000 0.81090  0.46050  0.55360  Biso   1.000  N
  C149     1.0000 0.54490  0.05520  0.51020  Biso   1.000  C
  C150     1.0000 0.59380  0.11410  0.52300  Biso   1.000  C
  H149     1.0000 0.56930  0.15190  0.54310  Biso   1.000  H
  H150     1.0000 0.61310  0.12920  0.48020  Biso   1.000  H
  C151     1.0000 0.66350  0.11550  0.62910  Biso   1.000  C
  H151     1.0000 0.64230  0.15150  0.65130  Biso   1.000  H
  C152     1.0000 0.72860  0.03570  0.60490  Biso   1.000  C
  H152     1.0000 0.76440  0.00480  0.60730  Biso   1.000  H
  N112     1.0000 0.71490  0.07870  0.65390  Biso   1.000  N
  N113     1.0000 0.64770  0.09240  0.56830  Biso   1.000  N
  N114     1.0000 0.68910  0.03950  0.55360  Biso   1.000  N
  C153     1.0000 0.95510  0.05520  0.98980  Biso   1.000  C
  C154     1.0000 0.90620  0.11410  0.97700  Biso   1.000  C
  H153     1.0000 0.93070  0.15190  0.95690  Biso   1.000  H
  H154     1.0000 0.88690  0.12920  0.01980  Biso   1.000  H
  C155     1.0000 0.83650  0.11550  0.87090  Biso   1.000  C
  H155     1.0000 0.85770  0.15150  0.84870  Biso   1.000  H
  C156     1.0000 0.77140  0.03570  0.89510  Biso   1.000  C
  H156     1.0000 0.73560  0.00480  0.89270  Biso   1.000  H
  N115     1.0000 0.78510  0.07870  0.84610  Biso   1.000  N
  N116     1.0000 0.85230  0.09240  0.93170  Biso   1.000  N
  N117     1.0000 0.81090  0.03950  0.94640  Biso   1.000  N
  C157     1.0000 0.54490  0.44480  0.98980  Biso   1.000  C
  C158     1.0000 0.59380  0.38590  0.97700  Biso   1.000  C
  H157     1.0000 0.56930  0.34810  0.95690  Biso   1.000  H
  H158     1.0000 0.61310  0.37080  0.01980  Biso   1.000  H
  C159     1.0000 0.66350  0.38450  0.87090  Biso   1.000  C
  H159     1.0000 0.64230  0.34850  0.84870  Biso   1.000  H
  C160     1.0000 0.72860  0.46430  0.89510  Biso   1.000  C
  H160     1.0000 0.76440  0.49520  0.89270  Biso   1.000  H
  N118     1.0000 0.71490  0.42130  0.84610  Biso   1.000  N
  N119     1.0000 0.64770  0.40760  0.93170  Biso   1.000  N
  N120     1.0000 0.68910  0.46050  0.94640  Biso   1.000  N
  C161     1.0000 0.44480  0.98980  0.54490  Biso   1.000  C
  C162     1.0000 0.38590  0.97700  0.59380  Biso   1.000  C
  H161     1.0000 0.34810  0.95690  0.56930  Biso   1.000  H
  H162     1.0000 0.37080  0.01980  0.61310  Biso   1.000  H
  C163     1.0000 0.38450  0.87090  0.66350  Biso   1.000  C
  H163     1.0000 0.34850  0.84870  0.64230  Biso   1.000  H
  C164     1.0000 0.46430  0.89510  0.72860  Biso   1.000  C
  H164     1.0000 0.49520  0.89270  0.76440  Biso   1.000  H
  N121     1.0000 0.42130  0.84610  0.71490  Biso   1.000  N
  N122     1.0000 0.40760  0.93170  0.64770  Biso   1.000  N
  N123     1.0000 0.46050  0.94640  0.68910  Biso   1.000  N
  C165     1.0000 0.05520  0.98980  0.95510  Biso   1.000  C
  C166     1.0000 0.11410  0.97700  0.90620  Biso   1.000  C
  H165     1.0000 0.15190  0.95690  0.93070  Biso   1.000  H
  H166     1.0000 0.12920  0.01980  0.88690  Biso   1.000  H
  C167     1.0000 0.11550  0.87090  0.83650  Biso   1.000  C
  H167     1.0000 0.15150  0.84870  0.85770  Biso   1.000  H
  C168     1.0000 0.03570  0.89510  0.77140  Biso   1.000  C
  H168     1.0000 0.00480  0.89270  0.73560  Biso   1.000  H
  N124     1.0000 0.07870  0.84610  0.78510  Biso   1.000  N
  N125     1.0000 0.09240  0.93170  0.85230  Biso   1.000  N
  N126     1.0000 0.03950  0.94640  0.81090  Biso   1.000  N
  C169     1.0000 0.05520  0.51020  0.54490  Biso   1.000  C
  C170     1.0000 0.11410  0.52300  0.59380  Biso   1.000  C
  H169     1.0000 0.15190  0.54310  0.56930  Biso   1.000  H
  H170     1.0000 0.12920  0.48020  0.61310  Biso   1.000  H
  C171     1.0000 0.11550  0.62910  0.66350  Biso   1.000  C
  H171     1.0000 0.15150  0.65130  0.64230  Biso   1.000  H
  C172     1.0000 0.03570  0.60490  0.72860  Biso   1.000  C
  H172     1.0000 0.00480  0.60730  0.76440  Biso   1.000  H
  N127     1.0000 0.07870  0.65390  0.71490  Biso   1.000  N
  N128     1.0000 0.09240  0.56830  0.64770  Biso   1.000  N
  N129     1.0000 0.03950  0.55360  0.68910  Biso   1.000  N
  C173     1.0000 0.44480  0.51020  0.95510  Biso   1.000  C
  C174     1.0000 0.38590  0.52300  0.90620  Biso   1.000  C
  H173     1.0000 0.34810  0.54310  0.93070  Biso   1.000  H
  H174     1.0000 0.37080  0.48020  0.88690  Biso   1.000  H
  C175     1.0000 0.38450  0.62910  0.83650  Biso   1.000  C
  H175     1.0000 0.34850  0.65130  0.85770  Biso   1.000  H
  C176     1.0000 0.46430  0.60490  0.77140  Biso   1.000  C
  H176     1.0000 0.49520  0.60730  0.73560  Biso   1.000  H
  N130     1.0000 0.42130  0.65390  0.78510  Biso   1.000  N
  N131     1.0000 0.40760  0.56830  0.85230  Biso   1.000  N
  N132     1.0000 0.46050  0.55360  0.81090  Biso   1.000  N
  C177     1.0000 0.98980  0.95510  0.05520  Biso   1.000  C
  C178     1.0000 0.97700  0.90620  0.11410  Biso   1.000  C
  H177     1.0000 0.95690  0.93070  0.15190  Biso   1.000  H
  H178     1.0000 0.01980  0.88690  0.12920  Biso   1.000  H
  C179     1.0000 0.87090  0.83650  0.11550  Biso   1.000  C
  H179     1.0000 0.84870  0.85770  0.15150  Biso   1.000  H
  C180     1.0000 0.89510  0.77140  0.03570  Biso   1.000  C
  H180     1.0000 0.89270  0.73560  0.00480  Biso   1.000  H
  N133     1.0000 0.84610  0.78510  0.07870  Biso   1.000  N
  N134     1.0000 0.93170  0.85230  0.09240  Biso   1.000  N
  N135     1.0000 0.94640  0.81090  0.03950  Biso   1.000  N
  C181     1.0000 0.98980  0.54490  0.44480  Biso   1.000  C
  C182     1.0000 0.97700  0.59380  0.38590  Biso   1.000  C
  H181     1.0000 0.95690  0.56930  0.34810  Biso   1.000  H
  H182     1.0000 0.01980  0.61310  0.37080  Biso   1.000  H
  C183     1.0000 0.87090  0.66350  0.38450  Biso   1.000  C
  H183     1.0000 0.84870  0.64230  0.34850  Biso   1.000  H
  C184     1.0000 0.89510  0.72860  0.46430  Biso   1.000  C
  H184     1.0000 0.89270  0.76440  0.49520  Biso   1.000  H
  N136     1.0000 0.84610  0.71490  0.42130  Biso   1.000  N
  N137     1.0000 0.93170  0.64770  0.40760  Biso   1.000  N
  N138     1.0000 0.94640  0.68910  0.46050  Biso   1.000  N
  C185     1.0000 0.51020  0.95510  0.44480  Biso   1.000  C
  C186     1.0000 0.52300  0.90620  0.38590  Biso   1.000  C
  H185     1.0000 0.54310  0.93070  0.34810  Biso   1.000  H
  H186     1.0000 0.48020  0.88690  0.37080  Biso   1.000  H
  C187     1.0000 0.62910  0.83650  0.38450  Biso   1.000  C
  H187     1.0000 0.65130  0.85770  0.34850  Biso   1.000  H
  C188     1.0000 0.60490  0.77140  0.46430  Biso   1.000  C
  H188     1.0000 0.60730  0.73560  0.49520  Biso   1.000  H
  N139     1.0000 0.65390  0.78510  0.42130  Biso   1.000  N
  N140     1.0000 0.56830  0.85230  0.40760  Biso   1.000  N
  N141     1.0000 0.55360  0.81090  0.46050  Biso   1.000  N
  C189     1.0000 0.51020  0.54490  0.05520  Biso   1.000  C
  C190     1.0000 0.52300  0.59380  0.11410  Biso   1.000  C
  H189     1.0000 0.54310  0.56930  0.15190  Biso   1.000  H
  H190     1.0000 0.48020  0.61310  0.12920  Biso   1.000  H
  C191     1.0000 0.62910  0.66350  0.11550  Biso   1.000  C
  H191     1.0000 0.65130  0.64230  0.15150  Biso   1.000  H
  C192     1.0000 0.60490  0.72860  0.03570  Biso   1.000  C
  H192     1.0000 0.60730  0.76440  0.00480  Biso   1.000  H
  N142     1.0000 0.65390  0.71490  0.07870  Biso   1.000  N
  N143     1.0000 0.56830  0.64770  0.09240  Biso   1.000  N
  N144     1.0000 0.55360  0.68910  0.03950  Biso   1.000  N
  Cu1      1.0000 0.56740  0.25000  0.25000  Biso   1.000  Cu
  Cu2      1.0000 0.60660  0.25000  0.25000  Biso   1.000  Cu
  Cu3      1.0000 0.93260  0.25000  0.25000  Biso   1.000  Cu
  Cu4      1.0000 0.89340  0.25000  0.25000  Biso   1.000  Cu
  Cu5      1.0000 0.25000  0.56740  0.25000  Biso   1.000  Cu
  Cu6      1.0000 0.25000  0.60660  0.25000  Biso   1.000  Cu
  Cu7      1.0000 0.25000  0.93260  0.25000  Biso   1.000  Cu
  Cu8      1.0000 0.25000  0.89340  0.25000  Biso   1.000  Cu
  Cu9      1.0000 0.25000  0.25000  0.56740  Biso   1.000  Cu
  Cu10     1.0000 0.25000  0.25000  0.60660  Biso   1.000  Cu
  Cu11     1.0000 0.25000  0.25000  0.93260  Biso   1.000  Cu
  Cu12     1.0000 0.25000  0.25000  0.89340  Biso   1.000  Cu
  Cu13     1.0000 0.43260  0.75000  0.75000  Biso   1.000  Cu
  Cu14     1.0000 0.39340  0.75000  0.75000  Biso   1.000  Cu
  Cu15     1.0000 0.06740  0.75000  0.75000  Biso   1.000  Cu
  Cu16     1.0000 0.10660  0.75000  0.75000  Biso   1.000  Cu
  Cu17     1.0000 0.75000  0.43260  0.75000  Biso   1.000  Cu
  Cu18     1.0000 0.75000  0.39340  0.75000  Biso   1.000  Cu
  Cu19     1.0000 0.75000  0.06740  0.75000  Biso   1.000  Cu
  Cu20     1.0000 0.75000  0.10660  0.75000  Biso   1.000  Cu
  Cu21     1.0000 0.75000  0.75000  0.43260  Biso   1.000  Cu
  Cu22     1.0000 0.75000  0.75000  0.39340  Biso   1.000  Cu
  Cu23     1.0000 0.75000  0.75000  0.06740  Biso   1.000  Cu
  Cu24     1.0000 0.75000  0.75000  0.10660  Biso   1.000  Cu
