data_image0
_cell_length_a       8.589
_cell_length_b       14.02
_cell_length_c       16.606
_cell_angle_alpha    90
_cell_angle_beta     97.19
_cell_angle_gamma    90

_symmetry_space_group_name_H-M    "P 1"
_symmetry_int_tables_number       1

loop_
  _symmetry_equiv_pos_as_xyz
  'x, y, z'

loop_
  _atom_site_label
  _atom_site_occupancy
  _atom_site_fract_x
  _atom_site_fract_y
  _atom_site_fract_z
  _atom_site_thermal_displace_type
  _atom_site_B_iso_or_equiv
  _atom_site_type_symbol
  Zn1      1.0000 0.17309  0.22906  0.65468  Biso   1.000  Zn
  Zn2      1.0000 0.66617  0.40087  0.48445  Biso   1.000  Zn
  Zn3      1.0000 0.53676  0.13505  0.44625  Biso   1.000  Zn
  P1       1.0000 0.83720  0.22568  0.55754  Biso   1.000  P
  H1       1.0000 0.76200  0.21740  0.62500  Biso   1.000  H
  P2       1.0000 0.32810  0.37392  0.54406  Biso   1.000  P
  H2       1.0000 0.27400  0.30800  0.49100  Biso   1.000  H
  P3       1.0000 0.52700  0.29592  0.31777  Biso   1.000  P
  H3       1.0000 0.41200  0.34900  0.26700  Biso   1.000  H
  P4       1.0000 0.66160  0.93750  0.41230  Biso   1.000  P
  O1       1.0000 0.74600  0.16760  0.49110  Biso   1.000  O
  O2       1.0000 0.84360  0.33080  0.53780  Biso   1.000  O
  O3       1.0000 0.00090  0.18520  0.57930  Biso   1.000  O
  O4       1.0000 0.26960  0.34800  0.62380  Biso   1.000  O
  O5       1.0000 0.26150  0.46830  0.51210  Biso   1.000  O
  O6       1.0000 0.50440  0.36940  0.55050  Biso   1.000  O
  O7       1.0000 0.62880  0.36810  0.36930  Biso   1.000  O
  O8       1.0000 0.62100  0.24000  0.26160  Biso   1.000  O
  O9       1.0000 0.43790  0.22990  0.36970  Biso   1.000  O
  O10      1.0000 0.54920  0.01820  0.38470  Biso   1.000  O
  O11      1.0000 0.61640  0.87730  0.47950  Biso   1.000  O
  O12      1.0000 0.67970  0.87580  0.33610  Biso   1.000  O
  P5       1.0000 0.56530  0.91670  0.39170  Biso   1.000  P
  Zn4      1.0000 0.32691  0.72906  0.84532  Biso   1.000  Zn
  Zn5      1.0000 0.83383  0.90087  0.01555  Biso   1.000  Zn
  Zn6      1.0000 0.96324  0.63505  0.05375  Biso   1.000  Zn
  P6       1.0000 0.66280  0.72568  0.94246  Biso   1.000  P
  H4       1.0000 0.73800  0.71740  0.87500  Biso   1.000  H
  P7       1.0000 0.17190  0.87392  0.95594  Biso   1.000  P
  H5       1.0000 0.22600  0.80800  0.00900  Biso   1.000  H
  P8       1.0000 0.97300  0.79592  0.18223  Biso   1.000  P
  H6       1.0000 0.08800  0.84900  0.23300  Biso   1.000  H
  P9       1.0000 0.83840  0.43750  0.08770  Biso   1.000  P
  O13      1.0000 0.75400  0.66760  0.00890  Biso   1.000  O
  O14      1.0000 0.65640  0.83080  0.96220  Biso   1.000  O
  O15      1.0000 0.49910  0.68520  0.92070  Biso   1.000  O
  O16      1.0000 0.23040  0.84800  0.87620  Biso   1.000  O
  O17      1.0000 0.23850  0.96830  0.98790  Biso   1.000  O
  O18      1.0000 0.99560  0.86940  0.94950  Biso   1.000  O
  O19      1.0000 0.87120  0.86810  0.13070  Biso   1.000  O
  O20      1.0000 0.87900  0.74000  0.23840  Biso   1.000  O
  O21      1.0000 0.06210  0.72990  0.13030  Biso   1.000  O
  O22      1.0000 0.95080  0.51820  0.11530  Biso   1.000  O
  O23      1.0000 0.88360  0.37730  0.02050  Biso   1.000  O
  O24      1.0000 0.82030  0.37580  0.16390  Biso   1.000  O
  P10      1.0000 0.93470  0.41670  0.10830  Biso   1.000  P
  Zn7      1.0000 0.82691  0.77094  0.34532  Biso   1.000  Zn
  Zn8      1.0000 0.33383  0.59913  0.51555  Biso   1.000  Zn
  Zn9      1.0000 0.46324  0.86495  0.55375  Biso   1.000  Zn
  P11      1.0000 0.16280  0.77432  0.44246  Biso   1.000  P
  H7       1.0000 0.23800  0.78260  0.37500  Biso   1.000  H
  P12      1.0000 0.67190  0.62608  0.45594  Biso   1.000  P
  H8       1.0000 0.72600  0.69200  0.50900  Biso   1.000  H
  P13      1.0000 0.47300  0.70408  0.68223  Biso   1.000  P
  H9       1.0000 0.58800  0.65100  0.73300  Biso   1.000  H
  P14      1.0000 0.33840  0.06250  0.58770  Biso   1.000  P
  O25      1.0000 0.25400  0.83240  0.50890  Biso   1.000  O
  O26      1.0000 0.15640  0.66920  0.46220  Biso   1.000  O
  O27      1.0000 0.99910  0.81480  0.42070  Biso   1.000  O
  O28      1.0000 0.73040  0.65200  0.37620  Biso   1.000  O
  O29      1.0000 0.73850  0.53170  0.48790  Biso   1.000  O
  O30      1.0000 0.49560  0.63060  0.44950  Biso   1.000  O
  O31      1.0000 0.37120  0.63190  0.63070  Biso   1.000  O
  O32      1.0000 0.37900  0.76000  0.73840  Biso   1.000  O
  O33      1.0000 0.56210  0.77010  0.63030  Biso   1.000  O
  O34      1.0000 0.45080  0.98180  0.61530  Biso   1.000  O
  O35      1.0000 0.38360  0.12270  0.52050  Biso   1.000  O
  O36      1.0000 0.32030  0.12420  0.66390  Biso   1.000  O
  P15      1.0000 0.43470  0.08330  0.60830  Biso   1.000  P
  Zn10     1.0000 0.67309  0.27094  0.15468  Biso   1.000  Zn
  Zn11     1.0000 0.16617  0.09913  0.98445  Biso   1.000  Zn
  Zn12     1.0000 0.03676  0.36495  0.94625  Biso   1.000  Zn
  P16      1.0000 0.33720  0.27432  0.05754  Biso   1.000  P
  H10      1.0000 0.26200  0.28260  0.12500  Biso   1.000  H
  P17      1.0000 0.82810  0.12608  0.04406  Biso   1.000  P
  H11      1.0000 0.77400  0.19200  0.99100  Biso   1.000  H
  P18      1.0000 0.02700  0.20408  0.81777  Biso   1.000  P
  H12      1.0000 0.91200  0.15100  0.76700  Biso   1.000  H
  P19      1.0000 0.16160  0.56250  0.91230  Biso   1.000  P
  O37      1.0000 0.24600  0.33240  0.99110  Biso   1.000  O
  O38      1.0000 0.34360  0.16920  0.03780  Biso   1.000  O
  O39      1.0000 0.50090  0.31480  0.07930  Biso   1.000  O
  O40      1.0000 0.76960  0.15200  0.12380  Biso   1.000  O
  O41      1.0000 0.76150  0.03170  0.01210  Biso   1.000  O
  O42      1.0000 0.00440  0.13060  0.05050  Biso   1.000  O
  O43      1.0000 0.12880  0.13190  0.86930  Biso   1.000  O
  O44      1.0000 0.12100  0.26000  0.76160  Biso   1.000  O
  O45      1.0000 0.93790  0.27010  0.86970  Biso   1.000  O
  O46      1.0000 0.04920  0.48180  0.88470  Biso   1.000  O
  O47      1.0000 0.11640  0.62270  0.97950  Biso   1.000  O
  O48      1.0000 0.17970  0.62420  0.83610  Biso   1.000  O
  P20      1.0000 0.06530  0.58330  0.89170  Biso   1.000  P
