data_image0
_cell_length_a       11.032
_cell_length_b       11.032
_cell_length_c       22.838
_cell_angle_alpha    90
_cell_angle_beta     90
_cell_angle_gamma    120

_symmetry_space_group_name_H-M    "P 1"
_symmetry_int_tables_number       1

loop_
  _symmetry_equiv_pos_as_xyz
  'x, y, z'

loop_
  _atom_site_label
  _atom_site_occupancy
  _atom_site_fract_x
  _atom_site_fract_y
  _atom_site_fract_z
  _atom_site_thermal_displace_type
  _atom_site_B_iso_or_equiv
  _atom_site_type_symbol
  C1       1.0000 0.61430  0.57790  0.62510  Biso   1.000  C
  H1       1.0000 0.69670  0.63410  0.60470  Biso   1.000  H
  C2       1.0000 0.61960  0.58150  0.68600  Biso   1.000  C
  H2       1.0000 0.70360  0.63870  0.70520  Biso   1.000  H
  C3       1.0000 0.42210  0.03640  0.62510  Biso   1.000  C
  H3       1.0000 0.36590  0.06260  0.60470  Biso   1.000  H
  C4       1.0000 0.41850  0.03810  0.68600  Biso   1.000  C
  H4       1.0000 0.36130  0.06490  0.70520  Biso   1.000  H
  C5       1.0000 0.96360  0.38570  0.62510  Biso   1.000  C
  H5       1.0000 0.93740  0.30330  0.60470  Biso   1.000  H
  C6       1.0000 0.96190  0.38040  0.68600  Biso   1.000  C
  H6       1.0000 0.93510  0.29640  0.70520  Biso   1.000  H
  C7       1.0000 0.38570  0.42210  0.62510  Biso   1.000  C
  H7       1.0000 0.30330  0.36590  0.60470  Biso   1.000  H
  C8       1.0000 0.38040  0.41850  0.68600  Biso   1.000  C
  H8       1.0000 0.29640  0.36130  0.70520  Biso   1.000  H
  C9       1.0000 0.57790  0.96360  0.62510  Biso   1.000  C
  H9       1.0000 0.63410  0.93740  0.60470  Biso   1.000  H
  C10      1.0000 0.58150  0.96190  0.68600  Biso   1.000  C
  H10      1.0000 0.63870  0.93510  0.70520  Biso   1.000  H
  C11      1.0000 0.03640  0.61430  0.62510  Biso   1.000  C
  H11      1.0000 0.06260  0.69670  0.60470  Biso   1.000  H
  C12      1.0000 0.03810  0.61960  0.68600  Biso   1.000  C
  H12      1.0000 0.06490  0.70360  0.70520  Biso   1.000  H
  C13      1.0000 0.57790  0.61430  0.87490  Biso   1.000  C
  H13      1.0000 0.63410  0.69670  0.89530  Biso   1.000  H
  C14      1.0000 0.58150  0.61960  0.81400  Biso   1.000  C
  H14      1.0000 0.63870  0.70360  0.79480  Biso   1.000  H
  C15      1.0000 0.03640  0.42210  0.87490  Biso   1.000  C
  H15      1.0000 0.06260  0.36590  0.89530  Biso   1.000  H
  C16      1.0000 0.03810  0.41850  0.81400  Biso   1.000  C
  H16      1.0000 0.06490  0.36130  0.79480  Biso   1.000  H
  C17      1.0000 0.38570  0.96360  0.87490  Biso   1.000  C
  H17      1.0000 0.30330  0.93740  0.89530  Biso   1.000  H
  C18      1.0000 0.38040  0.96190  0.81400  Biso   1.000  C
  H18      1.0000 0.29640  0.93510  0.79480  Biso   1.000  H
  C19      1.0000 0.42210  0.38570  0.87490  Biso   1.000  C
  H19      1.0000 0.36590  0.30330  0.89530  Biso   1.000  H
  C20      1.0000 0.41850  0.38040  0.81400  Biso   1.000  C
  H20      1.0000 0.36130  0.29640  0.79480  Biso   1.000  H
  C21      1.0000 0.96360  0.57790  0.87490  Biso   1.000  C
  H21      1.0000 0.93740  0.63410  0.89530  Biso   1.000  H
  C22      1.0000 0.96190  0.58150  0.81400  Biso   1.000  C
  H22      1.0000 0.93510  0.63870  0.79480  Biso   1.000  H
  C23      1.0000 0.61430  0.03640  0.87490  Biso   1.000  C
  H23      1.0000 0.69670  0.06260  0.89530  Biso   1.000  H
  C24      1.0000 0.61960  0.03810  0.81400  Biso   1.000  C
  H24      1.0000 0.70360  0.06490  0.79480  Biso   1.000  H
  C25      1.0000 0.38570  0.42210  0.37490  Biso   1.000  C
  H25      1.0000 0.30330  0.36590  0.39530  Biso   1.000  H
  C26      1.0000 0.38040  0.41850  0.31400  Biso   1.000  C
  H26      1.0000 0.29640  0.36130  0.29480  Biso   1.000  H
  C27      1.0000 0.57790  0.96360  0.37490  Biso   1.000  C
  H27      1.0000 0.63410  0.93740  0.39530  Biso   1.000  H
  C28      1.0000 0.58150  0.96190  0.31400  Biso   1.000  C
  H28      1.0000 0.63870  0.93510  0.29480  Biso   1.000  H
  C29      1.0000 0.03640  0.61430  0.37490  Biso   1.000  C
  H29      1.0000 0.06260  0.69670  0.39530  Biso   1.000  H
  C30      1.0000 0.03810  0.61960  0.31400  Biso   1.000  C
  H30      1.0000 0.06490  0.70360  0.29480  Biso   1.000  H
  C31      1.0000 0.61430  0.57790  0.37490  Biso   1.000  C
  H31      1.0000 0.69670  0.63410  0.39530  Biso   1.000  H
  C32      1.0000 0.61960  0.58150  0.31400  Biso   1.000  C
  H32      1.0000 0.70360  0.63870  0.29480  Biso   1.000  H
  C33      1.0000 0.42210  0.03640  0.37490  Biso   1.000  C
  H33      1.0000 0.36590  0.06260  0.39530  Biso   1.000  H
  C34      1.0000 0.41850  0.03810  0.31400  Biso   1.000  C
  H34      1.0000 0.36130  0.06490  0.29480  Biso   1.000  H
  C35      1.0000 0.96360  0.38570  0.37490  Biso   1.000  C
  H35      1.0000 0.93740  0.30330  0.39530  Biso   1.000  H
  C36      1.0000 0.96190  0.38040  0.31400  Biso   1.000  C
  H36      1.0000 0.93510  0.29640  0.29480  Biso   1.000  H
  C37      1.0000 0.42210  0.38570  0.12510  Biso   1.000  C
  H37      1.0000 0.36590  0.30330  0.10470  Biso   1.000  H
  C38      1.0000 0.41850  0.38040  0.18600  Biso   1.000  C
  H38      1.0000 0.36130  0.29640  0.20520  Biso   1.000  H
  C39      1.0000 0.96360  0.57790  0.12510  Biso   1.000  C
  H39      1.0000 0.93740  0.63410  0.10470  Biso   1.000  H
  C40      1.0000 0.96190  0.58150  0.18600  Biso   1.000  C
  H40      1.0000 0.93510  0.63870  0.20520  Biso   1.000  H
  C41      1.0000 0.61430  0.03640  0.12510  Biso   1.000  C
  H41      1.0000 0.69670  0.06260  0.10470  Biso   1.000  H
  C42      1.0000 0.61960  0.03810  0.18600  Biso   1.000  C
  H42      1.0000 0.70360  0.06490  0.20520  Biso   1.000  H
  C43      1.0000 0.57790  0.61430  0.12510  Biso   1.000  C
  H43      1.0000 0.63410  0.69670  0.10470  Biso   1.000  H
  C44      1.0000 0.58150  0.61960  0.18600  Biso   1.000  C
  H44      1.0000 0.63870  0.70360  0.20520  Biso   1.000  H
  C45      1.0000 0.03640  0.42210  0.12510  Biso   1.000  C
  H45      1.0000 0.06260  0.36590  0.10470  Biso   1.000  H
  C46      1.0000 0.03810  0.41850  0.18600  Biso   1.000  C
  H46      1.0000 0.06490  0.36130  0.20520  Biso   1.000  H
  C47      1.0000 0.38570  0.96360  0.12510  Biso   1.000  C
  H47      1.0000 0.30330  0.93740  0.10470  Biso   1.000  H
  C48      1.0000 0.38040  0.96190  0.18600  Biso   1.000  C
  H48      1.0000 0.29640  0.93510  0.20520  Biso   1.000  H
  Co1      1.0000 0.50000  0.50000  0.50000  Biso   1.000  Co
  Co2      1.0000 0.50000  0.00000  0.50000  Biso   1.000  Co
  Co3      1.0000 0.00000  0.50000  0.50000  Biso   1.000  Co
  Co4      1.0000 0.50000  0.50000  0.00000  Biso   1.000  Co
  Co5      1.0000 0.00000  0.50000  0.00000  Biso   1.000  Co
  Co6      1.0000 0.50000  0.00000  0.00000  Biso   1.000  Co
  P1       1.0000 0.33333  0.66667  0.47793  Biso   1.000  P
  P2       1.0000 0.66667  0.33333  0.47793  Biso   1.000  P
  P3       1.0000 0.66667  0.33333  0.02207  Biso   1.000  P
  P4       1.0000 0.33333  0.66667  0.02207  Biso   1.000  P
  P5       1.0000 0.66667  0.33333  0.52207  Biso   1.000  P
  P6       1.0000 0.33333  0.66667  0.52207  Biso   1.000  P
  P7       1.0000 0.33333  0.66667  0.97793  Biso   1.000  P
  P8       1.0000 0.66667  0.33333  0.97793  Biso   1.000  P
  O1       1.0000 0.33740  0.53680  0.50000  Biso   1.000  O
  O2       1.0000 0.46320  0.80060  0.50000  Biso   1.000  O
  O3       1.0000 0.19940  0.66260  0.50000  Biso   1.000  O
  O4       1.0000 0.66260  0.46320  0.50000  Biso   1.000  O
  O5       1.0000 0.53680  0.19940  0.50000  Biso   1.000  O
  O6       1.0000 0.80060  0.33740  0.50000  Biso   1.000  O
  O7       1.0000 0.53680  0.33740  0.00000  Biso   1.000  O
  O8       1.0000 0.80060  0.46320  0.00000  Biso   1.000  O
  O9       1.0000 0.66260  0.19940  0.00000  Biso   1.000  O
  O10      1.0000 0.46320  0.66260  0.00000  Biso   1.000  O
  O11      1.0000 0.19940  0.53680  0.00000  Biso   1.000  O
  O12      1.0000 0.33740  0.80060  0.00000  Biso   1.000  O
  N1       1.0000 0.50000  0.50000  0.59480  Biso   1.000  N
  C49      1.0000 0.50000  0.50000  0.71740  Biso   1.000  C
  N2       1.0000 0.50000  0.00000  0.59480  Biso   1.000  N
  C50      1.0000 0.50000  0.00000  0.71740  Biso   1.000  C
  N3       1.0000 0.00000  0.50000  0.59480  Biso   1.000  N
  C51      1.0000 0.00000  0.50000  0.71740  Biso   1.000  C
  N4       1.0000 0.50000  0.50000  0.90520  Biso   1.000  N
  C52      1.0000 0.50000  0.50000  0.78260  Biso   1.000  C
  N5       1.0000 0.00000  0.50000  0.90520  Biso   1.000  N
  C53      1.0000 0.00000  0.50000  0.78260  Biso   1.000  C
  N6       1.0000 0.50000  0.00000  0.90520  Biso   1.000  N
  C54      1.0000 0.50000  0.00000  0.78260  Biso   1.000  C
  N7       1.0000 0.50000  0.50000  0.40520  Biso   1.000  N
  C55      1.0000 0.50000  0.50000  0.28260  Biso   1.000  C
  N8       1.0000 0.50000  0.00000  0.40520  Biso   1.000  N
  C56      1.0000 0.50000  0.00000  0.28260  Biso   1.000  C
  N9       1.0000 0.00000  0.50000  0.40520  Biso   1.000  N
  C57      1.0000 0.00000  0.50000  0.28260  Biso   1.000  C
  N10      1.0000 0.50000  0.50000  0.09480  Biso   1.000  N
  C58      1.0000 0.50000  0.50000  0.21740  Biso   1.000  C
  N11      1.0000 0.00000  0.50000  0.09480  Biso   1.000  N
  C59      1.0000 0.00000  0.50000  0.21740  Biso   1.000  C
  N12      1.0000 0.50000  0.00000  0.09480  Biso   1.000  N
  C60      1.0000 0.50000  0.00000  0.21740  Biso   1.000  C
