data_image0
_cell_length_a       20.208
_cell_length_b       20.208
_cell_length_c       20.208
_cell_angle_alpha    90
_cell_angle_beta     90
_cell_angle_gamma    90

_symmetry_space_group_name_H-M    "P 1"
_symmetry_int_tables_number       1

loop_
  _symmetry_equiv_pos_as_xyz
  'x, y, z'

loop_
  _atom_site_label
  _atom_site_occupancy
  _atom_site_fract_x
  _atom_site_fract_y
  _atom_site_fract_z
  _atom_site_thermal_displace_type
  _atom_site_B_iso_or_equiv
  _atom_site_type_symbol
  N1       1.0000 0.46630  0.36160  0.06760  Biso   1.000  N
  N2       1.0000 0.44510  0.32110  0.11310  Biso   1.000  N
  C1       1.0000 0.44180  0.17100  0.26470  Biso   1.000  C
  H1       1.0000 0.40130  0.15370  0.27780  Biso   1.000  H
  O1       1.0000 0.44360  0.35660  0.07010  Biso   1.000  O
  N3       1.0000 0.53370  0.63840  0.06760  Biso   1.000  N
  N4       1.0000 0.55490  0.67890  0.11310  Biso   1.000  N
  C2       1.0000 0.55820  0.82900  0.26470  Biso   1.000  C
  H2       1.0000 0.59870  0.84630  0.27780  Biso   1.000  H
  O2       1.0000 0.55640  0.64340  0.07010  Biso   1.000  O
  N5       1.0000 0.53370  0.36160  0.93240  Biso   1.000  N
  N6       1.0000 0.55490  0.32110  0.88690  Biso   1.000  N
  C3       1.0000 0.55820  0.17100  0.73530  Biso   1.000  C
  H3       1.0000 0.59870  0.15370  0.72220  Biso   1.000  H
  O3       1.0000 0.55640  0.35660  0.92990  Biso   1.000  O
  N7       1.0000 0.46630  0.63840  0.93240  Biso   1.000  N
  N8       1.0000 0.44510  0.67890  0.88690  Biso   1.000  N
  C4       1.0000 0.44180  0.82900  0.73530  Biso   1.000  C
  H4       1.0000 0.40130  0.84630  0.72220  Biso   1.000  H
  O4       1.0000 0.44360  0.64340  0.92990  Biso   1.000  O
  N9       1.0000 0.06760  0.46630  0.36160  Biso   1.000  N
  N10      1.0000 0.11310  0.44510  0.32110  Biso   1.000  N
  C5       1.0000 0.26470  0.44180  0.17100  Biso   1.000  C
  H5       1.0000 0.27780  0.40130  0.15370  Biso   1.000  H
  O5       1.0000 0.07010  0.44360  0.35660  Biso   1.000  O
  N11      1.0000 0.06760  0.53370  0.63840  Biso   1.000  N
  N12      1.0000 0.11310  0.55490  0.67890  Biso   1.000  N
  C6       1.0000 0.26470  0.55820  0.82900  Biso   1.000  C
  H6       1.0000 0.27780  0.59870  0.84630  Biso   1.000  H
  O6       1.0000 0.07010  0.55640  0.64340  Biso   1.000  O
  N13      1.0000 0.93240  0.53370  0.36160  Biso   1.000  N
  N14      1.0000 0.88690  0.55490  0.32110  Biso   1.000  N
  C7       1.0000 0.73530  0.55820  0.17100  Biso   1.000  C
  H7       1.0000 0.72220  0.59870  0.15370  Biso   1.000  H
  O7       1.0000 0.92990  0.55640  0.35660  Biso   1.000  O
  N15      1.0000 0.93240  0.46630  0.63840  Biso   1.000  N
  N16      1.0000 0.88690  0.44510  0.67890  Biso   1.000  N
  C8       1.0000 0.73530  0.44180  0.82900  Biso   1.000  C
  H8       1.0000 0.72220  0.40130  0.84630  Biso   1.000  H
  O8       1.0000 0.92990  0.44360  0.64340  Biso   1.000  O
  N17      1.0000 0.36160  0.06760  0.46630  Biso   1.000  N
  N18      1.0000 0.32110  0.11310  0.44510  Biso   1.000  N
  C9       1.0000 0.17100  0.26470  0.44180  Biso   1.000  C
  H9       1.0000 0.15370  0.27780  0.40130  Biso   1.000  H
  O9       1.0000 0.35660  0.07010  0.44360  Biso   1.000  O
  N19      1.0000 0.63840  0.06760  0.53370  Biso   1.000  N
  N20      1.0000 0.67890  0.11310  0.55490  Biso   1.000  N
  C10      1.0000 0.82900  0.26470  0.55820  Biso   1.000  C
  H10      1.0000 0.84630  0.27780  0.59870  Biso   1.000  H
  O10      1.0000 0.64340  0.07010  0.55640  Biso   1.000  O
  N21      1.0000 0.36160  0.93240  0.53370  Biso   1.000  N
  N22      1.0000 0.32110  0.88690  0.55490  Biso   1.000  N
  C11      1.0000 0.17100  0.73530  0.55820  Biso   1.000  C
  H11      1.0000 0.15370  0.72220  0.59870  Biso   1.000  H
  O11      1.0000 0.35660  0.92990  0.55640  Biso   1.000  O
  N23      1.0000 0.63840  0.93240  0.46630  Biso   1.000  N
  N24      1.0000 0.67890  0.88690  0.44510  Biso   1.000  N
  C12      1.0000 0.82900  0.73530  0.44180  Biso   1.000  C
  H12      1.0000 0.84630  0.72220  0.40130  Biso   1.000  H
  O12      1.0000 0.64340  0.92990  0.44360  Biso   1.000  O
  N25      1.0000 0.36160  0.46630  0.93240  Biso   1.000  N
  N26      1.0000 0.32110  0.44510  0.88690  Biso   1.000  N
  C13      1.0000 0.17100  0.44180  0.73530  Biso   1.000  C
  H13      1.0000 0.15370  0.40130  0.72220  Biso   1.000  H
  O13      1.0000 0.35660  0.44360  0.92990  Biso   1.000  O
  N27      1.0000 0.63840  0.53370  0.93240  Biso   1.000  N
  N28      1.0000 0.67890  0.55490  0.88690  Biso   1.000  N
  C14      1.0000 0.82900  0.55820  0.73530  Biso   1.000  C
  H14      1.0000 0.84630  0.59870  0.72220  Biso   1.000  H
  O14      1.0000 0.64340  0.55640  0.92990  Biso   1.000  O
  N29      1.0000 0.36160  0.53370  0.06760  Biso   1.000  N
  N30      1.0000 0.32110  0.55490  0.11310  Biso   1.000  N
  C15      1.0000 0.17100  0.55820  0.26470  Biso   1.000  C
  H15      1.0000 0.15370  0.59870  0.27780  Biso   1.000  H
  O15      1.0000 0.35660  0.55640  0.07010  Biso   1.000  O
  N31      1.0000 0.63840  0.46630  0.06760  Biso   1.000  N
  N32      1.0000 0.67890  0.44510  0.11310  Biso   1.000  N
  C16      1.0000 0.82900  0.44180  0.26470  Biso   1.000  C
  H16      1.0000 0.84630  0.40130  0.27780  Biso   1.000  H
  O16      1.0000 0.64340  0.44360  0.07010  Biso   1.000  O
  N33      1.0000 0.46630  0.06760  0.63840  Biso   1.000  N
  N34      1.0000 0.44510  0.11310  0.67890  Biso   1.000  N
  C17      1.0000 0.44180  0.26470  0.82900  Biso   1.000  C
  H17      1.0000 0.40130  0.27780  0.84630  Biso   1.000  H
  O17      1.0000 0.44360  0.07010  0.64340  Biso   1.000  O
  N35      1.0000 0.53370  0.06760  0.36160  Biso   1.000  N
  N36      1.0000 0.55490  0.11310  0.32110  Biso   1.000  N
  C18      1.0000 0.55820  0.26470  0.17100  Biso   1.000  C
  H18      1.0000 0.59870  0.27780  0.15370  Biso   1.000  H
  O18      1.0000 0.55640  0.07010  0.35660  Biso   1.000  O
  N37      1.0000 0.53370  0.93240  0.63840  Biso   1.000  N
  N38      1.0000 0.55490  0.88690  0.67890  Biso   1.000  N
  C19      1.0000 0.55820  0.73530  0.82900  Biso   1.000  C
  H19      1.0000 0.59870  0.72220  0.84630  Biso   1.000  H
  O19      1.0000 0.55640  0.92990  0.64340  Biso   1.000  O
  N39      1.0000 0.46630  0.93240  0.36160  Biso   1.000  N
  N40      1.0000 0.44510  0.88690  0.32110  Biso   1.000  N
  C20      1.0000 0.44180  0.73530  0.17100  Biso   1.000  C
  H20      1.0000 0.40130  0.72220  0.15370  Biso   1.000  H
  O20      1.0000 0.44360  0.92990  0.35660  Biso   1.000  O
  N41      1.0000 0.06760  0.36160  0.53370  Biso   1.000  N
  N42      1.0000 0.11310  0.32110  0.55490  Biso   1.000  N
  C21      1.0000 0.26470  0.17100  0.55820  Biso   1.000  C
  H21      1.0000 0.27780  0.15370  0.59870  Biso   1.000  H
  O21      1.0000 0.07010  0.35660  0.55640  Biso   1.000  O
  N43      1.0000 0.06760  0.63840  0.46630  Biso   1.000  N
  N44      1.0000 0.11310  0.67890  0.44510  Biso   1.000  N
  C22      1.0000 0.26470  0.82900  0.44180  Biso   1.000  C
  H22      1.0000 0.27780  0.84630  0.40130  Biso   1.000  H
  O22      1.0000 0.07010  0.64340  0.44360  Biso   1.000  O
  N45      1.0000 0.93240  0.36160  0.46630  Biso   1.000  N
  N46      1.0000 0.88690  0.32110  0.44510  Biso   1.000  N
  C23      1.0000 0.73530  0.17100  0.44180  Biso   1.000  C
  H23      1.0000 0.72220  0.15370  0.40130  Biso   1.000  H
  O23      1.0000 0.92990  0.35660  0.44360  Biso   1.000  O
  N47      1.0000 0.93240  0.63840  0.53370  Biso   1.000  N
  N48      1.0000 0.88690  0.67890  0.55490  Biso   1.000  N
  C24      1.0000 0.73530  0.82900  0.55820  Biso   1.000  C
  H24      1.0000 0.72220  0.84630  0.59870  Biso   1.000  H
  O24      1.0000 0.92990  0.64340  0.55640  Biso   1.000  O
  N49      1.0000 0.53370  0.63840  0.93240  Biso   1.000  N
  N50      1.0000 0.55490  0.67890  0.88690  Biso   1.000  N
  C25      1.0000 0.55820  0.82900  0.73530  Biso   1.000  C
  H25      1.0000 0.59870  0.84630  0.72220  Biso   1.000  H
  O25      1.0000 0.55640  0.64340  0.92990  Biso   1.000  O
  N51      1.0000 0.46630  0.36160  0.93240  Biso   1.000  N
  N52      1.0000 0.44510  0.32110  0.88690  Biso   1.000  N
  C26      1.0000 0.44180  0.17100  0.73530  Biso   1.000  C
  H26      1.0000 0.40130  0.15370  0.72220  Biso   1.000  H
  O26      1.0000 0.44360  0.35660  0.92990  Biso   1.000  O
  N53      1.0000 0.46630  0.63840  0.06760  Biso   1.000  N
  N54      1.0000 0.44510  0.67890  0.11310  Biso   1.000  N
  C27      1.0000 0.44180  0.82900  0.26470  Biso   1.000  C
  H27      1.0000 0.40130  0.84630  0.27780  Biso   1.000  H
  O27      1.0000 0.44360  0.64340  0.07010  Biso   1.000  O
  N55      1.0000 0.53370  0.36160  0.06760  Biso   1.000  N
  N56      1.0000 0.55490  0.32110  0.11310  Biso   1.000  N
  C28      1.0000 0.55820  0.17100  0.26470  Biso   1.000  C
  H28      1.0000 0.59870  0.15370  0.27780  Biso   1.000  H
  O28      1.0000 0.55640  0.35660  0.07010  Biso   1.000  O
  N57      1.0000 0.93240  0.53370  0.63840  Biso   1.000  N
  N58      1.0000 0.88690  0.55490  0.67890  Biso   1.000  N
  C29      1.0000 0.73530  0.55820  0.82900  Biso   1.000  C
  H29      1.0000 0.72220  0.59870  0.84630  Biso   1.000  H
  O29      1.0000 0.92990  0.55640  0.64340  Biso   1.000  O
  N59      1.0000 0.93240  0.46630  0.36160  Biso   1.000  N
  N60      1.0000 0.88690  0.44510  0.32110  Biso   1.000  N
  C30      1.0000 0.73530  0.44180  0.17100  Biso   1.000  C
  H30      1.0000 0.72220  0.40130  0.15370  Biso   1.000  H
  O30      1.0000 0.92990  0.44360  0.35660  Biso   1.000  O
  N61      1.0000 0.06760  0.46630  0.63840  Biso   1.000  N
  N62      1.0000 0.11310  0.44510  0.67890  Biso   1.000  N
  C31      1.0000 0.26470  0.44180  0.82900  Biso   1.000  C
  H31      1.0000 0.27780  0.40130  0.84630  Biso   1.000  H
  O31      1.0000 0.07010  0.44360  0.64340  Biso   1.000  O
  N63      1.0000 0.06760  0.53370  0.36160  Biso   1.000  N
  N64      1.0000 0.11310  0.55490  0.32110  Biso   1.000  N
  C32      1.0000 0.26470  0.55820  0.17100  Biso   1.000  C
  H32      1.0000 0.27780  0.59870  0.15370  Biso   1.000  H
  O32      1.0000 0.07010  0.55640  0.35660  Biso   1.000  O
  N65      1.0000 0.63840  0.93240  0.53370  Biso   1.000  N
  N66      1.0000 0.67890  0.88690  0.55490  Biso   1.000  N
  C33      1.0000 0.82900  0.73530  0.55820  Biso   1.000  C
  H33      1.0000 0.84630  0.72220  0.59870  Biso   1.000  H
  O33      1.0000 0.64340  0.92990  0.55640  Biso   1.000  O
  N67      1.0000 0.36160  0.93240  0.46630  Biso   1.000  N
  N68      1.0000 0.32110  0.88690  0.44510  Biso   1.000  N
  C34      1.0000 0.17100  0.73530  0.44180  Biso   1.000  C
  H34      1.0000 0.15370  0.72220  0.40130  Biso   1.000  H
  O34      1.0000 0.35660  0.92990  0.44360  Biso   1.000  O
  N69      1.0000 0.63840  0.06760  0.46630  Biso   1.000  N
  N70      1.0000 0.67890  0.11310  0.44510  Biso   1.000  N
  C35      1.0000 0.82900  0.26470  0.44180  Biso   1.000  C
  H35      1.0000 0.84630  0.27780  0.40130  Biso   1.000  H
  O35      1.0000 0.64340  0.07010  0.44360  Biso   1.000  O
  N71      1.0000 0.36160  0.06760  0.53370  Biso   1.000  N
  N72      1.0000 0.32110  0.11310  0.55490  Biso   1.000  N
  C36      1.0000 0.17100  0.26470  0.55820  Biso   1.000  C
  H36      1.0000 0.15370  0.27780  0.59870  Biso   1.000  H
  O36      1.0000 0.35660  0.07010  0.55640  Biso   1.000  O
  N73      1.0000 0.63840  0.53370  0.06760  Biso   1.000  N
  N74      1.0000 0.67890  0.55490  0.11310  Biso   1.000  N
  C37      1.0000 0.82900  0.55820  0.26470  Biso   1.000  C
  H37      1.0000 0.84630  0.59870  0.27780  Biso   1.000  H
  O37      1.0000 0.64340  0.55640  0.07010  Biso   1.000  O
  N75      1.0000 0.36160  0.46630  0.06760  Biso   1.000  N
  N76      1.0000 0.32110  0.44510  0.11310  Biso   1.000  N
  C38      1.0000 0.17100  0.44180  0.26470  Biso   1.000  C
  H38      1.0000 0.15370  0.40130  0.27780  Biso   1.000  H
  O38      1.0000 0.35660  0.44360  0.07010  Biso   1.000  O
  N77      1.0000 0.63840  0.46630  0.93240  Biso   1.000  N
  N78      1.0000 0.67890  0.44510  0.88690  Biso   1.000  N
  C39      1.0000 0.82900  0.44180  0.73530  Biso   1.000  C
  H39      1.0000 0.84630  0.40130  0.72220  Biso   1.000  H
  O39      1.0000 0.64340  0.44360  0.92990  Biso   1.000  O
  N79      1.0000 0.36160  0.53370  0.93240  Biso   1.000  N
  N80      1.0000 0.32110  0.55490  0.88690  Biso   1.000  N
  C40      1.0000 0.17100  0.55820  0.73530  Biso   1.000  C
  H40      1.0000 0.15370  0.59870  0.72220  Biso   1.000  H
  O40      1.0000 0.35660  0.55640  0.92990  Biso   1.000  O
  N81      1.0000 0.53370  0.93240  0.36160  Biso   1.000  N
  N82      1.0000 0.55490  0.88690  0.32110  Biso   1.000  N
  C41      1.0000 0.55820  0.73530  0.17100  Biso   1.000  C
  H41      1.0000 0.59870  0.72220  0.15370  Biso   1.000  H
  O41      1.0000 0.55640  0.92990  0.35660  Biso   1.000  O
  N83      1.0000 0.46630  0.93240  0.63840  Biso   1.000  N
  N84      1.0000 0.44510  0.88690  0.67890  Biso   1.000  N
  C42      1.0000 0.44180  0.73530  0.82900  Biso   1.000  C
  H42      1.0000 0.40130  0.72220  0.84630  Biso   1.000  H
  O42      1.0000 0.44360  0.92990  0.64340  Biso   1.000  O
  N85      1.0000 0.46630  0.06760  0.36160  Biso   1.000  N
  N86      1.0000 0.44510  0.11310  0.32110  Biso   1.000  N
  C43      1.0000 0.44180  0.26470  0.17100  Biso   1.000  C
  H43      1.0000 0.40130  0.27780  0.15370  Biso   1.000  H
  O43      1.0000 0.44360  0.07010  0.35660  Biso   1.000  O
  N87      1.0000 0.53370  0.06760  0.63840  Biso   1.000  N
  N88      1.0000 0.55490  0.11310  0.67890  Biso   1.000  N
  C44      1.0000 0.55820  0.26470  0.82900  Biso   1.000  C
  H44      1.0000 0.59870  0.27780  0.84630  Biso   1.000  H
  O44      1.0000 0.55640  0.07010  0.64340  Biso   1.000  O
  N89      1.0000 0.93240  0.63840  0.46630  Biso   1.000  N
  N90      1.0000 0.88690  0.67890  0.44510  Biso   1.000  N
  C45      1.0000 0.73530  0.82900  0.44180  Biso   1.000  C
  H45      1.0000 0.72220  0.84630  0.40130  Biso   1.000  H
  O45      1.0000 0.92990  0.64340  0.44360  Biso   1.000  O
  N91      1.0000 0.93240  0.36160  0.53370  Biso   1.000  N
  N92      1.0000 0.88690  0.32110  0.55490  Biso   1.000  N
  C46      1.0000 0.73530  0.17100  0.55820  Biso   1.000  C
  H46      1.0000 0.72220  0.15370  0.59870  Biso   1.000  H
  O46      1.0000 0.92990  0.35660  0.55640  Biso   1.000  O
  N93      1.0000 0.06760  0.63840  0.53370  Biso   1.000  N
  N94      1.0000 0.11310  0.67890  0.55490  Biso   1.000  N
  C47      1.0000 0.26470  0.82900  0.55820  Biso   1.000  C
  H47      1.0000 0.27780  0.84630  0.59870  Biso   1.000  H
  O47      1.0000 0.07010  0.64340  0.55640  Biso   1.000  O
  N95      1.0000 0.06760  0.36160  0.46630  Biso   1.000  N
  N96      1.0000 0.11310  0.32110  0.44510  Biso   1.000  N
  C48      1.0000 0.26470  0.17100  0.44180  Biso   1.000  C
  H48      1.0000 0.27780  0.15370  0.40130  Biso   1.000  H
  O48      1.0000 0.07010  0.35660  0.44360  Biso   1.000  O
  Cu1      1.0000 0.41156  0.41156  0.00000  Biso   1.000  Cu
  Cu2      1.0000 0.58844  0.58844  0.00000  Biso   1.000  Cu
  Cu3      1.0000 0.58844  0.41156  0.00000  Biso   1.000  Cu
  Cu4      1.0000 0.41156  0.58844  0.00000  Biso   1.000  Cu
  Cu5      1.0000 0.00000  0.41156  0.41156  Biso   1.000  Cu
  Cu6      1.0000 0.00000  0.58844  0.58844  Biso   1.000  Cu
  Cu7      1.0000 0.00000  0.58844  0.41156  Biso   1.000  Cu
  Cu8      1.0000 0.00000  0.41156  0.58844  Biso   1.000  Cu
  Cu9      1.0000 0.41156  0.00000  0.41156  Biso   1.000  Cu
  Cu10     1.0000 0.58844  0.00000  0.58844  Biso   1.000  Cu
  Cu11     1.0000 0.41156  0.00000  0.58844  Biso   1.000  Cu
  Cu12     1.0000 0.58844  0.00000  0.41156  Biso   1.000  Cu
  Cl1      1.0000 0.50000  0.50000  0.00000  Biso   1.000  Cl
  Cl2      1.0000 0.00000  0.50000  0.50000  Biso   1.000  Cl
  Cl3      1.0000 0.50000  0.00000  0.50000  Biso   1.000  Cl
  C49      1.0000 0.50000  0.24660  0.19380  Biso   1.000  C
  C50      1.0000 0.50000  0.29320  0.14410  Biso   1.000  C
  C51      1.0000 0.50000  0.33790  0.09030  Biso   1.000  C
  C52      1.0000 0.50000  0.75340  0.19380  Biso   1.000  C
  C53      1.0000 0.50000  0.70680  0.14410  Biso   1.000  C
  C54      1.0000 0.50000  0.66210  0.09030  Biso   1.000  C
  C55      1.0000 0.50000  0.24660  0.80620  Biso   1.000  C
  C56      1.0000 0.50000  0.29320  0.85590  Biso   1.000  C
  C57      1.0000 0.50000  0.33790  0.90970  Biso   1.000  C
  C58      1.0000 0.50000  0.75340  0.80620  Biso   1.000  C
  C59      1.0000 0.50000  0.70680  0.85590  Biso   1.000  C
  C60      1.0000 0.50000  0.66210  0.90970  Biso   1.000  C
  C61      1.0000 0.19380  0.50000  0.24660  Biso   1.000  C
  C62      1.0000 0.14410  0.50000  0.29320  Biso   1.000  C
  C63      1.0000 0.09030  0.50000  0.33790  Biso   1.000  C
  C64      1.0000 0.19380  0.50000  0.75340  Biso   1.000  C
  C65      1.0000 0.14410  0.50000  0.70680  Biso   1.000  C
  C66      1.0000 0.09030  0.50000  0.66210  Biso   1.000  C
  C67      1.0000 0.80620  0.50000  0.24660  Biso   1.000  C
  C68      1.0000 0.85590  0.50000  0.29320  Biso   1.000  C
  C69      1.0000 0.90970  0.50000  0.33790  Biso   1.000  C
  C70      1.0000 0.80620  0.50000  0.75340  Biso   1.000  C
  C71      1.0000 0.85590  0.50000  0.70680  Biso   1.000  C
  C72      1.0000 0.90970  0.50000  0.66210  Biso   1.000  C
  C73      1.0000 0.24660  0.19380  0.50000  Biso   1.000  C
  C74      1.0000 0.29320  0.14410  0.50000  Biso   1.000  C
  C75      1.0000 0.33790  0.09030  0.50000  Biso   1.000  C
  C76      1.0000 0.75340  0.19380  0.50000  Biso   1.000  C
  C77      1.0000 0.70680  0.14410  0.50000  Biso   1.000  C
  C78      1.0000 0.66210  0.09030  0.50000  Biso   1.000  C
  C79      1.0000 0.24660  0.80620  0.50000  Biso   1.000  C
  C80      1.0000 0.29320  0.85590  0.50000  Biso   1.000  C
  C81      1.0000 0.33790  0.90970  0.50000  Biso   1.000  C
  C82      1.0000 0.75340  0.80620  0.50000  Biso   1.000  C
  C83      1.0000 0.70680  0.85590  0.50000  Biso   1.000  C
  C84      1.0000 0.66210  0.90970  0.50000  Biso   1.000  C
  C85      1.0000 0.24660  0.50000  0.80620  Biso   1.000  C
  C86      1.0000 0.29320  0.50000  0.85590  Biso   1.000  C
  C87      1.0000 0.33790  0.50000  0.90970  Biso   1.000  C
  C88      1.0000 0.75340  0.50000  0.80620  Biso   1.000  C
  C89      1.0000 0.70680  0.50000  0.85590  Biso   1.000  C
  C90      1.0000 0.66210  0.50000  0.90970  Biso   1.000  C
  C91      1.0000 0.24660  0.50000  0.19380  Biso   1.000  C
  C92      1.0000 0.29320  0.50000  0.14410  Biso   1.000  C
  C93      1.0000 0.33790  0.50000  0.09030  Biso   1.000  C
  C94      1.0000 0.75340  0.50000  0.19380  Biso   1.000  C
  C95      1.0000 0.70680  0.50000  0.14410  Biso   1.000  C
  C96      1.0000 0.66210  0.50000  0.09030  Biso   1.000  C
  C97      1.0000 0.50000  0.19380  0.75340  Biso   1.000  C
  C98      1.0000 0.50000  0.14410  0.70680  Biso   1.000  C
  C99      1.0000 0.50000  0.09030  0.66210  Biso   1.000  C
  C100     1.0000 0.50000  0.19380  0.24660  Biso   1.000  C
  C101     1.0000 0.50000  0.14410  0.29320  Biso   1.000  C
  C102     1.0000 0.50000  0.09030  0.33790  Biso   1.000  C
  C103     1.0000 0.50000  0.80620  0.75340  Biso   1.000  C
  C104     1.0000 0.50000  0.85590  0.70680  Biso   1.000  C
  C105     1.0000 0.50000  0.90970  0.66210  Biso   1.000  C
  C106     1.0000 0.50000  0.80620  0.24660  Biso   1.000  C
  C107     1.0000 0.50000  0.85590  0.29320  Biso   1.000  C
  C108     1.0000 0.50000  0.90970  0.33790  Biso   1.000  C
  C109     1.0000 0.19380  0.24660  0.50000  Biso   1.000  C
  C110     1.0000 0.14410  0.29320  0.50000  Biso   1.000  C
  C111     1.0000 0.09030  0.33790  0.50000  Biso   1.000  C
  C112     1.0000 0.19380  0.75340  0.50000  Biso   1.000  C
  C113     1.0000 0.14410  0.70680  0.50000  Biso   1.000  C
  C114     1.0000 0.09030  0.66210  0.50000  Biso   1.000  C
  C115     1.0000 0.80620  0.24660  0.50000  Biso   1.000  C
  C116     1.0000 0.85590  0.29320  0.50000  Biso   1.000  C
  C117     1.0000 0.90970  0.33790  0.50000  Biso   1.000  C
  C118     1.0000 0.80620  0.75340  0.50000  Biso   1.000  C
  C119     1.0000 0.85590  0.70680  0.50000  Biso   1.000  C
  C120     1.0000 0.90970  0.66210  0.50000  Biso   1.000  C
  C121     1.0000 0.44170  0.22000  0.22000  Biso   1.000  C
  H49      1.0000 0.39570  0.21980  0.21980  Biso   1.000  H
  C122     1.0000 0.55830  0.78000  0.22000  Biso   1.000  C
  H50      1.0000 0.60430  0.78020  0.21980  Biso   1.000  H
  C123     1.0000 0.55830  0.22000  0.78000  Biso   1.000  C
  H51      1.0000 0.60430  0.21980  0.78020  Biso   1.000  H
  C124     1.0000 0.44170  0.78000  0.78000  Biso   1.000  C
  H52      1.0000 0.39570  0.78020  0.78020  Biso   1.000  H
  C125     1.0000 0.22000  0.44170  0.22000  Biso   1.000  C
  H53      1.0000 0.21980  0.39570  0.21980  Biso   1.000  H
  C126     1.0000 0.22000  0.55830  0.78000  Biso   1.000  C
  H54      1.0000 0.21980  0.60430  0.78020  Biso   1.000  H
  C127     1.0000 0.78000  0.55830  0.22000  Biso   1.000  C
  H55      1.0000 0.78020  0.60430  0.21980  Biso   1.000  H
  C128     1.0000 0.78000  0.44170  0.78000  Biso   1.000  C
  H56      1.0000 0.78020  0.39570  0.78020  Biso   1.000  H
  C129     1.0000 0.22000  0.22000  0.44170  Biso   1.000  C
  H57      1.0000 0.21980  0.21980  0.39570  Biso   1.000  H
  C130     1.0000 0.78000  0.22000  0.55830  Biso   1.000  C
  H58      1.0000 0.78020  0.21980  0.60430  Biso   1.000  H
  C131     1.0000 0.22000  0.78000  0.55830  Biso   1.000  C
  H59      1.0000 0.21980  0.78020  0.60430  Biso   1.000  H
  C132     1.0000 0.78000  0.78000  0.44170  Biso   1.000  C
  H60      1.0000 0.78020  0.78020  0.39570  Biso   1.000  H
  C133     1.0000 0.22000  0.44170  0.78000  Biso   1.000  C
  H61      1.0000 0.21980  0.39570  0.78020  Biso   1.000  H
  C134     1.0000 0.78000  0.55830  0.78000  Biso   1.000  C
  H62      1.0000 0.78020  0.60430  0.78020  Biso   1.000  H
  C135     1.0000 0.22000  0.55830  0.22000  Biso   1.000  C
  H63      1.0000 0.21980  0.60430  0.21980  Biso   1.000  H
  C136     1.0000 0.78000  0.44170  0.22000  Biso   1.000  C
  H64      1.0000 0.78020  0.39570  0.21980  Biso   1.000  H
  C137     1.0000 0.44170  0.22000  0.78000  Biso   1.000  C
  H65      1.0000 0.39570  0.21980  0.78020  Biso   1.000  H
  C138     1.0000 0.55830  0.22000  0.22000  Biso   1.000  C
  H66      1.0000 0.60430  0.21980  0.21980  Biso   1.000  H
  C139     1.0000 0.55830  0.78000  0.78000  Biso   1.000  C
  H67      1.0000 0.60430  0.78020  0.78020  Biso   1.000  H
  C140     1.0000 0.44170  0.78000  0.22000  Biso   1.000  C
  H68      1.0000 0.39570  0.78020  0.21980  Biso   1.000  H
  C141     1.0000 0.22000  0.22000  0.55830  Biso   1.000  C
  H69      1.0000 0.21980  0.21980  0.60430  Biso   1.000  H
  C142     1.0000 0.22000  0.78000  0.44170  Biso   1.000  C
  H70      1.0000 0.21980  0.78020  0.39570  Biso   1.000  H
  C143     1.0000 0.78000  0.22000  0.44170  Biso   1.000  C
  H71      1.0000 0.78020  0.21980  0.39570  Biso   1.000  H
  C144     1.0000 0.78000  0.78000  0.55830  Biso   1.000  C
  H72      1.0000 0.78020  0.78020  0.60430  Biso   1.000  H
  Cl4      1.0000 0.50000  0.50000  0.01900  Biso   1.000  Cl
  Cl5      1.0000 0.50000  0.50000  0.98100  Biso   1.000  Cl
  Cl6      1.0000 0.01900  0.50000  0.50000  Biso   1.000  Cl
  Cl7      1.0000 0.98100  0.50000  0.50000  Biso   1.000  Cl
  Cl8      1.0000 0.50000  0.01900  0.50000  Biso   1.000  Cl
  Cl9      1.0000 0.50000  0.98100  0.50000  Biso   1.000  Cl
