data_image0
_cell_length_a       15.1635
_cell_length_b       17.9739
_cell_length_c       10.0176
_cell_angle_alpha    90
_cell_angle_beta     90
_cell_angle_gamma    90

_symmetry_space_group_name_H-M    "P 1"
_symmetry_int_tables_number       1

loop_
  _symmetry_equiv_pos_as_xyz
  'x, y, z'

loop_
  _atom_site_label
  _atom_site_occupancy
  _atom_site_fract_x
  _atom_site_fract_y
  _atom_site_fract_z
  _atom_site_thermal_displace_type
  _atom_site_B_iso_or_equiv
  _atom_site_type_symbol
  Zn1      1.0000 0.95159  0.33713  0.83780  Biso   1.000  Zn
  N1       1.0000 0.82120  0.34513  0.80450  Biso   1.000  N
  N2       1.0000 0.98820  0.44081  0.87850  Biso   1.000  N
  N3       1.0000 0.99970  0.20417  0.16780  Biso   1.000  N
  N4       1.0000 0.97050  0.26874  0.99220  Biso   1.000  N
  C1       1.0000 0.09590  0.31370  0.13180  Biso   1.000  C
  H1       1.0000 0.09990  0.35260  0.06640  Biso   1.000  H
  H2       1.0000 0.15020  0.28620  0.13340  Biso   1.000  H
  H3       1.0000 0.08540  0.33510  0.21820  Biso   1.000  H
  C2       1.0000 0.02210  0.26300  0.09680  Biso   1.000  C
  N5       1.0000 0.79290  0.35130  0.67590  Biso   1.000  N
  N6       1.0000 0.91370  0.20911  0.99710  Biso   1.000  N
  N7       1.0000 0.93140  0.17162  0.10250  Biso   1.000  N
  N8       1.0000 0.99300  0.46453  0.00680  Biso   1.000  N
  H4       1.0000 0.00930  0.54970  0.62590  Biso   1.000  H
  H5       1.0000 0.94430  0.48190  0.62590  Biso   1.000  H
  H6       1.0000 0.04640  0.46830  0.62590  Biso   1.000  H
  H7       1.0000 0.69030  0.33740  0.06010  Biso   1.000  H
  H8       1.0000 0.78000  0.38060  0.06390  Biso   1.000  H
  H9       1.0000 0.77960  0.29350  0.05620  Biso   1.000  H
  Zn2      1.0000 0.95159  0.83713  0.33780  Biso   1.000  Zn
  N9       1.0000 0.82120  0.84513  0.30450  Biso   1.000  N
  N10      1.0000 0.98820  0.94081  0.37850  Biso   1.000  N
  N11      1.0000 0.99970  0.70417  0.66780  Biso   1.000  N
  N12      1.0000 0.97050  0.76874  0.49220  Biso   1.000  N
  C3       1.0000 0.09590  0.81370  0.63180  Biso   1.000  C
  H10      1.0000 0.09990  0.85260  0.56640  Biso   1.000  H
  H11      1.0000 0.15020  0.78620  0.63340  Biso   1.000  H
  H12      1.0000 0.08540  0.83510  0.71820  Biso   1.000  H
  C4       1.0000 0.02210  0.76300  0.59680  Biso   1.000  C
  N13      1.0000 0.79290  0.85130  0.17590  Biso   1.000  N
  N14      1.0000 0.91370  0.70911  0.49710  Biso   1.000  N
  N15      1.0000 0.93140  0.67162  0.60250  Biso   1.000  N
  N16      1.0000 0.99300  0.96453  0.50680  Biso   1.000  N
  H13      1.0000 0.00930  0.04970  0.12590  Biso   1.000  H
  H14      1.0000 0.94430  0.98190  0.12590  Biso   1.000  H
  H15      1.0000 0.04640  0.96830  0.12590  Biso   1.000  H
  H16      1.0000 0.69030  0.83740  0.56010  Biso   1.000  H
  H17      1.0000 0.78000  0.88060  0.56390  Biso   1.000  H
  H18      1.0000 0.77960  0.79350  0.55620  Biso   1.000  H
  Zn3      1.0000 0.04841  0.66287  0.83780  Biso   1.000  Zn
  N17      1.0000 0.17880  0.65487  0.80450  Biso   1.000  N
  N18      1.0000 0.01180  0.55919  0.87850  Biso   1.000  N
  N19      1.0000 0.00030  0.79583  0.16780  Biso   1.000  N
  N20      1.0000 0.02950  0.73126  0.99220  Biso   1.000  N
  C5       1.0000 0.90410  0.68630  0.13180  Biso   1.000  C
  H19      1.0000 0.90010  0.64740  0.06640  Biso   1.000  H
  H20      1.0000 0.84980  0.71380  0.13340  Biso   1.000  H
  H21      1.0000 0.91460  0.66490  0.21820  Biso   1.000  H
  C6       1.0000 0.97790  0.73700  0.09680  Biso   1.000  C
  N21      1.0000 0.20710  0.64870  0.67590  Biso   1.000  N
  N22      1.0000 0.08630  0.79089  0.99710  Biso   1.000  N
  N23      1.0000 0.06860  0.82838  0.10250  Biso   1.000  N
  N24      1.0000 0.00700  0.53547  0.00680  Biso   1.000  N
  H22      1.0000 0.99070  0.45030  0.62590  Biso   1.000  H
  H23      1.0000 0.05570  0.51810  0.62590  Biso   1.000  H
  H24      1.0000 0.95360  0.53170  0.62590  Biso   1.000  H
  H25      1.0000 0.30970  0.66260  0.06010  Biso   1.000  H
  H26      1.0000 0.22000  0.61940  0.06390  Biso   1.000  H
  H27      1.0000 0.22040  0.70650  0.05620  Biso   1.000  H
  Zn4      1.0000 0.04841  0.16287  0.33780  Biso   1.000  Zn
  N25      1.0000 0.17880  0.15487  0.30450  Biso   1.000  N
  N26      1.0000 0.01180  0.05919  0.37850  Biso   1.000  N
  N27      1.0000 0.00030  0.29583  0.66780  Biso   1.000  N
  N28      1.0000 0.02950  0.23126  0.49220  Biso   1.000  N
  C7       1.0000 0.90410  0.18630  0.63180  Biso   1.000  C
  H28      1.0000 0.90010  0.14740  0.56640  Biso   1.000  H
  H29      1.0000 0.84980  0.21380  0.63340  Biso   1.000  H
  H30      1.0000 0.91460  0.16490  0.71820  Biso   1.000  H
  C8       1.0000 0.97790  0.23700  0.59680  Biso   1.000  C
  N29      1.0000 0.20710  0.14870  0.17590  Biso   1.000  N
  N30      1.0000 0.08630  0.29089  0.49710  Biso   1.000  N
  N31      1.0000 0.06860  0.32838  0.60250  Biso   1.000  N
  N32      1.0000 0.00700  0.03547  0.50680  Biso   1.000  N
  H31      1.0000 0.99070  0.95030  0.12590  Biso   1.000  H
  H32      1.0000 0.05570  0.01810  0.12590  Biso   1.000  H
  H33      1.0000 0.95360  0.03170  0.12590  Biso   1.000  H
  H34      1.0000 0.30970  0.16260  0.56010  Biso   1.000  H
  H35      1.0000 0.22000  0.11940  0.56390  Biso   1.000  H
  H36      1.0000 0.22040  0.20650  0.55620  Biso   1.000  H
  Zn5      1.0000 0.45159  0.66287  0.83780  Biso   1.000  Zn
  N33      1.0000 0.32120  0.65487  0.80450  Biso   1.000  N
  N34      1.0000 0.48820  0.55919  0.87850  Biso   1.000  N
  N35      1.0000 0.49970  0.79583  0.16780  Biso   1.000  N
  N36      1.0000 0.47050  0.73126  0.99220  Biso   1.000  N
  C9       1.0000 0.59590  0.68630  0.13180  Biso   1.000  C
  H37      1.0000 0.59990  0.64740  0.06640  Biso   1.000  H
  H38      1.0000 0.65020  0.71380  0.13340  Biso   1.000  H
  H39      1.0000 0.58540  0.66490  0.21820  Biso   1.000  H
  C10      1.0000 0.52210  0.73700  0.09680  Biso   1.000  C
  N37      1.0000 0.29290  0.64870  0.67590  Biso   1.000  N
  N38      1.0000 0.41370  0.79089  0.99710  Biso   1.000  N
  N39      1.0000 0.43140  0.82838  0.10250  Biso   1.000  N
  N40      1.0000 0.49300  0.53547  0.00680  Biso   1.000  N
  H40      1.0000 0.50930  0.45030  0.62590  Biso   1.000  H
  H41      1.0000 0.44430  0.51810  0.62590  Biso   1.000  H
  H42      1.0000 0.54640  0.53170  0.62590  Biso   1.000  H
  H43      1.0000 0.19030  0.66260  0.06010  Biso   1.000  H
  H44      1.0000 0.28000  0.61940  0.06390  Biso   1.000  H
  H45      1.0000 0.27960  0.70650  0.05620  Biso   1.000  H
  Zn6      1.0000 0.45159  0.16287  0.33780  Biso   1.000  Zn
  N41      1.0000 0.32120  0.15487  0.30450  Biso   1.000  N
  N42      1.0000 0.48820  0.05919  0.37850  Biso   1.000  N
  N43      1.0000 0.49970  0.29583  0.66780  Biso   1.000  N
  N44      1.0000 0.47050  0.23126  0.49220  Biso   1.000  N
  C11      1.0000 0.59590  0.18630  0.63180  Biso   1.000  C
  H46      1.0000 0.59990  0.14740  0.56640  Biso   1.000  H
  H47      1.0000 0.65020  0.21380  0.63340  Biso   1.000  H
  H48      1.0000 0.58540  0.16490  0.71820  Biso   1.000  H
  C12      1.0000 0.52210  0.23700  0.59680  Biso   1.000  C
  N45      1.0000 0.29290  0.14870  0.17590  Biso   1.000  N
  N46      1.0000 0.41370  0.29089  0.49710  Biso   1.000  N
  N47      1.0000 0.43140  0.32838  0.60250  Biso   1.000  N
  N48      1.0000 0.49300  0.03547  0.50680  Biso   1.000  N
  H49      1.0000 0.50930  0.95030  0.12590  Biso   1.000  H
  H50      1.0000 0.44430  0.01810  0.12590  Biso   1.000  H
  H51      1.0000 0.54640  0.03170  0.12590  Biso   1.000  H
  H52      1.0000 0.19030  0.16260  0.56010  Biso   1.000  H
  H53      1.0000 0.28000  0.11940  0.56390  Biso   1.000  H
  H54      1.0000 0.27960  0.20650  0.55620  Biso   1.000  H
  Zn7      1.0000 0.54841  0.33713  0.83780  Biso   1.000  Zn
  N49      1.0000 0.67880  0.34513  0.80450  Biso   1.000  N
  N50      1.0000 0.51180  0.44081  0.87850  Biso   1.000  N
  N51      1.0000 0.50030  0.20417  0.16780  Biso   1.000  N
  N52      1.0000 0.52950  0.26874  0.99220  Biso   1.000  N
  C13      1.0000 0.40410  0.31370  0.13180  Biso   1.000  C
  H55      1.0000 0.40010  0.35260  0.06640  Biso   1.000  H
  H56      1.0000 0.34980  0.28620  0.13340  Biso   1.000  H
  H57      1.0000 0.41460  0.33510  0.21820  Biso   1.000  H
  C14      1.0000 0.47790  0.26300  0.09680  Biso   1.000  C
  N53      1.0000 0.70710  0.35130  0.67590  Biso   1.000  N
  N54      1.0000 0.58630  0.20911  0.99710  Biso   1.000  N
  N55      1.0000 0.56860  0.17162  0.10250  Biso   1.000  N
  N56      1.0000 0.50700  0.46453  0.00680  Biso   1.000  N
  H58      1.0000 0.49070  0.54970  0.62590  Biso   1.000  H
  H59      1.0000 0.55570  0.48190  0.62590  Biso   1.000  H
  H60      1.0000 0.45360  0.46830  0.62590  Biso   1.000  H
  H61      1.0000 0.80970  0.33740  0.06010  Biso   1.000  H
  H62      1.0000 0.72000  0.38060  0.06390  Biso   1.000  H
  H63      1.0000 0.72040  0.29350  0.05620  Biso   1.000  H
  Zn8      1.0000 0.54841  0.83713  0.33780  Biso   1.000  Zn
  N57      1.0000 0.67880  0.84513  0.30450  Biso   1.000  N
  N58      1.0000 0.51180  0.94081  0.37850  Biso   1.000  N
  N59      1.0000 0.50030  0.70417  0.66780  Biso   1.000  N
  N60      1.0000 0.52950  0.76874  0.49220  Biso   1.000  N
  C15      1.0000 0.40410  0.81370  0.63180  Biso   1.000  C
  H64      1.0000 0.40010  0.85260  0.56640  Biso   1.000  H
  H65      1.0000 0.34980  0.78620  0.63340  Biso   1.000  H
  H66      1.0000 0.41460  0.83510  0.71820  Biso   1.000  H
  C16      1.0000 0.47790  0.76300  0.59680  Biso   1.000  C
  N61      1.0000 0.70710  0.85130  0.17590  Biso   1.000  N
  N62      1.0000 0.58630  0.70911  0.49710  Biso   1.000  N
  N63      1.0000 0.56860  0.67162  0.60250  Biso   1.000  N
  N64      1.0000 0.50700  0.96453  0.50680  Biso   1.000  N
  H67      1.0000 0.49070  0.04970  0.12590  Biso   1.000  H
  H68      1.0000 0.55570  0.98190  0.12590  Biso   1.000  H
  H69      1.0000 0.45360  0.96830  0.12590  Biso   1.000  H
  H70      1.0000 0.80970  0.83740  0.56010  Biso   1.000  H
  H71      1.0000 0.72000  0.88060  0.56390  Biso   1.000  H
  H72      1.0000 0.72040  0.79350  0.55620  Biso   1.000  H
  C17      1.0000 0.75000  0.34210  0.88240  Biso   1.000  C
  C18      1.0000 0.75000  0.33810  0.02820  Biso   1.000  C
  C19      1.0000 0.75000  0.84210  0.38240  Biso   1.000  C
  C20      1.0000 0.75000  0.83810  0.52820  Biso   1.000  C
  C21      1.0000 0.25000  0.65790  0.88240  Biso   1.000  C
  C22      1.0000 0.25000  0.66190  0.02820  Biso   1.000  C
  C23      1.0000 0.25000  0.15790  0.38240  Biso   1.000  C
  C24      1.0000 0.25000  0.16190  0.52820  Biso   1.000  C
  C25      1.0000 0.00000  0.50000  0.65790  Biso   1.000  C
  C26      1.0000 0.00000  0.50000  0.80470  Biso   1.000  C
  C27      1.0000 0.00000  0.00000  0.15790  Biso   1.000  C
  C28      1.0000 0.00000  0.00000  0.30470  Biso   1.000  C
  C29      1.0000 0.50000  0.50000  0.65790  Biso   1.000  C
  C30      1.0000 0.50000  0.50000  0.80470  Biso   1.000  C
  C31      1.0000 0.50000  0.00000  0.15790  Biso   1.000  C
  C32      1.0000 0.50000  0.00000  0.30470  Biso   1.000  C
