data_image0
_cell_length_a       10.4692
_cell_length_b       11.2307
_cell_length_c       12.7358
_cell_angle_alpha    101.237
_cell_angle_beta     110.087
_cell_angle_gamma    99.626

_symmetry_space_group_name_H-M    "P 1"
_symmetry_int_tables_number       1

loop_
  _symmetry_equiv_pos_as_xyz
  'x, y, z'

loop_
  _atom_site_label
  _atom_site_occupancy
  _atom_site_fract_x
  _atom_site_fract_y
  _atom_site_fract_z
  _atom_site_thermal_displace_type
  _atom_site_B_iso_or_equiv
  _atom_site_type_symbol
  Eu1      1.0000 0.39408  0.45062  0.32462  Biso   1.000  Eu
  O1       1.0000 0.34740  0.49800  0.49390  Biso   1.000  O
  O2       1.0000 0.37930  0.56580  0.67710  Biso   1.000  O
  O3       1.0000 0.42920  0.27710  0.40370  Biso   1.000  O
  O4       1.0000 0.49960  0.32810  0.59680  Biso   1.000  O
  O5       1.0000 0.16370  0.29320  0.23440  Biso   1.000  O
  O6       1.0000 0.31770  0.26250  0.15840  Biso   1.000  O
  O7       1.0000 0.20680  0.56150  0.26110  Biso   1.000  O
  C1       1.0000 0.29860  0.52780  0.56980  Biso   1.000  C
  C2       1.0000 0.14420  0.51440  0.53460  Biso   1.000  C
  C3       1.0000 0.09000  0.56040  0.61590  Biso   1.000  C
  H1       1.0000 0.15040  0.60100  0.69460  Biso   1.000  H
  C4       1.0000 0.05540  0.45480  0.42120  Biso   1.000  C
  H2       1.0000 0.09360  0.42330  0.36710  Biso   1.000  H
  C5       1.0000 0.46900  0.25310  0.49940  Biso   1.000  C
  C6       1.0000 0.48340  0.12030  0.49780  Biso   1.000  C
  C7       1.0000 0.48730  0.04010  0.39980  Biso   1.000  C
  H3       1.0000 0.47950  0.06740  0.33230  Biso   1.000  H
  C8       1.0000 0.49730  0.07950  0.59650  Biso   1.000  C
  H4       1.0000 0.49610  0.13470  0.66280  Biso   1.000  H
  C9       1.0000 0.20010  0.22750  0.16460  Biso   1.000  C
  C10      1.0000 0.09610  0.10980  0.07920  Biso   1.000  C
  C11      1.0000 0.13750  0.02920  0.00660  Biso   1.000  C
  H5       1.0000 0.23160  0.04810  0.01140  Biso   1.000  H
  C12      1.0000 0.96020  0.08000  0.07360  Biso   1.000  C
  H6       1.0000 0.93260  0.13370  0.12450  Biso   1.000  H
  C13      1.0000 0.19290  0.66020  0.26470  Biso   1.000  C
  H7       1.0000 0.26080  0.72310  0.33090  Biso   1.000  H
  C14      1.0000 0.10300  0.83720  0.21770  Biso   1.000  C
  C15      1.0000 0.98600  0.62200  0.08730  Biso   1.000  C
  N1       1.0000 0.16900  0.62250  0.72960  Biso   1.000  N
  H8       1.0000 0.26120  0.63610  0.75650  Biso   1.000  H
  H9       1.0000 0.12790  0.64900  0.77620  Biso   1.000  H
  N2       1.0000 0.47820  0.07700  0.29380  Biso   1.000  N
  H10      1.0000 0.48250  0.02390  0.23510  Biso   1.000  H
  H11      1.0000 0.46840  0.15220  0.28880  Biso   1.000  H
  N3       1.0000 0.27600  0.05340  0.01010  Biso   1.000  N
  H12      1.0000 0.33900  0.12130  0.05930  Biso   1.000  H
  H13      1.0000 0.29830  0.00060  0.96310  Biso   1.000  H
  N4       1.0000 0.08890  0.84000  0.85430  Biso   1.000  N
  H14      1.0000 0.03160  0.76940  0.80470  Biso   1.000  H
  H15      1.0000 0.17620  0.86180  0.86000  Biso   1.000  H
  N5       1.0000 0.09800  0.70280  0.19250  Biso   1.000  N
  C16      1.0000 0.80860  0.37300  0.78330  Biso   1.000  C
  C17      1.0000 0.89800  0.20990  0.85400  Biso   1.000  C
  C18      1.0000 0.93700  0.58800  0.12400  Biso   1.000  C
  H16      1.0000 0.72180  0.31350  0.76170  Biso   1.000  H
  N6       1.0000 0.92410  0.33780  0.83700  Biso   1.000  N
  O8       1.0000 0.80060  0.46560  0.76000  Biso   1.000  O
  Eu2      1.0000 0.60592  0.54938  0.67538  Biso   1.000  Eu
  O9       1.0000 0.65260  0.50200  0.50610  Biso   1.000  O
  O10      1.0000 0.62070  0.43420  0.32290  Biso   1.000  O
  O11      1.0000 0.57080  0.72290  0.59630  Biso   1.000  O
  O12      1.0000 0.50040  0.67190  0.40320  Biso   1.000  O
  O13      1.0000 0.83630  0.70680  0.76560  Biso   1.000  O
  O14      1.0000 0.68230  0.73750  0.84160  Biso   1.000  O
  O15      1.0000 0.79320  0.43850  0.73890  Biso   1.000  O
  C19      1.0000 0.70140  0.47220  0.43020  Biso   1.000  C
  C20      1.0000 0.85580  0.48560  0.46540  Biso   1.000  C
  C21      1.0000 0.91000  0.43960  0.38410  Biso   1.000  C
  H17      1.0000 0.84960  0.39900  0.30540  Biso   1.000  H
  C22      1.0000 0.94460  0.54520  0.57880  Biso   1.000  C
  H18      1.0000 0.90640  0.57670  0.63290  Biso   1.000  H
  C23      1.0000 0.53100  0.74690  0.50060  Biso   1.000  C
  C24      1.0000 0.51660  0.87970  0.50220  Biso   1.000  C
  C25      1.0000 0.51270  0.95990  0.60020  Biso   1.000  C
  H19      1.0000 0.52050  0.93260  0.66770  Biso   1.000  H
  C26      1.0000 0.50270  0.92050  0.40350  Biso   1.000  C
  H20      1.0000 0.50390  0.86530  0.33720  Biso   1.000  H
  C27      1.0000 0.79990  0.77250  0.83540  Biso   1.000  C
  C28      1.0000 0.90390  0.89020  0.92080  Biso   1.000  C
  C29      1.0000 0.86250  0.97080  0.99340  Biso   1.000  C
  H21      1.0000 0.76840  0.95190  0.98860  Biso   1.000  H
  C30      1.0000 0.03980  0.92000  0.92640  Biso   1.000  C
  H22      1.0000 0.06740  0.86630  0.87550  Biso   1.000  H
  C31      1.0000 0.80710  0.33980  0.73530  Biso   1.000  C
  H23      1.0000 0.73920  0.27690  0.66910  Biso   1.000  H
  C32      1.0000 0.89700  0.16280  0.78230  Biso   1.000  C
  C33      1.0000 0.01400  0.37800  0.91270  Biso   1.000  C
  N7       1.0000 0.83100  0.37750  0.27040  Biso   1.000  N
  H24      1.0000 0.73880  0.36390  0.24350  Biso   1.000  H
  H25      1.0000 0.87210  0.35100  0.22380  Biso   1.000  H
  N8       1.0000 0.52180  0.92300  0.70620  Biso   1.000  N
  H26      1.0000 0.51750  0.97610  0.76490  Biso   1.000  H
  H27      1.0000 0.53160  0.84780  0.71120  Biso   1.000  H
  N9       1.0000 0.72400  0.94660  0.98990  Biso   1.000  N
  H28      1.0000 0.66100  0.87870  0.94070  Biso   1.000  H
  H29      1.0000 0.70170  0.99940  0.03690  Biso   1.000  H
  N10      1.0000 0.91110  0.16000  0.14570  Biso   1.000  N
  H30      1.0000 0.96840  0.23060  0.19530  Biso   1.000  H
  H31      1.0000 0.82380  0.13820  0.14000  Biso   1.000  H
  N11      1.0000 0.90200  0.29720  0.80750  Biso   1.000  N
  C34      1.0000 0.19140  0.62700  0.21670  Biso   1.000  C
  C35      1.0000 0.10200  0.79010  0.14600  Biso   1.000  C
  C36      1.0000 0.06300  0.41200  0.87600  Biso   1.000  C
  H32      1.0000 0.27820  0.68650  0.23830  Biso   1.000  H
  N12      1.0000 0.07590  0.66220  0.16300  Biso   1.000  N
  O16      1.0000 0.19940  0.53440  0.24000  Biso   1.000  O
