data_image0
_cell_length_a       14.529
_cell_length_b       16.543
_cell_length_c       21.125
_cell_angle_alpha    90
_cell_angle_beta     104.305
_cell_angle_gamma    90

_symmetry_space_group_name_H-M    "P 1"
_symmetry_int_tables_number       1

loop_
  _symmetry_equiv_pos_as_xyz
  'x, y, z'

loop_
  _atom_site_label
  _atom_site_occupancy
  _atom_site_fract_x
  _atom_site_fract_y
  _atom_site_fract_z
  _atom_site_thermal_displace_type
  _atom_site_B_iso_or_equiv
  _atom_site_type_symbol
  Zn1      1.0000 0.41470  0.45544  0.17261  Biso   1.000  Zn
  O1       1.0000 0.34130  0.33730  0.09760  Biso   1.000  O
  O2       1.0000 0.27650  0.43760  0.14110  Biso   1.000  O
  O3       1.0000 0.55170  0.09030  0.69720  Biso   1.000  O
  O4       1.0000 0.45570  0.14090  0.75400  Biso   1.000  O
  O5       1.0000 0.36350  0.74260  0.91070  Biso   1.000  O
  O6       1.0000 0.82000  0.35050  0.96640  Biso   1.000  O
  N1       1.0000 0.42940  0.94990  0.73840  Biso   1.000  N
  N2       1.0000 0.44010  0.52030  0.09480  Biso   1.000  N
  N3       1.0000 0.49620  0.76380  0.87410  Biso   1.000  N
  H1       1.0000 0.55390  0.74470  0.87830  Biso   1.000  H
  N4       1.0000 0.50160  0.67600  0.95360  Biso   1.000  N
  H2       1.0000 0.56110  0.67270  0.95110  Biso   1.000  H
  N5       1.0000 0.92230  0.27580  0.92520  Biso   1.000  N
  C1       1.0000 0.27020  0.37540  0.10160  Biso   1.000  C
  C2       1.0000 0.17570  0.35500  0.06340  Biso   1.000  C
  C3       1.0000 0.09810  0.40580  0.05890  Biso   1.000  C
  H3       1.0000 0.10470  0.45390  0.08420  Biso   1.000  H
  C4       1.0000 0.01090  0.38620  0.01730  Biso   1.000  C
  H4       1.0000 0.95790  0.42090  0.01420  Biso   1.000  H
  C5       1.0000 0.00130  0.31580  0.98030  Biso   1.000  C
  C6       1.0000 0.07890  0.26510  0.98480  Biso   1.000  C
  H5       1.0000 0.07230  0.21700  0.95950  Biso   1.000  H
  C7       1.0000 0.16610  0.28460  0.02640  Biso   1.000  C
  H6       1.0000 0.21910  0.24990  0.02950  Biso   1.000  H
  C8       1.0000 0.53660  0.13450  0.74310  Biso   1.000  C
  C9       1.0000 0.61950  0.17820  0.78440  Biso   1.000  C
  C10      1.0000 0.70840  0.17480  0.77100  Biso   1.000  C
  H7       1.0000 0.71620  0.14690  0.73330  Biso   1.000  H
  C11      1.0000 0.78580  0.21220  0.81260  Biso   1.000  C
  H8       1.0000 0.84660  0.20990  0.80340  Biso   1.000  H
  C12      1.0000 0.77440  0.25290  0.86770  Biso   1.000  C
  C13      1.0000 0.68550  0.25630  0.88120  Biso   1.000  C
  H9       1.0000 0.67770  0.28410  0.91880  Biso   1.000  H
  C14      1.0000 0.60810  0.21890  0.83950  Biso   1.000  C
  H10      1.0000 0.54740  0.22120  0.84870  Biso   1.000  H
  C15      1.0000 0.83910  0.29850  0.92360  Biso   1.000  C
  C16      1.0000 0.51390  0.91400  0.75320  Biso   1.000  C
  H11      1.0000 0.56060  0.93200  0.73200  Biso   1.000  H
  C17      1.0000 0.53700  0.85260  0.79740  Biso   1.000  C
  H12      1.0000 0.59790  0.82790  0.80630  Biso   1.000  H
  C18      1.0000 0.46910  0.82730  0.82890  Biso   1.000  C
  C19      1.0000 0.38170  0.86280  0.81210  Biso   1.000  C
  H13      1.0000 0.33300  0.84580  0.83200  Biso   1.000  H
  C20      1.0000 0.36490  0.92200  0.76710  Biso   1.000  C
  H14      1.0000 0.30320  0.94510  0.75540  Biso   1.000  H
  C21      1.0000 0.36910  0.55890  0.05330  Biso   1.000  C
  H15      1.0000 0.30580  0.55000  0.05650  Biso   1.000  H
  C22      1.0000 0.38480  0.61170  0.00580  Biso   1.000  C
  H16      1.0000 0.33250  0.63780  0.97710  Biso   1.000  H
  C23      1.0000 0.47580  0.62630  0.00000  Biso   1.000  C
  C24      1.0000 0.55020  0.58660  0.04400  Biso   1.000  C
  H17      1.0000 0.61430  0.59460  0.04230  Biso   1.000  H
  C25      1.0000 0.52760  0.53510  0.09030  Biso   1.000  C
  H18      1.0000 0.57830  0.50910  0.12040  Biso   1.000  H
  C26      1.0000 0.44510  0.72870  0.91180  Biso   1.000  C
  N6       1.0000 0.87520  0.27940  0.89210  Biso   1.000  N
  C27      1.0000 0.89400  0.32280  0.95300  Biso   1.000  C
  Zn2      1.0000 0.41470  0.04456  0.67261  Biso   1.000  Zn
  O7       1.0000 0.34130  0.16270  0.59760  Biso   1.000  O
  O8       1.0000 0.27650  0.06240  0.64110  Biso   1.000  O
  O9       1.0000 0.55170  0.40970  0.19720  Biso   1.000  O
  O10      1.0000 0.45570  0.35910  0.25400  Biso   1.000  O
  O11      1.0000 0.36350  0.75740  0.41070  Biso   1.000  O
  O12      1.0000 0.82000  0.14950  0.46640  Biso   1.000  O
  N7       1.0000 0.42940  0.55010  0.23840  Biso   1.000  N
  N8       1.0000 0.44010  0.97970  0.59480  Biso   1.000  N
  N9       1.0000 0.49620  0.73620  0.37410  Biso   1.000  N
  H19      1.0000 0.55390  0.75530  0.37830  Biso   1.000  H
  N10      1.0000 0.50160  0.82400  0.45360  Biso   1.000  N
  H20      1.0000 0.56110  0.82730  0.45110  Biso   1.000  H
  N11      1.0000 0.92230  0.22420  0.42520  Biso   1.000  N
  C28      1.0000 0.27020  0.12460  0.60160  Biso   1.000  C
  C29      1.0000 0.17570  0.14500  0.56340  Biso   1.000  C
  C30      1.0000 0.09810  0.09420  0.55890  Biso   1.000  C
  H21      1.0000 0.10470  0.04610  0.58420  Biso   1.000  H
  C31      1.0000 0.01090  0.11380  0.51730  Biso   1.000  C
  H22      1.0000 0.95790  0.07910  0.51420  Biso   1.000  H
  C32      1.0000 0.00130  0.18420  0.48030  Biso   1.000  C
  C33      1.0000 0.07890  0.23490  0.48480  Biso   1.000  C
  H23      1.0000 0.07230  0.28300  0.45950  Biso   1.000  H
  C34      1.0000 0.16610  0.21540  0.52640  Biso   1.000  C
  H24      1.0000 0.21910  0.25010  0.52950  Biso   1.000  H
  C35      1.0000 0.53660  0.36550  0.24310  Biso   1.000  C
  C36      1.0000 0.61950  0.32180  0.28440  Biso   1.000  C
  C37      1.0000 0.70840  0.32520  0.27100  Biso   1.000  C
  H25      1.0000 0.71620  0.35310  0.23330  Biso   1.000  H
  C38      1.0000 0.78580  0.28780  0.31260  Biso   1.000  C
  H26      1.0000 0.84660  0.29010  0.30340  Biso   1.000  H
  C39      1.0000 0.77440  0.24710  0.36770  Biso   1.000  C
  C40      1.0000 0.68550  0.24370  0.38120  Biso   1.000  C
  H27      1.0000 0.67770  0.21590  0.41880  Biso   1.000  H
  C41      1.0000 0.60810  0.28110  0.33950  Biso   1.000  C
  H28      1.0000 0.54740  0.27880  0.34870  Biso   1.000  H
  C42      1.0000 0.83910  0.20150  0.42360  Biso   1.000  C
  C43      1.0000 0.51390  0.58600  0.25320  Biso   1.000  C
  H29      1.0000 0.56060  0.56800  0.23200  Biso   1.000  H
  C44      1.0000 0.53700  0.64740  0.29740  Biso   1.000  C
  H30      1.0000 0.59790  0.67210  0.30630  Biso   1.000  H
  C45      1.0000 0.46910  0.67270  0.32890  Biso   1.000  C
  C46      1.0000 0.38170  0.63720  0.31210  Biso   1.000  C
  H31      1.0000 0.33300  0.65420  0.33200  Biso   1.000  H
  C47      1.0000 0.36490  0.57800  0.26710  Biso   1.000  C
  H32      1.0000 0.30320  0.55490  0.25540  Biso   1.000  H
  C48      1.0000 0.36910  0.94110  0.55330  Biso   1.000  C
  H33      1.0000 0.30580  0.95000  0.55650  Biso   1.000  H
  C49      1.0000 0.38480  0.88830  0.50580  Biso   1.000  C
  H34      1.0000 0.33250  0.86220  0.47710  Biso   1.000  H
  C50      1.0000 0.47580  0.87370  0.50000  Biso   1.000  C
  C51      1.0000 0.55020  0.91340  0.54400  Biso   1.000  C
  H35      1.0000 0.61430  0.90540  0.54230  Biso   1.000  H
  C52      1.0000 0.52760  0.96490  0.59030  Biso   1.000  C
  H36      1.0000 0.57830  0.99090  0.62040  Biso   1.000  H
  C53      1.0000 0.44510  0.77130  0.41180  Biso   1.000  C
  N12      1.0000 0.87520  0.22060  0.39210  Biso   1.000  N
  C54      1.0000 0.89400  0.17720  0.45300  Biso   1.000  C
  Zn3      1.0000 0.58530  0.95544  0.32739  Biso   1.000  Zn
  O13      1.0000 0.65870  0.83730  0.40240  Biso   1.000  O
  O14      1.0000 0.72350  0.93760  0.35890  Biso   1.000  O
  O15      1.0000 0.44830  0.59030  0.80280  Biso   1.000  O
  O16      1.0000 0.54430  0.64090  0.74600  Biso   1.000  O
  O17      1.0000 0.63650  0.24260  0.58930  Biso   1.000  O
  O18      1.0000 0.18000  0.85050  0.53360  Biso   1.000  O
  N13      1.0000 0.57060  0.44990  0.76160  Biso   1.000  N
  N14      1.0000 0.55990  0.02030  0.40520  Biso   1.000  N
  N15      1.0000 0.50380  0.26380  0.62590  Biso   1.000  N
  H37      1.0000 0.44610  0.24470  0.62170  Biso   1.000  H
  N16      1.0000 0.49840  0.17600  0.54640  Biso   1.000  N
  H38      1.0000 0.43890  0.17270  0.54890  Biso   1.000  H
  N17      1.0000 0.07770  0.77580  0.57480  Biso   1.000  N
  C55      1.0000 0.72980  0.87540  0.39840  Biso   1.000  C
  C56      1.0000 0.82430  0.85500  0.43660  Biso   1.000  C
  C57      1.0000 0.90190  0.90580  0.44110  Biso   1.000  C
  H39      1.0000 0.89530  0.95390  0.41580  Biso   1.000  H
  C58      1.0000 0.98910  0.88620  0.48270  Biso   1.000  C
  H40      1.0000 0.04210  0.92090  0.48580  Biso   1.000  H
  C59      1.0000 0.99870  0.81580  0.51970  Biso   1.000  C
  C60      1.0000 0.92110  0.76510  0.51520  Biso   1.000  C
  H41      1.0000 0.92770  0.71700  0.54050  Biso   1.000  H
  C61      1.0000 0.83390  0.78460  0.47360  Biso   1.000  C
  H42      1.0000 0.78090  0.74990  0.47050  Biso   1.000  H
  C62      1.0000 0.46340  0.63450  0.75690  Biso   1.000  C
  C63      1.0000 0.38050  0.67820  0.71560  Biso   1.000  C
  C64      1.0000 0.29160  0.67480  0.72900  Biso   1.000  C
  H43      1.0000 0.28380  0.64690  0.76670  Biso   1.000  H
  C65      1.0000 0.21420  0.71220  0.68740  Biso   1.000  C
  H44      1.0000 0.15340  0.70990  0.69660  Biso   1.000  H
  C66      1.0000 0.22560  0.75290  0.63230  Biso   1.000  C
  C67      1.0000 0.31450  0.75630  0.61880  Biso   1.000  C
  H45      1.0000 0.32230  0.78410  0.58120  Biso   1.000  H
  C68      1.0000 0.39190  0.71890  0.66050  Biso   1.000  C
  H46      1.0000 0.45260  0.72120  0.65130  Biso   1.000  H
  C69      1.0000 0.16090  0.79850  0.57640  Biso   1.000  C
  C70      1.0000 0.48610  0.41400  0.74680  Biso   1.000  C
  H47      1.0000 0.43940  0.43200  0.76800  Biso   1.000  H
  C71      1.0000 0.46300  0.35260  0.70260  Biso   1.000  C
  H48      1.0000 0.40210  0.32790  0.69370  Biso   1.000  H
  C72      1.0000 0.53090  0.32730  0.67110  Biso   1.000  C
  C73      1.0000 0.61830  0.36280  0.68790  Biso   1.000  C
  H49      1.0000 0.66700  0.34580  0.66800  Biso   1.000  H
  C74      1.0000 0.63510  0.42200  0.73290  Biso   1.000  C
  H50      1.0000 0.69680  0.44510  0.74460  Biso   1.000  H
  C75      1.0000 0.63090  0.05890  0.44670  Biso   1.000  C
  H51      1.0000 0.69420  0.05000  0.44350  Biso   1.000  H
  C76      1.0000 0.61520  0.11170  0.49420  Biso   1.000  C
  H52      1.0000 0.66750  0.13780  0.52290  Biso   1.000  H
  C77      1.0000 0.52420  0.12630  0.50000  Biso   1.000  C
  C78      1.0000 0.44980  0.08660  0.45600  Biso   1.000  C
  H53      1.0000 0.38570  0.09460  0.45770  Biso   1.000  H
  C79      1.0000 0.47240  0.03510  0.40970  Biso   1.000  C
  H54      1.0000 0.42170  0.00910  0.37960  Biso   1.000  H
  C80      1.0000 0.55490  0.22870  0.58820  Biso   1.000  C
  N18      1.0000 0.12480  0.77940  0.60790  Biso   1.000  N
  C81      1.0000 0.10600  0.82280  0.54700  Biso   1.000  C
  Zn4      1.0000 0.58530  0.54456  0.82739  Biso   1.000  Zn
  O19      1.0000 0.65870  0.66270  0.90240  Biso   1.000  O
  O20      1.0000 0.72350  0.56240  0.85890  Biso   1.000  O
  O21      1.0000 0.44830  0.90970  0.30280  Biso   1.000  O
  O22      1.0000 0.54430  0.85910  0.24600  Biso   1.000  O
  O23      1.0000 0.63650  0.25740  0.08930  Biso   1.000  O
  O24      1.0000 0.18000  0.64950  0.03360  Biso   1.000  O
  N19      1.0000 0.57060  0.05010  0.26160  Biso   1.000  N
  N20      1.0000 0.55990  0.47970  0.90520  Biso   1.000  N
  N21      1.0000 0.50380  0.23620  0.12590  Biso   1.000  N
  H55      1.0000 0.44610  0.25530  0.12170  Biso   1.000  H
  N22      1.0000 0.49840  0.32400  0.04640  Biso   1.000  N
  H56      1.0000 0.43890  0.32730  0.04890  Biso   1.000  H
  N23      1.0000 0.07770  0.72420  0.07480  Biso   1.000  N
  C82      1.0000 0.72980  0.62460  0.89840  Biso   1.000  C
  C83      1.0000 0.82430  0.64500  0.93660  Biso   1.000  C
  C84      1.0000 0.90190  0.59420  0.94110  Biso   1.000  C
  H57      1.0000 0.89530  0.54610  0.91580  Biso   1.000  H
  C85      1.0000 0.98910  0.61380  0.98270  Biso   1.000  C
  H58      1.0000 0.04210  0.57910  0.98580  Biso   1.000  H
  C86      1.0000 0.99870  0.68420  0.01970  Biso   1.000  C
  C87      1.0000 0.92110  0.73490  0.01520  Biso   1.000  C
  H59      1.0000 0.92770  0.78300  0.04050  Biso   1.000  H
  C88      1.0000 0.83390  0.71540  0.97360  Biso   1.000  C
  H60      1.0000 0.78090  0.75010  0.97050  Biso   1.000  H
  C89      1.0000 0.46340  0.86550  0.25690  Biso   1.000  C
  C90      1.0000 0.38050  0.82180  0.21560  Biso   1.000  C
  C91      1.0000 0.29160  0.82520  0.22900  Biso   1.000  C
  H61      1.0000 0.28380  0.85310  0.26670  Biso   1.000  H
  C92      1.0000 0.21420  0.78780  0.18740  Biso   1.000  C
  H62      1.0000 0.15340  0.79010  0.19660  Biso   1.000  H
  C93      1.0000 0.22560  0.74710  0.13230  Biso   1.000  C
  C94      1.0000 0.31450  0.74370  0.11880  Biso   1.000  C
  H63      1.0000 0.32230  0.71590  0.08120  Biso   1.000  H
  C95      1.0000 0.39190  0.78110  0.16050  Biso   1.000  C
  H64      1.0000 0.45260  0.77880  0.15130  Biso   1.000  H
  C96      1.0000 0.16090  0.70150  0.07640  Biso   1.000  C
  C97      1.0000 0.48610  0.08600  0.24680  Biso   1.000  C
  H65      1.0000 0.43940  0.06800  0.26800  Biso   1.000  H
  C98      1.0000 0.46300  0.14740  0.20260  Biso   1.000  C
  H66      1.0000 0.40210  0.17210  0.19370  Biso   1.000  H
  C99      1.0000 0.53090  0.17270  0.17110  Biso   1.000  C
  C100     1.0000 0.61830  0.13720  0.18790  Biso   1.000  C
  H67      1.0000 0.66700  0.15420  0.16800  Biso   1.000  H
  C101     1.0000 0.63510  0.07800  0.23290  Biso   1.000  C
  H68      1.0000 0.69680  0.05490  0.24460  Biso   1.000  H
  C102     1.0000 0.63090  0.44110  0.94670  Biso   1.000  C
  H69      1.0000 0.69420  0.45000  0.94350  Biso   1.000  H
  C103     1.0000 0.61520  0.38830  0.99420  Biso   1.000  C
  H70      1.0000 0.66750  0.36220  0.02290  Biso   1.000  H
  C104     1.0000 0.52420  0.37370  0.00000  Biso   1.000  C
  C105     1.0000 0.44980  0.41340  0.95600  Biso   1.000  C
  H71      1.0000 0.38570  0.40540  0.95770  Biso   1.000  H
  C106     1.0000 0.47240  0.46490  0.90970  Biso   1.000  C
  H72      1.0000 0.42170  0.49090  0.87960  Biso   1.000  H
  C107     1.0000 0.55490  0.27130  0.08820  Biso   1.000  C
  N24      1.0000 0.12480  0.72060  0.10790  Biso   1.000  N
  C108     1.0000 0.10600  0.67720  0.04700  Biso   1.000  C
