data_image0
_cell_length_a       12.254
_cell_length_b       20.62
_cell_length_c       7.804
_cell_angle_alpha    90
_cell_angle_beta     90
_cell_angle_gamma    90

_symmetry_space_group_name_H-M    "P 1"
_symmetry_int_tables_number       1

loop_
  _symmetry_equiv_pos_as_xyz
  'x, y, z'

loop_
  _atom_site_label
  _atom_site_occupancy
  _atom_site_fract_x
  _atom_site_fract_y
  _atom_site_fract_z
  _atom_site_thermal_displace_type
  _atom_site_B_iso_or_equiv
  _atom_site_type_symbol
  N1       1.0000 0.28840  0.20770  0.21740  Biso   1.000  N
  N2       1.0000 0.03710  0.15480  0.22600  Biso   1.000  N
  C1       1.0000 0.33350  0.23260  0.32790  Biso   1.000  C
  C2       1.0000 0.98730  0.18020  0.33350  Biso   1.000  C
  C3       1.0000 0.23100  0.35620  0.03600  Biso   1.000  C
  C4       1.0000 0.33000  0.03800  0.04180  Biso   1.000  C
  H1       1.0000 0.02601  0.27267  0.11262  Biso   1.000  H
  H2       1.0000 0.07016  0.36071  0.09038  Biso   1.000  H
  H3       1.0000 0.10370  0.35227  0.87253  Biso   1.000  H
  H4       1.0000 0.17072  0.33848  0.11262  Biso   1.000  H
  H5       1.0000 0.28530  0.32698  0.96038  Biso   1.000  H
  H6       1.0000 0.24064  0.34753  0.17011  Biso   1.000  H
  H7       1.0000 0.20692  0.45224  0.09184  Biso   1.000  H
  H8       1.0000 0.22282  0.43400  0.87423  Biso   1.000  H
  H9       1.0000 0.39617  0.43836  0.11262  Biso   1.000  H
  H10      1.0000 0.07822  0.03594  0.11262  Biso   1.000  H
  H11      1.0000 0.26453  0.06351  0.11262  Biso   1.000  H
  H12      1.0000 0.18103  0.04975  0.11262  Biso   1.000  H
  N3       1.0000 0.71160  0.79230  0.21740  Biso   1.000  N
  N4       1.0000 0.96290  0.84520  0.22600  Biso   1.000  N
  C5       1.0000 0.66650  0.76740  0.32790  Biso   1.000  C
  C6       1.0000 0.01270  0.81980  0.33350  Biso   1.000  C
  C7       1.0000 0.76900  0.64380  0.03600  Biso   1.000  C
  C8       1.0000 0.67000  0.96200  0.04180  Biso   1.000  C
  H13      1.0000 0.97399  0.72733  0.11262  Biso   1.000  H
  H14      1.0000 0.92984  0.63929  0.09038  Biso   1.000  H
  H15      1.0000 0.89630  0.64773  0.87253  Biso   1.000  H
  H16      1.0000 0.82928  0.66152  0.11262  Biso   1.000  H
  H17      1.0000 0.71470  0.67302  0.96038  Biso   1.000  H
  H18      1.0000 0.75936  0.65247  0.17011  Biso   1.000  H
  H19      1.0000 0.79308  0.54776  0.09184  Biso   1.000  H
  H20      1.0000 0.77718  0.56600  0.87423  Biso   1.000  H
  H21      1.0000 0.60383  0.56164  0.11262  Biso   1.000  H
  H22      1.0000 0.92178  0.96406  0.11262  Biso   1.000  H
  H23      1.0000 0.73547  0.93649  0.11262  Biso   1.000  H
  H24      1.0000 0.81897  0.95025  0.11262  Biso   1.000  H
  N5       1.0000 0.21160  0.70770  0.78260  Biso   1.000  N
  N6       1.0000 0.46290  0.65480  0.77400  Biso   1.000  N
  C9       1.0000 0.16650  0.73260  0.67210  Biso   1.000  C
  C10      1.0000 0.51270  0.68020  0.66650  Biso   1.000  C
  C11      1.0000 0.26900  0.85620  0.96400  Biso   1.000  C
  C12      1.0000 0.17000  0.53800  0.95820  Biso   1.000  C
  H25      1.0000 0.47399  0.77267  0.88738  Biso   1.000  H
  H26      1.0000 0.42984  0.86071  0.90962  Biso   1.000  H
  H27      1.0000 0.39630  0.85227  0.12747  Biso   1.000  H
  H28      1.0000 0.32928  0.83848  0.88738  Biso   1.000  H
  H29      1.0000 0.21470  0.82698  0.03962  Biso   1.000  H
  H30      1.0000 0.25936  0.84753  0.82989  Biso   1.000  H
  H31      1.0000 0.29308  0.95224  0.90816  Biso   1.000  H
  H32      1.0000 0.27718  0.93400  0.12577  Biso   1.000  H
  H33      1.0000 0.10383  0.93836  0.88738  Biso   1.000  H
  H34      1.0000 0.42178  0.53594  0.88738  Biso   1.000  H
  H35      1.0000 0.23547  0.56351  0.88738  Biso   1.000  H
  H36      1.0000 0.31897  0.54975  0.88738  Biso   1.000  H
  N7       1.0000 0.78840  0.29230  0.78260  Biso   1.000  N
  N8       1.0000 0.53710  0.34520  0.77400  Biso   1.000  N
  C13      1.0000 0.83350  0.26740  0.67210  Biso   1.000  C
  C14      1.0000 0.48730  0.31980  0.66650  Biso   1.000  C
  C15      1.0000 0.73100  0.14380  0.96400  Biso   1.000  C
  C16      1.0000 0.83000  0.46200  0.95820  Biso   1.000  C
  H37      1.0000 0.52601  0.22733  0.88738  Biso   1.000  H
  H38      1.0000 0.57016  0.13929  0.90962  Biso   1.000  H
  H39      1.0000 0.60370  0.14773  0.12747  Biso   1.000  H
  H40      1.0000 0.67072  0.16152  0.88738  Biso   1.000  H
  H41      1.0000 0.78530  0.17302  0.03962  Biso   1.000  H
  H42      1.0000 0.74064  0.15247  0.82989  Biso   1.000  H
  H43      1.0000 0.70692  0.04776  0.90816  Biso   1.000  H
  H44      1.0000 0.72282  0.06600  0.12577  Biso   1.000  H
  H45      1.0000 0.89617  0.06164  0.88738  Biso   1.000  H
  H46      1.0000 0.57822  0.46406  0.88738  Biso   1.000  H
  H47      1.0000 0.76453  0.43649  0.88738  Biso   1.000  H
  H48      1.0000 0.68103  0.45025  0.88738  Biso   1.000  H
  N9       1.0000 0.71160  0.79230  0.78260  Biso   1.000  N
  N10      1.0000 0.96290  0.84520  0.77400  Biso   1.000  N
  C17      1.0000 0.66650  0.76740  0.67210  Biso   1.000  C
  C18      1.0000 0.01270  0.81980  0.66650  Biso   1.000  C
  C19      1.0000 0.76900  0.64380  0.96400  Biso   1.000  C
  C20      1.0000 0.67000  0.96200  0.95820  Biso   1.000  C
  H49      1.0000 0.97399  0.72733  0.88738  Biso   1.000  H
  H50      1.0000 0.92984  0.63929  0.90962  Biso   1.000  H
  H51      1.0000 0.89630  0.64773  0.12747  Biso   1.000  H
  H52      1.0000 0.82928  0.66152  0.88738  Biso   1.000  H
  H53      1.0000 0.71470  0.67302  0.03962  Biso   1.000  H
  H54      1.0000 0.75936  0.65247  0.82989  Biso   1.000  H
  H55      1.0000 0.79308  0.54776  0.90816  Biso   1.000  H
  H56      1.0000 0.77718  0.56600  0.12577  Biso   1.000  H
  H57      1.0000 0.60383  0.56164  0.88738  Biso   1.000  H
  H58      1.0000 0.92178  0.96406  0.88738  Biso   1.000  H
  H59      1.0000 0.73547  0.93649  0.88738  Biso   1.000  H
  H60      1.0000 0.81897  0.95025  0.88738  Biso   1.000  H
  N11      1.0000 0.28840  0.20770  0.78260  Biso   1.000  N
  N12      1.0000 0.03710  0.15480  0.77400  Biso   1.000  N
  C21      1.0000 0.33350  0.23260  0.67210  Biso   1.000  C
  C22      1.0000 0.98730  0.18020  0.66650  Biso   1.000  C
  C23      1.0000 0.23100  0.35620  0.96400  Biso   1.000  C
  C24      1.0000 0.33000  0.03800  0.95820  Biso   1.000  C
  H61      1.0000 0.02601  0.27267  0.88738  Biso   1.000  H
  H62      1.0000 0.07016  0.36071  0.90962  Biso   1.000  H
  H63      1.0000 0.10370  0.35227  0.12747  Biso   1.000  H
  H64      1.0000 0.17072  0.33848  0.88738  Biso   1.000  H
  H65      1.0000 0.28530  0.32698  0.03962  Biso   1.000  H
  H66      1.0000 0.24064  0.34753  0.82989  Biso   1.000  H
  H67      1.0000 0.20692  0.45224  0.90816  Biso   1.000  H
  H68      1.0000 0.22282  0.43400  0.12577  Biso   1.000  H
  H69      1.0000 0.39617  0.43836  0.88738  Biso   1.000  H
  H70      1.0000 0.07822  0.03594  0.88738  Biso   1.000  H
  H71      1.0000 0.26453  0.06351  0.88738  Biso   1.000  H
  H72      1.0000 0.18103  0.04975  0.88738  Biso   1.000  H
  N13      1.0000 0.78840  0.29230  0.21740  Biso   1.000  N
  N14      1.0000 0.53710  0.34520  0.22600  Biso   1.000  N
  C25      1.0000 0.83350  0.26740  0.32790  Biso   1.000  C
  C26      1.0000 0.48730  0.31980  0.33350  Biso   1.000  C
  C27      1.0000 0.73100  0.14380  0.03600  Biso   1.000  C
  C28      1.0000 0.83000  0.46200  0.04180  Biso   1.000  C
  H73      1.0000 0.52601  0.22733  0.11262  Biso   1.000  H
  H74      1.0000 0.57016  0.13929  0.09038  Biso   1.000  H
  H75      1.0000 0.60370  0.14773  0.87253  Biso   1.000  H
  H76      1.0000 0.67072  0.16152  0.11262  Biso   1.000  H
  H77      1.0000 0.78530  0.17302  0.96038  Biso   1.000  H
  H78      1.0000 0.74064  0.15247  0.17011  Biso   1.000  H
  H79      1.0000 0.70692  0.04776  0.09184  Biso   1.000  H
  H80      1.0000 0.72282  0.06600  0.87423  Biso   1.000  H
  H81      1.0000 0.89617  0.06164  0.11262  Biso   1.000  H
  H82      1.0000 0.57822  0.46406  0.11262  Biso   1.000  H
  H83      1.0000 0.76453  0.43649  0.11262  Biso   1.000  H
  H84      1.0000 0.68103  0.45025  0.11262  Biso   1.000  H
  N15      1.0000 0.21160  0.70770  0.21740  Biso   1.000  N
  N16      1.0000 0.46290  0.65480  0.22600  Biso   1.000  N
  C29      1.0000 0.16650  0.73260  0.32790  Biso   1.000  C
  C30      1.0000 0.51270  0.68020  0.33350  Biso   1.000  C
  C31      1.0000 0.26900  0.85620  0.03600  Biso   1.000  C
  C32      1.0000 0.17000  0.53800  0.04180  Biso   1.000  C
  H85      1.0000 0.47399  0.77267  0.11262  Biso   1.000  H
  H86      1.0000 0.42984  0.86071  0.09038  Biso   1.000  H
  H87      1.0000 0.39630  0.85227  0.87253  Biso   1.000  H
  H88      1.0000 0.32928  0.83848  0.11262  Biso   1.000  H
  H89      1.0000 0.21470  0.82698  0.96038  Biso   1.000  H
  H90      1.0000 0.25936  0.84753  0.17011  Biso   1.000  H
  H91      1.0000 0.29308  0.95224  0.09184  Biso   1.000  H
  H92      1.0000 0.27718  0.93400  0.87423  Biso   1.000  H
  H93      1.0000 0.10383  0.93836  0.11262  Biso   1.000  H
  H94      1.0000 0.42178  0.53594  0.11262  Biso   1.000  H
  H95      1.0000 0.23547  0.56351  0.11262  Biso   1.000  H
  H96      1.0000 0.31897  0.54975  0.11262  Biso   1.000  H
  Cd1      1.0000 0.16768  0.17723  0.00000  Biso   1.000  Cd
  N17      1.0000 0.07730  0.27440  0.00000  Biso   1.000  N
  N18      1.0000 0.21570  0.07230  0.00000  Biso   1.000  N
  C33      1.0000 0.11920  0.33440  0.00000  Biso   1.000  C
  C34      1.0000 0.25500  0.42600  0.00000  Biso   1.000  C
  C35      1.0000 0.35500  0.45610  0.00000  Biso   1.000  C
  C36      1.0000 0.12600  0.02560  0.00000  Biso   1.000  C
  C37      1.0000 0.04000  0.39400  0.00000  Biso   1.000  C
  C38      1.0000 0.14500  0.47200  0.00000  Biso   1.000  C
  C39      1.0000 0.33100  0.06100  0.00000  Biso   1.000  C
  Cd2      1.0000 0.83232  0.82277  0.00000  Biso   1.000  Cd
  N19      1.0000 0.92270  0.72560  0.00000  Biso   1.000  N
  N20      1.0000 0.78430  0.92770  0.00000  Biso   1.000  N
  C40      1.0000 0.88080  0.66560  0.00000  Biso   1.000  C
  C41      1.0000 0.74500  0.57400  0.00000  Biso   1.000  C
  C42      1.0000 0.64500  0.54390  0.00000  Biso   1.000  C
  C43      1.0000 0.87400  0.97440  0.00000  Biso   1.000  C
  C44      1.0000 0.96000  0.60600  0.00000  Biso   1.000  C
  C45      1.0000 0.85500  0.52800  0.00000  Biso   1.000  C
  C46      1.0000 0.66900  0.93900  0.00000  Biso   1.000  C
  Cd3      1.0000 0.33232  0.67723  0.00000  Biso   1.000  Cd
  N21      1.0000 0.42270  0.77440  0.00000  Biso   1.000  N
  N22      1.0000 0.28430  0.57230  0.00000  Biso   1.000  N
  C47      1.0000 0.38080  0.83440  0.00000  Biso   1.000  C
  C48      1.0000 0.24500  0.92600  0.00000  Biso   1.000  C
  C49      1.0000 0.14500  0.95610  0.00000  Biso   1.000  C
  C50      1.0000 0.37400  0.52560  0.00000  Biso   1.000  C
  C51      1.0000 0.46000  0.89400  0.00000  Biso   1.000  C
  C52      1.0000 0.35500  0.97200  0.00000  Biso   1.000  C
  C53      1.0000 0.16900  0.56100  0.00000  Biso   1.000  C
  Cd4      1.0000 0.66768  0.32277  0.00000  Biso   1.000  Cd
  N23      1.0000 0.57730  0.22560  0.00000  Biso   1.000  N
  N24      1.0000 0.71570  0.42770  0.00000  Biso   1.000  N
  C54      1.0000 0.61920  0.16560  0.00000  Biso   1.000  C
  C55      1.0000 0.75500  0.07400  0.00000  Biso   1.000  C
  C56      1.0000 0.85500  0.04390  0.00000  Biso   1.000  C
  C57      1.0000 0.62600  0.47440  0.00000  Biso   1.000  C
  C58      1.0000 0.54000  0.10600  0.00000  Biso   1.000  C
  C59      1.0000 0.64500  0.02800  0.00000  Biso   1.000  C
  C60      1.0000 0.83100  0.43900  0.00000  Biso   1.000  C
  Ni1      1.0000 0.40868  0.27655  0.50000  Biso   1.000  Ni
  Ni2      1.0000 0.59132  0.72345  0.50000  Biso   1.000  Ni
  Ni3      1.0000 0.09132  0.77655  0.50000  Biso   1.000  Ni
  Ni4      1.0000 0.90868  0.22345  0.50000  Biso   1.000  Ni
