data_image0
_cell_length_a       12.7827
_cell_length_b       12.7827
_cell_length_c       7.505
_cell_angle_alpha    90
_cell_angle_beta     90
_cell_angle_gamma    90

_symmetry_space_group_name_H-M    "P 1"
_symmetry_int_tables_number       1

loop_
  _symmetry_equiv_pos_as_xyz
  'x, y, z'

loop_
  _atom_site_label
  _atom_site_occupancy
  _atom_site_fract_x
  _atom_site_fract_y
  _atom_site_fract_z
  _atom_site_thermal_displace_type
  _atom_site_B_iso_or_equiv
  _atom_site_type_symbol
  O1       1.0000 0.53590  0.77320  0.17500  Biso   1.000  O
  O2       1.0000 0.35650  0.75430  0.18300  Biso   1.000  O
  C1       1.0000 0.44660  0.75980  0.10600  Biso   1.000  C
  H1       1.0000 0.65400  0.02700  0.09800  Biso   1.000  H
  H2       1.0000 0.47100  0.00100  0.04000  Biso   1.000  H
  O3       1.0000 0.03590  0.27320  0.67500  Biso   1.000  O
  O4       1.0000 0.85650  0.25430  0.68300  Biso   1.000  O
  C2       1.0000 0.94660  0.25980  0.60600  Biso   1.000  C
  H3       1.0000 0.15400  0.52700  0.59800  Biso   1.000  H
  H4       1.0000 0.97100  0.50100  0.54000  Biso   1.000  H
  O5       1.0000 0.46410  0.22680  0.17500  Biso   1.000  O
  O6       1.0000 0.64350  0.24570  0.18300  Biso   1.000  O
  C3       1.0000 0.55340  0.24020  0.10600  Biso   1.000  C
  H5       1.0000 0.34600  0.97300  0.09800  Biso   1.000  H
  H6       1.0000 0.52900  0.99900  0.04000  Biso   1.000  H
  O7       1.0000 0.96410  0.72680  0.67500  Biso   1.000  O
  O8       1.0000 0.14350  0.74570  0.68300  Biso   1.000  O
  C4       1.0000 0.05340  0.74020  0.60600  Biso   1.000  C
  H7       1.0000 0.84600  0.47300  0.59800  Biso   1.000  H
  H8       1.0000 0.02900  0.49900  0.54000  Biso   1.000  H
  O9       1.0000 0.22680  0.53590  0.17500  Biso   1.000  O
  O10      1.0000 0.24570  0.35650  0.18300  Biso   1.000  O
  C5       1.0000 0.24020  0.44660  0.10600  Biso   1.000  C
  H9       1.0000 0.97300  0.65400  0.09800  Biso   1.000  H
  H10      1.0000 0.99900  0.47100  0.04000  Biso   1.000  H
  O11      1.0000 0.72680  0.03590  0.67500  Biso   1.000  O
  O12      1.0000 0.74570  0.85650  0.68300  Biso   1.000  O
  C6       1.0000 0.74020  0.94660  0.60600  Biso   1.000  C
  H11      1.0000 0.47300  0.15400  0.59800  Biso   1.000  H
  H12      1.0000 0.49900  0.97100  0.54000  Biso   1.000  H
  O13      1.0000 0.77320  0.46410  0.17500  Biso   1.000  O
  O14      1.0000 0.75430  0.64350  0.18300  Biso   1.000  O
  C7       1.0000 0.75980  0.55340  0.10600  Biso   1.000  C
  H13      1.0000 0.02700  0.34600  0.09800  Biso   1.000  H
  H14      1.0000 0.00100  0.52900  0.04000  Biso   1.000  H
  O15      1.0000 0.27320  0.96410  0.67500  Biso   1.000  O
  O16      1.0000 0.25430  0.14350  0.68300  Biso   1.000  O
  C8       1.0000 0.25980  0.05340  0.60600  Biso   1.000  C
  H15      1.0000 0.52700  0.84600  0.59800  Biso   1.000  H
  H16      1.0000 0.50100  0.02900  0.54000  Biso   1.000  H
  O17      1.0000 0.46410  0.22680  0.82500  Biso   1.000  O
  O18      1.0000 0.64350  0.24570  0.81700  Biso   1.000  O
  C9       1.0000 0.55340  0.24020  0.89400  Biso   1.000  C
  H17      1.0000 0.34600  0.97300  0.90200  Biso   1.000  H
  H18      1.0000 0.52900  0.99900  0.96000  Biso   1.000  H
  O19      1.0000 0.96410  0.72680  0.32500  Biso   1.000  O
  O20      1.0000 0.14350  0.74570  0.31700  Biso   1.000  O
  C10      1.0000 0.05340  0.74020  0.39400  Biso   1.000  C
  H19      1.0000 0.84600  0.47300  0.40200  Biso   1.000  H
  H20      1.0000 0.02900  0.49900  0.46000  Biso   1.000  H
  O21      1.0000 0.53590  0.77320  0.82500  Biso   1.000  O
  O22      1.0000 0.35650  0.75430  0.81700  Biso   1.000  O
  C11      1.0000 0.44660  0.75980  0.89400  Biso   1.000  C
  H21      1.0000 0.65400  0.02700  0.90200  Biso   1.000  H
  H22      1.0000 0.47100  0.00100  0.96000  Biso   1.000  H
  O23      1.0000 0.03590  0.27320  0.32500  Biso   1.000  O
  O24      1.0000 0.85650  0.25430  0.31700  Biso   1.000  O
  C12      1.0000 0.94660  0.25980  0.39400  Biso   1.000  C
  H23      1.0000 0.15400  0.52700  0.40200  Biso   1.000  H
  H24      1.0000 0.97100  0.50100  0.46000  Biso   1.000  H
  O25      1.0000 0.77320  0.46410  0.82500  Biso   1.000  O
  O26      1.0000 0.75430  0.64350  0.81700  Biso   1.000  O
  C13      1.0000 0.75980  0.55340  0.89400  Biso   1.000  C
  H25      1.0000 0.02700  0.34600  0.90200  Biso   1.000  H
  H26      1.0000 0.00100  0.52900  0.96000  Biso   1.000  H
  O27      1.0000 0.27320  0.96410  0.32500  Biso   1.000  O
  O28      1.0000 0.25430  0.14350  0.31700  Biso   1.000  O
  C14      1.0000 0.25980  0.05340  0.39400  Biso   1.000  C
  H27      1.0000 0.52700  0.84600  0.40200  Biso   1.000  H
  H28      1.0000 0.50100  0.02900  0.46000  Biso   1.000  H
  O29      1.0000 0.22680  0.53590  0.82500  Biso   1.000  O
  O30      1.0000 0.24570  0.35650  0.81700  Biso   1.000  O
  C15      1.0000 0.24020  0.44660  0.89400  Biso   1.000  C
  H29      1.0000 0.97300  0.65400  0.90200  Biso   1.000  H
  H30      1.0000 0.99900  0.47100  0.96000  Biso   1.000  H
  O31      1.0000 0.72680  0.03590  0.32500  Biso   1.000  O
  O32      1.0000 0.74570  0.85650  0.31700  Biso   1.000  O
  C16      1.0000 0.74020  0.94660  0.39400  Biso   1.000  C
  H31      1.0000 0.47300  0.15400  0.40200  Biso   1.000  H
  H32      1.0000 0.49900  0.97100  0.46000  Biso   1.000  H
  O33      1.0000 0.61400  0.98500  0.00000  Biso   1.000  O
  Sr1      1.0000 0.69820  0.80450  0.00000  Biso   1.000  Sr
  O34      1.0000 0.11400  0.48500  0.50000  Biso   1.000  O
  Sr2      1.0000 0.19820  0.30450  0.50000  Biso   1.000  Sr
  O35      1.0000 0.38600  0.01500  0.00000  Biso   1.000  O
  Sr3      1.0000 0.30180  0.19550  0.00000  Biso   1.000  Sr
  O36      1.0000 0.88600  0.51500  0.50000  Biso   1.000  O
  Sr4      1.0000 0.80180  0.69550  0.50000  Biso   1.000  Sr
  O37      1.0000 0.01500  0.61400  0.00000  Biso   1.000  O
  Sr5      1.0000 0.19550  0.69820  0.00000  Biso   1.000  Sr
  O38      1.0000 0.51500  0.11400  0.50000  Biso   1.000  O
  Sr6      1.0000 0.69550  0.19820  0.50000  Biso   1.000  Sr
  O39      1.0000 0.98500  0.38600  0.00000  Biso   1.000  O
  Sr7      1.0000 0.80450  0.30180  0.00000  Biso   1.000  Sr
  O40      1.0000 0.48500  0.88600  0.50000  Biso   1.000  O
  Sr8      1.0000 0.30450  0.80180  0.50000  Biso   1.000  Sr
