data_image0
_cell_length_a       12.236
_cell_length_b       14.029
_cell_length_c       8.494
_cell_angle_alpha    90
_cell_angle_beta     90
_cell_angle_gamma    90

_symmetry_space_group_name_H-M    "P 1"
_symmetry_int_tables_number       1

loop_
  _symmetry_equiv_pos_as_xyz
  'x, y, z'

loop_
  _atom_site_label
  _atom_site_occupancy
  _atom_site_fract_x
  _atom_site_fract_y
  _atom_site_fract_z
  _atom_site_thermal_displace_type
  _atom_site_B_iso_or_equiv
  _atom_site_type_symbol
  P1       1.0000 0.13440  0.88210  0.67270  Biso   1.000  P
  O1       1.0000 0.09980  0.78950  0.75150  Biso   1.000  O
  O2       1.0000 0.24350  0.91210  0.74720  Biso   1.000  O
  P2       1.0000 0.63440  0.38210  0.67270  Biso   1.000  P
  O3       1.0000 0.59980  0.28950  0.75150  Biso   1.000  O
  O4       1.0000 0.74350  0.41210  0.74720  Biso   1.000  O
  P3       1.0000 0.86560  0.11790  0.67270  Biso   1.000  P
  O5       1.0000 0.90020  0.21050  0.75150  Biso   1.000  O
  O6       1.0000 0.75650  0.08790  0.74720  Biso   1.000  O
  P4       1.0000 0.36560  0.61790  0.67270  Biso   1.000  P
  O7       1.0000 0.40020  0.71050  0.75150  Biso   1.000  O
  O8       1.0000 0.25650  0.58790  0.74720  Biso   1.000  O
  P5       1.0000 0.86560  0.88210  0.32730  Biso   1.000  P
  O9       1.0000 0.90020  0.78950  0.24850  Biso   1.000  O
  O10      1.0000 0.75650  0.91210  0.25280  Biso   1.000  O
  P6       1.0000 0.36560  0.38210  0.32730  Biso   1.000  P
  O11      1.0000 0.40020  0.28950  0.24850  Biso   1.000  O
  O12      1.0000 0.25650  0.41210  0.25280  Biso   1.000  O
  P7       1.0000 0.13440  0.11790  0.32730  Biso   1.000  P
  O13      1.0000 0.09980  0.21050  0.24850  Biso   1.000  O
  O14      1.0000 0.24350  0.08790  0.25280  Biso   1.000  O
  P8       1.0000 0.63440  0.61790  0.32730  Biso   1.000  P
  O15      1.0000 0.59980  0.71050  0.24850  Biso   1.000  O
  O16      1.0000 0.74350  0.58790  0.25280  Biso   1.000  O
  P9       1.0000 0.86560  0.11790  0.32730  Biso   1.000  P
  O17      1.0000 0.90020  0.21050  0.24850  Biso   1.000  O
  O18      1.0000 0.75650  0.08790  0.25280  Biso   1.000  O
  P10      1.0000 0.36560  0.61790  0.32730  Biso   1.000  P
  O19      1.0000 0.40020  0.71050  0.24850  Biso   1.000  O
  O20      1.0000 0.25650  0.58790  0.25280  Biso   1.000  O
  P11      1.0000 0.13440  0.88210  0.32730  Biso   1.000  P
  O21      1.0000 0.09980  0.78950  0.24850  Biso   1.000  O
  O22      1.0000 0.24350  0.91210  0.25280  Biso   1.000  O
  P12      1.0000 0.63440  0.38210  0.32730  Biso   1.000  P
  O23      1.0000 0.59980  0.28950  0.24850  Biso   1.000  O
  O24      1.0000 0.74350  0.41210  0.25280  Biso   1.000  O
  P13      1.0000 0.13440  0.11790  0.67270  Biso   1.000  P
  O25      1.0000 0.09980  0.21050  0.75150  Biso   1.000  O
  O26      1.0000 0.24350  0.08790  0.74720  Biso   1.000  O
  P14      1.0000 0.63440  0.61790  0.67270  Biso   1.000  P
  O27      1.0000 0.59980  0.71050  0.75150  Biso   1.000  O
  O28      1.0000 0.74350  0.58790  0.74720  Biso   1.000  O
  P15      1.0000 0.86560  0.88210  0.67270  Biso   1.000  P
  O29      1.0000 0.90020  0.78950  0.75150  Biso   1.000  O
  O30      1.0000 0.75650  0.91210  0.74720  Biso   1.000  O
  P16      1.0000 0.36560  0.38210  0.67270  Biso   1.000  P
  O31      1.0000 0.40020  0.28950  0.75150  Biso   1.000  O
  O32      1.0000 0.25650  0.41210  0.74720  Biso   1.000  O
  I1       1.0000 0.00000  0.00000  0.00000  Biso   1.000  I
  I2       1.0000 0.50000  0.50000  0.00000  Biso   1.000  I
  Pt1      1.0000 0.00000  0.00000  0.66510  Biso   1.000  Pt
  Pt2      1.0000 0.50000  0.50000  0.66510  Biso   1.000  Pt
  Pt3      1.0000 0.00000  0.00000  0.33490  Biso   1.000  Pt
  Pt4      1.0000 0.50000  0.50000  0.33490  Biso   1.000  Pt
  K1       1.0000 0.22870  0.74350  0.00000  Biso   1.000  K
  K2       1.0000 0.72870  0.24350  0.00000  Biso   1.000  K
  K3       1.0000 0.77130  0.25650  0.00000  Biso   1.000  K
  K4       1.0000 0.27130  0.75650  0.00000  Biso   1.000  K
  K5       1.0000 0.77130  0.74350  0.00000  Biso   1.000  K
  K6       1.0000 0.27130  0.24350  0.00000  Biso   1.000  K
  K7       1.0000 0.22870  0.25650  0.00000  Biso   1.000  K
  K8       1.0000 0.72870  0.75650  0.00000  Biso   1.000  K
  O33      1.0000 0.16780  0.84910  0.50000  Biso   1.000  O
  O34      1.0000 0.66780  0.34910  0.50000  Biso   1.000  O
  O35      1.0000 0.83220  0.15090  0.50000  Biso   1.000  O
  O36      1.0000 0.33220  0.65090  0.50000  Biso   1.000  O
  O37      1.0000 0.83220  0.84910  0.50000  Biso   1.000  O
  O38      1.0000 0.33220  0.34910  0.50000  Biso   1.000  O
  O39      1.0000 0.16780  0.15090  0.50000  Biso   1.000  O
  O40      1.0000 0.66780  0.65090  0.50000  Biso   1.000  O
