data_image0
_cell_length_a       20.7475
_cell_length_b       20.7475
_cell_length_c       20.7475
_cell_angle_alpha    90
_cell_angle_beta     90
_cell_angle_gamma    90

_symmetry_space_group_name_H-M    "P 1"
_symmetry_int_tables_number       1

loop_
  _symmetry_equiv_pos_as_xyz
  'x, y, z'

loop_
  _atom_site_label
  _atom_site_occupancy
  _atom_site_fract_x
  _atom_site_fract_y
  _atom_site_fract_z
  _atom_site_thermal_displace_type
  _atom_site_B_iso_or_equiv
  _atom_site_type_symbol
  Zr1      1.0000 0.11957  0.00000  0.00000  Biso   1.000  Zr
  Zr2      1.0000 0.11957  0.50000  0.50000  Biso   1.000  Zr
  Zr3      1.0000 0.61957  0.00000  0.50000  Biso   1.000  Zr
  Zr4      1.0000 0.61957  0.50000  0.00000  Biso   1.000  Zr
  Zr5      1.0000 0.88043  0.00000  0.00000  Biso   1.000  Zr
  Zr6      1.0000 0.88043  0.50000  0.50000  Biso   1.000  Zr
  Zr7      1.0000 0.38043  0.00000  0.50000  Biso   1.000  Zr
  Zr8      1.0000 0.38043  0.50000  0.00000  Biso   1.000  Zr
  Zr9      1.0000 0.00000  0.11957  0.00000  Biso   1.000  Zr
  Zr10     1.0000 0.00000  0.61957  0.50000  Biso   1.000  Zr
  Zr11     1.0000 0.50000  0.11957  0.50000  Biso   1.000  Zr
  Zr12     1.0000 0.50000  0.61957  0.00000  Biso   1.000  Zr
  Zr13     1.0000 0.00000  0.88043  0.00000  Biso   1.000  Zr
  Zr14     1.0000 0.00000  0.38043  0.50000  Biso   1.000  Zr
  Zr15     1.0000 0.50000  0.88043  0.50000  Biso   1.000  Zr
  Zr16     1.0000 0.50000  0.38043  0.00000  Biso   1.000  Zr
  Zr17     1.0000 0.00000  0.00000  0.11957  Biso   1.000  Zr
  Zr18     1.0000 0.00000  0.50000  0.61957  Biso   1.000  Zr
  Zr19     1.0000 0.50000  0.00000  0.61957  Biso   1.000  Zr
  Zr20     1.0000 0.50000  0.50000  0.11957  Biso   1.000  Zr
  Zr21     1.0000 0.00000  0.00000  0.88043  Biso   1.000  Zr
  Zr22     1.0000 0.00000  0.50000  0.38043  Biso   1.000  Zr
  Zr23     1.0000 0.50000  0.00000  0.38043  Biso   1.000  Zr
  Zr24     1.0000 0.50000  0.50000  0.88043  Biso   1.000  Zr
  O1       1.0000 0.16983  0.09448  0.00000  Biso   1.000  O
  C1       1.0000 0.18575  0.26721  0.00000  Biso   1.000  C
  H1       1.0000 0.14150  0.27900  0.00000  Biso   1.000  H
  O2       1.0000 0.18520  0.07860  0.00000  Biso   1.000  O
  O3       1.0000 0.16983  0.59448  0.50000  Biso   1.000  O
  C2       1.0000 0.18575  0.76721  0.50000  Biso   1.000  C
  H2       1.0000 0.14150  0.77900  0.50000  Biso   1.000  H
  O4       1.0000 0.18520  0.57860  0.50000  Biso   1.000  O
  O5       1.0000 0.66983  0.09448  0.50000  Biso   1.000  O
  C3       1.0000 0.68575  0.26721  0.50000  Biso   1.000  C
  H3       1.0000 0.64150  0.27900  0.50000  Biso   1.000  H
  O6       1.0000 0.68520  0.07860  0.50000  Biso   1.000  O
  O7       1.0000 0.66983  0.59448  0.00000  Biso   1.000  O
  C4       1.0000 0.68575  0.76721  0.00000  Biso   1.000  C
  H4       1.0000 0.64150  0.77900  0.00000  Biso   1.000  H
  O8       1.0000 0.68520  0.57860  0.00000  Biso   1.000  O
  O9       1.0000 0.83017  0.90552  0.00000  Biso   1.000  O
  C5       1.0000 0.81425  0.73279  0.00000  Biso   1.000  C
  H5       1.0000 0.85850  0.72100  0.00000  Biso   1.000  H
  O10      1.0000 0.81480  0.92140  0.00000  Biso   1.000  O
  O11      1.0000 0.83017  0.40552  0.50000  Biso   1.000  O
  C6       1.0000 0.81425  0.23279  0.50000  Biso   1.000  C
  H6       1.0000 0.85850  0.22100  0.50000  Biso   1.000  H
  O12      1.0000 0.81480  0.42140  0.50000  Biso   1.000  O
  O13      1.0000 0.33017  0.90552  0.50000  Biso   1.000  O
  C7       1.0000 0.31425  0.73279  0.50000  Biso   1.000  C
  H7       1.0000 0.35850  0.72100  0.50000  Biso   1.000  H
  O14      1.0000 0.31480  0.92140  0.50000  Biso   1.000  O
  O15      1.0000 0.33017  0.40552  0.00000  Biso   1.000  O
  C8       1.0000 0.31425  0.23279  0.00000  Biso   1.000  C
  H8       1.0000 0.35850  0.22100  0.00000  Biso   1.000  H
  O16      1.0000 0.31480  0.42140  0.00000  Biso   1.000  O
  O17      1.0000 0.83017  0.09448  0.00000  Biso   1.000  O
  C9       1.0000 0.81425  0.26721  0.00000  Biso   1.000  C
  H9       1.0000 0.85850  0.27900  0.00000  Biso   1.000  H
  O18      1.0000 0.81480  0.07860  0.00000  Biso   1.000  O
  O19      1.0000 0.83017  0.59448  0.50000  Biso   1.000  O
  C10      1.0000 0.81425  0.76721  0.50000  Biso   1.000  C
  H10      1.0000 0.85850  0.77900  0.50000  Biso   1.000  H
  O20      1.0000 0.81480  0.57860  0.50000  Biso   1.000  O
  O21      1.0000 0.33017  0.09448  0.50000  Biso   1.000  O
  C11      1.0000 0.31425  0.26721  0.50000  Biso   1.000  C
  H11      1.0000 0.35850  0.27900  0.50000  Biso   1.000  H
  O22      1.0000 0.31480  0.07860  0.50000  Biso   1.000  O
  O23      1.0000 0.33017  0.59448  0.00000  Biso   1.000  O
  C12      1.0000 0.31425  0.76721  0.00000  Biso   1.000  C
  H12      1.0000 0.35850  0.77900  0.00000  Biso   1.000  H
  O24      1.0000 0.31480  0.57860  0.00000  Biso   1.000  O
  O25      1.0000 0.16983  0.90552  0.00000  Biso   1.000  O
  C13      1.0000 0.18575  0.73279  0.00000  Biso   1.000  C
  H13      1.0000 0.14150  0.72100  0.00000  Biso   1.000  H
  O26      1.0000 0.18520  0.92140  0.00000  Biso   1.000  O
  O27      1.0000 0.16983  0.40552  0.50000  Biso   1.000  O
  C14      1.0000 0.18575  0.23279  0.50000  Biso   1.000  C
  H14      1.0000 0.14150  0.22100  0.50000  Biso   1.000  H
  O28      1.0000 0.18520  0.42140  0.50000  Biso   1.000  O
  O29      1.0000 0.66983  0.90552  0.50000  Biso   1.000  O
  C15      1.0000 0.68575  0.73279  0.50000  Biso   1.000  C
  H15      1.0000 0.64150  0.72100  0.50000  Biso   1.000  H
  O30      1.0000 0.68520  0.92140  0.50000  Biso   1.000  O
  O31      1.0000 0.66983  0.40552  0.00000  Biso   1.000  O
  C16      1.0000 0.68575  0.23279  0.00000  Biso   1.000  C
  H16      1.0000 0.64150  0.22100  0.00000  Biso   1.000  H
  O32      1.0000 0.68520  0.42140  0.00000  Biso   1.000  O
  O33      1.0000 0.00000  0.16983  0.09448  Biso   1.000  O
  C17      1.0000 0.00000  0.18575  0.26721  Biso   1.000  C
  H17      1.0000 0.00000  0.14150  0.27900  Biso   1.000  H
  O34      1.0000 0.00000  0.18520  0.07860  Biso   1.000  O
  O35      1.0000 0.00000  0.66983  0.59448  Biso   1.000  O
  C18      1.0000 0.00000  0.68575  0.76721  Biso   1.000  C
  H18      1.0000 0.00000  0.64150  0.77900  Biso   1.000  H
  O36      1.0000 0.00000  0.68520  0.57860  Biso   1.000  O
  O37      1.0000 0.50000  0.16983  0.59448  Biso   1.000  O
  C19      1.0000 0.50000  0.18575  0.76721  Biso   1.000  C
  H19      1.0000 0.50000  0.14150  0.77900  Biso   1.000  H
  O38      1.0000 0.50000  0.18520  0.57860  Biso   1.000  O
  O39      1.0000 0.50000  0.66983  0.09448  Biso   1.000  O
  C20      1.0000 0.50000  0.68575  0.26721  Biso   1.000  C
  H20      1.0000 0.50000  0.64150  0.27900  Biso   1.000  H
  O40      1.0000 0.50000  0.68520  0.07860  Biso   1.000  O
  O41      1.0000 0.00000  0.83017  0.90552  Biso   1.000  O
  C21      1.0000 0.00000  0.81425  0.73279  Biso   1.000  C
  H21      1.0000 0.00000  0.85850  0.72100  Biso   1.000  H
  O42      1.0000 0.00000  0.81480  0.92140  Biso   1.000  O
  O43      1.0000 0.00000  0.33017  0.40552  Biso   1.000  O
  C22      1.0000 0.00000  0.31425  0.23279  Biso   1.000  C
  H22      1.0000 0.00000  0.35850  0.22100  Biso   1.000  H
  O44      1.0000 0.00000  0.31480  0.42140  Biso   1.000  O
  O45      1.0000 0.50000  0.83017  0.40552  Biso   1.000  O
  C23      1.0000 0.50000  0.81425  0.23279  Biso   1.000  C
  H23      1.0000 0.50000  0.85850  0.22100  Biso   1.000  H
  O46      1.0000 0.50000  0.81480  0.42140  Biso   1.000  O
  O47      1.0000 0.50000  0.33017  0.90552  Biso   1.000  O
  C24      1.0000 0.50000  0.31425  0.73279  Biso   1.000  C
  H24      1.0000 0.50000  0.35850  0.72100  Biso   1.000  H
  O48      1.0000 0.50000  0.31480  0.92140  Biso   1.000  O
  O49      1.0000 0.00000  0.83017  0.09448  Biso   1.000  O
  C25      1.0000 0.00000  0.81425  0.26721  Biso   1.000  C
  H25      1.0000 0.00000  0.85850  0.27900  Biso   1.000  H
  O50      1.0000 0.00000  0.81480  0.07860  Biso   1.000  O
  O51      1.0000 0.00000  0.33017  0.59448  Biso   1.000  O
  C26      1.0000 0.00000  0.31425  0.76721  Biso   1.000  C
  H26      1.0000 0.00000  0.35850  0.77900  Biso   1.000  H
  O52      1.0000 0.00000  0.31480  0.57860  Biso   1.000  O
  O53      1.0000 0.50000  0.83017  0.59448  Biso   1.000  O
  C27      1.0000 0.50000  0.81425  0.76721  Biso   1.000  C
  H27      1.0000 0.50000  0.85850  0.77900  Biso   1.000  H
  O54      1.0000 0.50000  0.81480  0.57860  Biso   1.000  O
  O55      1.0000 0.50000  0.33017  0.09448  Biso   1.000  O
  C28      1.0000 0.50000  0.31425  0.26721  Biso   1.000  C
  H28      1.0000 0.50000  0.35850  0.27900  Biso   1.000  H
  O56      1.0000 0.50000  0.31480  0.07860  Biso   1.000  O
  O57      1.0000 0.00000  0.16983  0.90552  Biso   1.000  O
  C29      1.0000 0.00000  0.18575  0.73279  Biso   1.000  C
  H29      1.0000 0.00000  0.14150  0.72100  Biso   1.000  H
  O58      1.0000 0.00000  0.18520  0.92140  Biso   1.000  O
  O59      1.0000 0.00000  0.66983  0.40552  Biso   1.000  O
  C30      1.0000 0.00000  0.68575  0.23279  Biso   1.000  C
  H30      1.0000 0.00000  0.64150  0.22100  Biso   1.000  H
  O60      1.0000 0.00000  0.68520  0.42140  Biso   1.000  O
  O61      1.0000 0.50000  0.16983  0.40552  Biso   1.000  O
  C31      1.0000 0.50000  0.18575  0.23279  Biso   1.000  C
  H31      1.0000 0.50000  0.14150  0.22100  Biso   1.000  H
  O62      1.0000 0.50000  0.18520  0.42140  Biso   1.000  O
  O63      1.0000 0.50000  0.66983  0.90552  Biso   1.000  O
  C32      1.0000 0.50000  0.68575  0.73279  Biso   1.000  C
  H32      1.0000 0.50000  0.64150  0.72100  Biso   1.000  H
  O64      1.0000 0.50000  0.68520  0.92140  Biso   1.000  O
  O65      1.0000 0.09448  0.00000  0.16983  Biso   1.000  O
  C33      1.0000 0.26721  0.00000  0.18575  Biso   1.000  C
  H33      1.0000 0.27900  0.00000  0.14150  Biso   1.000  H
  O66      1.0000 0.07860  0.00000  0.18520  Biso   1.000  O
  O67      1.0000 0.09448  0.50000  0.66983  Biso   1.000  O
  C34      1.0000 0.26721  0.50000  0.68575  Biso   1.000  C
  H34      1.0000 0.27900  0.50000  0.64150  Biso   1.000  H
  O68      1.0000 0.07860  0.50000  0.68520  Biso   1.000  O
  O69      1.0000 0.59448  0.00000  0.66983  Biso   1.000  O
  C35      1.0000 0.76721  0.00000  0.68575  Biso   1.000  C
  H35      1.0000 0.77900  0.00000  0.64150  Biso   1.000  H
  O70      1.0000 0.57860  0.00000  0.68520  Biso   1.000  O
  O71      1.0000 0.59448  0.50000  0.16983  Biso   1.000  O
  C36      1.0000 0.76721  0.50000  0.18575  Biso   1.000  C
  H36      1.0000 0.77900  0.50000  0.14150  Biso   1.000  H
  O72      1.0000 0.57860  0.50000  0.18520  Biso   1.000  O
  O73      1.0000 0.90552  0.00000  0.83017  Biso   1.000  O
  C37      1.0000 0.73279  0.00000  0.81425  Biso   1.000  C
  H37      1.0000 0.72100  0.00000  0.85850  Biso   1.000  H
  O74      1.0000 0.92140  0.00000  0.81480  Biso   1.000  O
  O75      1.0000 0.90552  0.50000  0.33017  Biso   1.000  O
  C38      1.0000 0.73279  0.50000  0.31425  Biso   1.000  C
  H38      1.0000 0.72100  0.50000  0.35850  Biso   1.000  H
  O76      1.0000 0.92140  0.50000  0.31480  Biso   1.000  O
  O77      1.0000 0.40552  0.00000  0.33017  Biso   1.000  O
  C39      1.0000 0.23279  0.00000  0.31425  Biso   1.000  C
  H39      1.0000 0.22100  0.00000  0.35850  Biso   1.000  H
  O78      1.0000 0.42140  0.00000  0.31480  Biso   1.000  O
  O79      1.0000 0.40552  0.50000  0.83017  Biso   1.000  O
  C40      1.0000 0.23279  0.50000  0.81425  Biso   1.000  C
  H40      1.0000 0.22100  0.50000  0.85850  Biso   1.000  H
  O80      1.0000 0.42140  0.50000  0.81480  Biso   1.000  O
  O81      1.0000 0.09448  0.00000  0.83017  Biso   1.000  O
  C41      1.0000 0.26721  0.00000  0.81425  Biso   1.000  C
  H41      1.0000 0.27900  0.00000  0.85850  Biso   1.000  H
  O82      1.0000 0.07860  0.00000  0.81480  Biso   1.000  O
  O83      1.0000 0.09448  0.50000  0.33017  Biso   1.000  O
  C42      1.0000 0.26721  0.50000  0.31425  Biso   1.000  C
  H42      1.0000 0.27900  0.50000  0.35850  Biso   1.000  H
  O84      1.0000 0.07860  0.50000  0.31480  Biso   1.000  O
  O85      1.0000 0.59448  0.00000  0.33017  Biso   1.000  O
  C43      1.0000 0.76721  0.00000  0.31425  Biso   1.000  C
  H43      1.0000 0.77900  0.00000  0.35850  Biso   1.000  H
  O86      1.0000 0.57860  0.00000  0.31480  Biso   1.000  O
  O87      1.0000 0.59448  0.50000  0.83017  Biso   1.000  O
  C44      1.0000 0.76721  0.50000  0.81425  Biso   1.000  C
  H44      1.0000 0.77900  0.50000  0.85850  Biso   1.000  H
  O88      1.0000 0.57860  0.50000  0.81480  Biso   1.000  O
  O89      1.0000 0.90552  0.00000  0.16983  Biso   1.000  O
  C45      1.0000 0.73279  0.00000  0.18575  Biso   1.000  C
  H45      1.0000 0.72100  0.00000  0.14150  Biso   1.000  H
  O90      1.0000 0.92140  0.00000  0.18520  Biso   1.000  O
  O91      1.0000 0.90552  0.50000  0.66983  Biso   1.000  O
  C46      1.0000 0.73279  0.50000  0.68575  Biso   1.000  C
  H46      1.0000 0.72100  0.50000  0.64150  Biso   1.000  H
  O92      1.0000 0.92140  0.50000  0.68520  Biso   1.000  O
  O93      1.0000 0.40552  0.00000  0.66983  Biso   1.000  O
  C47      1.0000 0.23279  0.00000  0.68575  Biso   1.000  C
  H47      1.0000 0.22100  0.00000  0.64150  Biso   1.000  H
  O94      1.0000 0.42140  0.00000  0.68520  Biso   1.000  O
  O95      1.0000 0.40552  0.50000  0.16983  Biso   1.000  O
  C48      1.0000 0.23279  0.50000  0.18575  Biso   1.000  C
  H48      1.0000 0.22100  0.50000  0.14150  Biso   1.000  H
  O96      1.0000 0.42140  0.50000  0.18520  Biso   1.000  O
  O97      1.0000 0.09448  0.16983  0.00000  Biso   1.000  O
  C49      1.0000 0.26721  0.18575  0.00000  Biso   1.000  C
  H49      1.0000 0.27900  0.14150  0.00000  Biso   1.000  H
  O98      1.0000 0.07860  0.18520  0.00000  Biso   1.000  O
  O99      1.0000 0.09448  0.66983  0.50000  Biso   1.000  O
  C50      1.0000 0.26721  0.68575  0.50000  Biso   1.000  C
  H50      1.0000 0.27900  0.64150  0.50000  Biso   1.000  H
  O100     1.0000 0.07860  0.68520  0.50000  Biso   1.000  O
  O101     1.0000 0.59448  0.16983  0.50000  Biso   1.000  O
  C51      1.0000 0.76721  0.18575  0.50000  Biso   1.000  C
  H51      1.0000 0.77900  0.14150  0.50000  Biso   1.000  H
  O102     1.0000 0.57860  0.18520  0.50000  Biso   1.000  O
  O103     1.0000 0.59448  0.66983  0.00000  Biso   1.000  O
  C52      1.0000 0.76721  0.68575  0.00000  Biso   1.000  C
  H52      1.0000 0.77900  0.64150  0.00000  Biso   1.000  H
  O104     1.0000 0.57860  0.68520  0.00000  Biso   1.000  O
  O105     1.0000 0.90552  0.83017  0.00000  Biso   1.000  O
  C53      1.0000 0.73279  0.81425  0.00000  Biso   1.000  C
  H53      1.0000 0.72100  0.85850  0.00000  Biso   1.000  H
  O106     1.0000 0.92140  0.81480  0.00000  Biso   1.000  O
  O107     1.0000 0.90552  0.33017  0.50000  Biso   1.000  O
  C54      1.0000 0.73279  0.31425  0.50000  Biso   1.000  C
  H54      1.0000 0.72100  0.35850  0.50000  Biso   1.000  H
  O108     1.0000 0.92140  0.31480  0.50000  Biso   1.000  O
  O109     1.0000 0.40552  0.83017  0.50000  Biso   1.000  O
  C55      1.0000 0.23279  0.81425  0.50000  Biso   1.000  C
  H55      1.0000 0.22100  0.85850  0.50000  Biso   1.000  H
  O110     1.0000 0.42140  0.81480  0.50000  Biso   1.000  O
  O111     1.0000 0.40552  0.33017  0.00000  Biso   1.000  O
  C56      1.0000 0.23279  0.31425  0.00000  Biso   1.000  C
  H56      1.0000 0.22100  0.35850  0.00000  Biso   1.000  H
  O112     1.0000 0.42140  0.31480  0.00000  Biso   1.000  O
  O113     1.0000 0.09448  0.83017  0.00000  Biso   1.000  O
  C57      1.0000 0.26721  0.81425  0.00000  Biso   1.000  C
  H57      1.0000 0.27900  0.85850  0.00000  Biso   1.000  H
  O114     1.0000 0.07860  0.81480  0.00000  Biso   1.000  O
  O115     1.0000 0.09448  0.33017  0.50000  Biso   1.000  O
  C58      1.0000 0.26721  0.31425  0.50000  Biso   1.000  C
  H58      1.0000 0.27900  0.35850  0.50000  Biso   1.000  H
  O116     1.0000 0.07860  0.31480  0.50000  Biso   1.000  O
  O117     1.0000 0.59448  0.83017  0.50000  Biso   1.000  O
  C59      1.0000 0.76721  0.81425  0.50000  Biso   1.000  C
  H59      1.0000 0.77900  0.85850  0.50000  Biso   1.000  H
  O118     1.0000 0.57860  0.81480  0.50000  Biso   1.000  O
  O119     1.0000 0.59448  0.33017  0.00000  Biso   1.000  O
  C60      1.0000 0.76721  0.31425  0.00000  Biso   1.000  C
  H60      1.0000 0.77900  0.35850  0.00000  Biso   1.000  H
  O120     1.0000 0.57860  0.31480  0.00000  Biso   1.000  O
  O121     1.0000 0.90552  0.16983  0.00000  Biso   1.000  O
  C61      1.0000 0.73279  0.18575  0.00000  Biso   1.000  C
  H61      1.0000 0.72100  0.14150  0.00000  Biso   1.000  H
  O122     1.0000 0.92140  0.18520  0.00000  Biso   1.000  O
  O123     1.0000 0.90552  0.66983  0.50000  Biso   1.000  O
  C62      1.0000 0.73279  0.68575  0.50000  Biso   1.000  C
  H62      1.0000 0.72100  0.64150  0.50000  Biso   1.000  H
  O124     1.0000 0.92140  0.68520  0.50000  Biso   1.000  O
  O125     1.0000 0.40552  0.16983  0.50000  Biso   1.000  O
  C63      1.0000 0.23279  0.18575  0.50000  Biso   1.000  C
  H63      1.0000 0.22100  0.14150  0.50000  Biso   1.000  H
  O126     1.0000 0.42140  0.18520  0.50000  Biso   1.000  O
  O127     1.0000 0.40552  0.66983  0.00000  Biso   1.000  O
  C64      1.0000 0.23279  0.68575  0.00000  Biso   1.000  C
  H64      1.0000 0.22100  0.64150  0.00000  Biso   1.000  H
  O128     1.0000 0.42140  0.68520  0.00000  Biso   1.000  O
  O129     1.0000 0.16983  0.00000  0.90552  Biso   1.000  O
  C65      1.0000 0.18575  0.00000  0.73279  Biso   1.000  C
  H65      1.0000 0.14150  0.00000  0.72100  Biso   1.000  H
  O130     1.0000 0.18520  0.00000  0.92140  Biso   1.000  O
  O131     1.0000 0.16983  0.50000  0.40552  Biso   1.000  O
  C66      1.0000 0.18575  0.50000  0.23279  Biso   1.000  C
  H66      1.0000 0.14150  0.50000  0.22100  Biso   1.000  H
  O132     1.0000 0.18520  0.50000  0.42140  Biso   1.000  O
  O133     1.0000 0.66983  0.00000  0.40552  Biso   1.000  O
  C67      1.0000 0.68575  0.00000  0.23279  Biso   1.000  C
  H67      1.0000 0.64150  0.00000  0.22100  Biso   1.000  H
  O134     1.0000 0.68520  0.00000  0.42140  Biso   1.000  O
  O135     1.0000 0.66983  0.50000  0.90552  Biso   1.000  O
  C68      1.0000 0.68575  0.50000  0.73279  Biso   1.000  C
  H68      1.0000 0.64150  0.50000  0.72100  Biso   1.000  H
  O136     1.0000 0.68520  0.50000  0.92140  Biso   1.000  O
  O137     1.0000 0.83017  0.00000  0.09448  Biso   1.000  O
  C69      1.0000 0.81425  0.00000  0.26721  Biso   1.000  C
  H69      1.0000 0.85850  0.00000  0.27900  Biso   1.000  H
  O138     1.0000 0.81480  0.00000  0.07860  Biso   1.000  O
  O139     1.0000 0.83017  0.50000  0.59448  Biso   1.000  O
  C70      1.0000 0.81425  0.50000  0.76721  Biso   1.000  C
  H70      1.0000 0.85850  0.50000  0.77900  Biso   1.000  H
  O140     1.0000 0.81480  0.50000  0.57860  Biso   1.000  O
  O141     1.0000 0.33017  0.00000  0.59448  Biso   1.000  O
  C71      1.0000 0.31425  0.00000  0.76721  Biso   1.000  C
  H71      1.0000 0.35850  0.00000  0.77900  Biso   1.000  H
  O142     1.0000 0.31480  0.00000  0.57860  Biso   1.000  O
  O143     1.0000 0.33017  0.50000  0.09448  Biso   1.000  O
  C72      1.0000 0.31425  0.50000  0.26721  Biso   1.000  C
  H72      1.0000 0.35850  0.50000  0.27900  Biso   1.000  H
  O144     1.0000 0.31480  0.50000  0.07860  Biso   1.000  O
  O145     1.0000 0.83017  0.00000  0.90552  Biso   1.000  O
  C73      1.0000 0.81425  0.00000  0.73279  Biso   1.000  C
  H73      1.0000 0.85850  0.00000  0.72100  Biso   1.000  H
  O146     1.0000 0.81480  0.00000  0.92140  Biso   1.000  O
  O147     1.0000 0.83017  0.50000  0.40552  Biso   1.000  O
  C74      1.0000 0.81425  0.50000  0.23279  Biso   1.000  C
  H74      1.0000 0.85850  0.50000  0.22100  Biso   1.000  H
  O148     1.0000 0.81480  0.50000  0.42140  Biso   1.000  O
  O149     1.0000 0.33017  0.00000  0.40552  Biso   1.000  O
  C75      1.0000 0.31425  0.00000  0.23279  Biso   1.000  C
  H75      1.0000 0.35850  0.00000  0.22100  Biso   1.000  H
  O150     1.0000 0.31480  0.00000  0.42140  Biso   1.000  O
  O151     1.0000 0.33017  0.50000  0.90552  Biso   1.000  O
  C76      1.0000 0.31425  0.50000  0.73279  Biso   1.000  C
  H76      1.0000 0.35850  0.50000  0.72100  Biso   1.000  H
  O152     1.0000 0.31480  0.50000  0.92140  Biso   1.000  O
  O153     1.0000 0.16983  0.00000  0.09448  Biso   1.000  O
  C77      1.0000 0.18575  0.00000  0.26721  Biso   1.000  C
  H77      1.0000 0.14150  0.00000  0.27900  Biso   1.000  H
  O154     1.0000 0.18520  0.00000  0.07860  Biso   1.000  O
  O155     1.0000 0.16983  0.50000  0.59448  Biso   1.000  O
  C78      1.0000 0.18575  0.50000  0.76721  Biso   1.000  C
  H78      1.0000 0.14150  0.50000  0.77900  Biso   1.000  H
  O156     1.0000 0.18520  0.50000  0.57860  Biso   1.000  O
  O157     1.0000 0.66983  0.00000  0.59448  Biso   1.000  O
  C79      1.0000 0.68575  0.00000  0.76721  Biso   1.000  C
  H79      1.0000 0.64150  0.00000  0.77900  Biso   1.000  H
  O158     1.0000 0.68520  0.00000  0.57860  Biso   1.000  O
  O159     1.0000 0.66983  0.50000  0.09448  Biso   1.000  O
  C80      1.0000 0.68575  0.50000  0.26721  Biso   1.000  C
  H80      1.0000 0.64150  0.50000  0.27900  Biso   1.000  H
  O160     1.0000 0.68520  0.50000  0.07860  Biso   1.000  O
  O161     1.0000 0.00000  0.09448  0.83017  Biso   1.000  O
  C81      1.0000 0.00000  0.26721  0.81425  Biso   1.000  C
  H81      1.0000 0.00000  0.27900  0.85850  Biso   1.000  H
  O162     1.0000 0.00000  0.07860  0.81480  Biso   1.000  O
  O163     1.0000 0.00000  0.59448  0.33017  Biso   1.000  O
  C82      1.0000 0.00000  0.76721  0.31425  Biso   1.000  C
  H82      1.0000 0.00000  0.77900  0.35850  Biso   1.000  H
  O164     1.0000 0.00000  0.57860  0.31480  Biso   1.000  O
  O165     1.0000 0.50000  0.09448  0.33017  Biso   1.000  O
  C83      1.0000 0.50000  0.26721  0.31425  Biso   1.000  C
  H83      1.0000 0.50000  0.27900  0.35850  Biso   1.000  H
  O166     1.0000 0.50000  0.07860  0.31480  Biso   1.000  O
  O167     1.0000 0.50000  0.59448  0.83017  Biso   1.000  O
  C84      1.0000 0.50000  0.76721  0.81425  Biso   1.000  C
  H84      1.0000 0.50000  0.77900  0.85850  Biso   1.000  H
  O168     1.0000 0.50000  0.57860  0.81480  Biso   1.000  O
  O169     1.0000 0.00000  0.90552  0.16983  Biso   1.000  O
  C85      1.0000 0.00000  0.73279  0.18575  Biso   1.000  C
  H85      1.0000 0.00000  0.72100  0.14150  Biso   1.000  H
  O170     1.0000 0.00000  0.92140  0.18520  Biso   1.000  O
  O171     1.0000 0.00000  0.40552  0.66983  Biso   1.000  O
  C86      1.0000 0.00000  0.23279  0.68575  Biso   1.000  C
  H86      1.0000 0.00000  0.22100  0.64150  Biso   1.000  H
  O172     1.0000 0.00000  0.42140  0.68520  Biso   1.000  O
  O173     1.0000 0.50000  0.90552  0.66983  Biso   1.000  O
  C87      1.0000 0.50000  0.73279  0.68575  Biso   1.000  C
  H87      1.0000 0.50000  0.72100  0.64150  Biso   1.000  H
  O174     1.0000 0.50000  0.92140  0.68520  Biso   1.000  O
  O175     1.0000 0.50000  0.40552  0.16983  Biso   1.000  O
  C88      1.0000 0.50000  0.23279  0.18575  Biso   1.000  C
  H88      1.0000 0.50000  0.22100  0.14150  Biso   1.000  H
  O176     1.0000 0.50000  0.42140  0.18520  Biso   1.000  O
  O177     1.0000 0.00000  0.09448  0.16983  Biso   1.000  O
  C89      1.0000 0.00000  0.26721  0.18575  Biso   1.000  C
  H89      1.0000 0.00000  0.27900  0.14150  Biso   1.000  H
  O178     1.0000 0.00000  0.07860  0.18520  Biso   1.000  O
  O179     1.0000 0.00000  0.59448  0.66983  Biso   1.000  O
  C90      1.0000 0.00000  0.76721  0.68575  Biso   1.000  C
  H90      1.0000 0.00000  0.77900  0.64150  Biso   1.000  H
  O180     1.0000 0.00000  0.57860  0.68520  Biso   1.000  O
  O181     1.0000 0.50000  0.09448  0.66983  Biso   1.000  O
  C91      1.0000 0.50000  0.26721  0.68575  Biso   1.000  C
  H91      1.0000 0.50000  0.27900  0.64150  Biso   1.000  H
  O182     1.0000 0.50000  0.07860  0.68520  Biso   1.000  O
  O183     1.0000 0.50000  0.59448  0.16983  Biso   1.000  O
  C92      1.0000 0.50000  0.76721  0.18575  Biso   1.000  C
  H92      1.0000 0.50000  0.77900  0.14150  Biso   1.000  H
  O184     1.0000 0.50000  0.57860  0.18520  Biso   1.000  O
  O185     1.0000 0.00000  0.90552  0.83017  Biso   1.000  O
  C93      1.0000 0.00000  0.73279  0.81425  Biso   1.000  C
  H93      1.0000 0.00000  0.72100  0.85850  Biso   1.000  H
  O186     1.0000 0.00000  0.92140  0.81480  Biso   1.000  O
  O187     1.0000 0.00000  0.40552  0.33017  Biso   1.000  O
  C94      1.0000 0.00000  0.23279  0.31425  Biso   1.000  C
  H94      1.0000 0.00000  0.22100  0.35850  Biso   1.000  H
  O188     1.0000 0.00000  0.42140  0.31480  Biso   1.000  O
  O189     1.0000 0.50000  0.90552  0.33017  Biso   1.000  O
  C95      1.0000 0.50000  0.73279  0.31425  Biso   1.000  C
  H95      1.0000 0.50000  0.72100  0.35850  Biso   1.000  H
  O190     1.0000 0.50000  0.92140  0.31480  Biso   1.000  O
  O191     1.0000 0.50000  0.40552  0.83017  Biso   1.000  O
  C96      1.0000 0.50000  0.23279  0.81425  Biso   1.000  C
  H96      1.0000 0.50000  0.22100  0.85850  Biso   1.000  H
  O192     1.0000 0.50000  0.42140  0.81480  Biso   1.000  O
  C97      1.0000 0.15169  0.15169  0.00000  Biso   1.000  C
  C98      1.0000 0.20306  0.20306  0.00000  Biso   1.000  C
  C99      1.0000 0.15169  0.65169  0.50000  Biso   1.000  C
  C100     1.0000 0.20306  0.70306  0.50000  Biso   1.000  C
  C101     1.0000 0.65169  0.15169  0.50000  Biso   1.000  C
  C102     1.0000 0.70306  0.20306  0.50000  Biso   1.000  C
  C103     1.0000 0.65169  0.65169  0.00000  Biso   1.000  C
  C104     1.0000 0.70306  0.70306  0.00000  Biso   1.000  C
  C105     1.0000 0.84831  0.84831  0.00000  Biso   1.000  C
  C106     1.0000 0.79694  0.79694  0.00000  Biso   1.000  C
  C107     1.0000 0.84831  0.34831  0.50000  Biso   1.000  C
  C108     1.0000 0.79694  0.29694  0.50000  Biso   1.000  C
  C109     1.0000 0.34831  0.84831  0.50000  Biso   1.000  C
  C110     1.0000 0.29694  0.79694  0.50000  Biso   1.000  C
  C111     1.0000 0.34831  0.34831  0.00000  Biso   1.000  C
  C112     1.0000 0.29694  0.29694  0.00000  Biso   1.000  C
  C113     1.0000 0.84831  0.15169  0.00000  Biso   1.000  C
  C114     1.0000 0.79694  0.20306  0.00000  Biso   1.000  C
  C115     1.0000 0.84831  0.65169  0.50000  Biso   1.000  C
  C116     1.0000 0.79694  0.70306  0.50000  Biso   1.000  C
  C117     1.0000 0.34831  0.15169  0.50000  Biso   1.000  C
  C118     1.0000 0.29694  0.20306  0.50000  Biso   1.000  C
  C119     1.0000 0.34831  0.65169  0.00000  Biso   1.000  C
  C120     1.0000 0.29694  0.70306  0.00000  Biso   1.000  C
  C121     1.0000 0.15169  0.84831  0.00000  Biso   1.000  C
  C122     1.0000 0.20306  0.79694  0.00000  Biso   1.000  C
  C123     1.0000 0.15169  0.34831  0.50000  Biso   1.000  C
  C124     1.0000 0.20306  0.29694  0.50000  Biso   1.000  C
  C125     1.0000 0.65169  0.84831  0.50000  Biso   1.000  C
  C126     1.0000 0.70306  0.79694  0.50000  Biso   1.000  C
  C127     1.0000 0.65169  0.34831  0.00000  Biso   1.000  C
  C128     1.0000 0.70306  0.29694  0.00000  Biso   1.000  C
  C129     1.0000 0.00000  0.15169  0.15169  Biso   1.000  C
  C130     1.0000 0.00000  0.20306  0.20306  Biso   1.000  C
  C131     1.0000 0.00000  0.65169  0.65169  Biso   1.000  C
  C132     1.0000 0.00000  0.70306  0.70306  Biso   1.000  C
  C133     1.0000 0.50000  0.15169  0.65169  Biso   1.000  C
  C134     1.0000 0.50000  0.20306  0.70306  Biso   1.000  C
  C135     1.0000 0.50000  0.65169  0.15169  Biso   1.000  C
  C136     1.0000 0.50000  0.70306  0.20306  Biso   1.000  C
  C137     1.0000 0.00000  0.84831  0.84831  Biso   1.000  C
  C138     1.0000 0.00000  0.79694  0.79694  Biso   1.000  C
  C139     1.0000 0.00000  0.34831  0.34831  Biso   1.000  C
  C140     1.0000 0.00000  0.29694  0.29694  Biso   1.000  C
  C141     1.0000 0.50000  0.84831  0.34831  Biso   1.000  C
  C142     1.0000 0.50000  0.79694  0.29694  Biso   1.000  C
  C143     1.0000 0.50000  0.34831  0.84831  Biso   1.000  C
  C144     1.0000 0.50000  0.29694  0.79694  Biso   1.000  C
  C145     1.0000 0.00000  0.84831  0.15169  Biso   1.000  C
  C146     1.0000 0.00000  0.79694  0.20306  Biso   1.000  C
  C147     1.0000 0.00000  0.34831  0.65169  Biso   1.000  C
  C148     1.0000 0.00000  0.29694  0.70306  Biso   1.000  C
  C149     1.0000 0.50000  0.84831  0.65169  Biso   1.000  C
  C150     1.0000 0.50000  0.79694  0.70306  Biso   1.000  C
  C151     1.0000 0.50000  0.34831  0.15169  Biso   1.000  C
  C152     1.0000 0.50000  0.29694  0.20306  Biso   1.000  C
  C153     1.0000 0.00000  0.15169  0.84831  Biso   1.000  C
  C154     1.0000 0.00000  0.20306  0.79694  Biso   1.000  C
  C155     1.0000 0.00000  0.65169  0.34831  Biso   1.000  C
  C156     1.0000 0.00000  0.70306  0.29694  Biso   1.000  C
  C157     1.0000 0.50000  0.15169  0.34831  Biso   1.000  C
  C158     1.0000 0.50000  0.20306  0.29694  Biso   1.000  C
  C159     1.0000 0.50000  0.65169  0.84831  Biso   1.000  C
  C160     1.0000 0.50000  0.70306  0.79694  Biso   1.000  C
  C161     1.0000 0.15169  0.00000  0.15169  Biso   1.000  C
  C162     1.0000 0.20306  0.00000  0.20306  Biso   1.000  C
  C163     1.0000 0.15169  0.50000  0.65169  Biso   1.000  C
  C164     1.0000 0.20306  0.50000  0.70306  Biso   1.000  C
  C165     1.0000 0.65169  0.00000  0.65169  Biso   1.000  C
  C166     1.0000 0.70306  0.00000  0.70306  Biso   1.000  C
  C167     1.0000 0.65169  0.50000  0.15169  Biso   1.000  C
  C168     1.0000 0.70306  0.50000  0.20306  Biso   1.000  C
  C169     1.0000 0.84831  0.00000  0.84831  Biso   1.000  C
  C170     1.0000 0.79694  0.00000  0.79694  Biso   1.000  C
  C171     1.0000 0.84831  0.50000  0.34831  Biso   1.000  C
  C172     1.0000 0.79694  0.50000  0.29694  Biso   1.000  C
  C173     1.0000 0.34831  0.00000  0.34831  Biso   1.000  C
  C174     1.0000 0.29694  0.00000  0.29694  Biso   1.000  C
  C175     1.0000 0.34831  0.50000  0.84831  Biso   1.000  C
  C176     1.0000 0.29694  0.50000  0.79694  Biso   1.000  C
  C177     1.0000 0.15169  0.00000  0.84831  Biso   1.000  C
  C178     1.0000 0.20306  0.00000  0.79694  Biso   1.000  C
  C179     1.0000 0.15169  0.50000  0.34831  Biso   1.000  C
  C180     1.0000 0.20306  0.50000  0.29694  Biso   1.000  C
  C181     1.0000 0.65169  0.00000  0.34831  Biso   1.000  C
  C182     1.0000 0.70306  0.00000  0.29694  Biso   1.000  C
  C183     1.0000 0.65169  0.50000  0.84831  Biso   1.000  C
  C184     1.0000 0.70306  0.50000  0.79694  Biso   1.000  C
  C185     1.0000 0.84831  0.00000  0.15169  Biso   1.000  C
  C186     1.0000 0.79694  0.00000  0.20306  Biso   1.000  C
  C187     1.0000 0.84831  0.50000  0.65169  Biso   1.000  C
  C188     1.0000 0.79694  0.50000  0.70306  Biso   1.000  C
  C189     1.0000 0.34831  0.00000  0.65169  Biso   1.000  C
  C190     1.0000 0.29694  0.00000  0.70306  Biso   1.000  C
  C191     1.0000 0.34831  0.50000  0.15169  Biso   1.000  C
  C192     1.0000 0.29694  0.50000  0.20306  Biso   1.000  C
  O193     1.0000 0.06680  0.06680  0.06680  Biso   1.000  O
  O194     1.0000 0.04960  0.04960  0.04960  Biso   1.000  O
  H97      1.0000 0.09460  0.09460  0.09460  Biso   1.000  H
  O195     1.0000 0.06680  0.56680  0.56680  Biso   1.000  O
  O196     1.0000 0.04960  0.54960  0.54960  Biso   1.000  O
  H98      1.0000 0.09460  0.59460  0.59460  Biso   1.000  H
  O197     1.0000 0.56680  0.06680  0.56680  Biso   1.000  O
  O198     1.0000 0.54960  0.04960  0.54960  Biso   1.000  O
  H99      1.0000 0.59460  0.09460  0.59460  Biso   1.000  H
  O199     1.0000 0.56680  0.56680  0.06680  Biso   1.000  O
  O200     1.0000 0.54960  0.54960  0.04960  Biso   1.000  O
  H100     1.0000 0.59460  0.59460  0.09460  Biso   1.000  H
  O201     1.0000 0.93320  0.93320  0.06680  Biso   1.000  O
  O202     1.0000 0.95040  0.95040  0.04960  Biso   1.000  O
  H101     1.0000 0.90540  0.90540  0.09460  Biso   1.000  H
  O203     1.0000 0.93320  0.43320  0.56680  Biso   1.000  O
  O204     1.0000 0.95040  0.45040  0.54960  Biso   1.000  O
  H102     1.0000 0.90540  0.40540  0.59460  Biso   1.000  H
  O205     1.0000 0.43320  0.93320  0.56680  Biso   1.000  O
  O206     1.0000 0.45040  0.95040  0.54960  Biso   1.000  O
  H103     1.0000 0.40540  0.90540  0.59460  Biso   1.000  H
  O207     1.0000 0.43320  0.43320  0.06680  Biso   1.000  O
  O208     1.0000 0.45040  0.45040  0.04960  Biso   1.000  O
  H104     1.0000 0.40540  0.40540  0.09460  Biso   1.000  H
  O209     1.0000 0.93320  0.06680  0.93320  Biso   1.000  O
  O210     1.0000 0.95040  0.04960  0.95040  Biso   1.000  O
  H105     1.0000 0.90540  0.09460  0.90540  Biso   1.000  H
  O211     1.0000 0.93320  0.56680  0.43320  Biso   1.000  O
  O212     1.0000 0.95040  0.54960  0.45040  Biso   1.000  O
  H106     1.0000 0.90540  0.59460  0.40540  Biso   1.000  H
  O213     1.0000 0.43320  0.06680  0.43320  Biso   1.000  O
  O214     1.0000 0.45040  0.04960  0.45040  Biso   1.000  O
  H107     1.0000 0.40540  0.09460  0.40540  Biso   1.000  H
  O215     1.0000 0.43320  0.56680  0.93320  Biso   1.000  O
  O216     1.0000 0.45040  0.54960  0.95040  Biso   1.000  O
  H108     1.0000 0.40540  0.59460  0.90540  Biso   1.000  H
  O217     1.0000 0.06680  0.93320  0.93320  Biso   1.000  O
  O218     1.0000 0.04960  0.95040  0.95040  Biso   1.000  O
  H109     1.0000 0.09460  0.90540  0.90540  Biso   1.000  H
  O219     1.0000 0.06680  0.43320  0.43320  Biso   1.000  O
  O220     1.0000 0.04960  0.45040  0.45040  Biso   1.000  O
  H110     1.0000 0.09460  0.40540  0.40540  Biso   1.000  H
  O221     1.0000 0.56680  0.93320  0.43320  Biso   1.000  O
  O222     1.0000 0.54960  0.95040  0.45040  Biso   1.000  O
  H111     1.0000 0.59460  0.90540  0.40540  Biso   1.000  H
  O223     1.0000 0.56680  0.43320  0.93320  Biso   1.000  O
  O224     1.0000 0.54960  0.45040  0.95040  Biso   1.000  O
  H112     1.0000 0.59460  0.40540  0.90540  Biso   1.000  H
  O225     1.0000 0.06680  0.06680  0.93320  Biso   1.000  O
  O226     1.0000 0.04960  0.04960  0.95040  Biso   1.000  O
  H113     1.0000 0.09460  0.09460  0.90540  Biso   1.000  H
  O227     1.0000 0.06680  0.56680  0.43320  Biso   1.000  O
  O228     1.0000 0.04960  0.54960  0.45040  Biso   1.000  O
  H114     1.0000 0.09460  0.59460  0.40540  Biso   1.000  H
  O229     1.0000 0.56680  0.06680  0.43320  Biso   1.000  O
  O230     1.0000 0.54960  0.04960  0.45040  Biso   1.000  O
  H115     1.0000 0.59460  0.09460  0.40540  Biso   1.000  H
  O231     1.0000 0.56680  0.56680  0.93320  Biso   1.000  O
  O232     1.0000 0.54960  0.54960  0.95040  Biso   1.000  O
  H116     1.0000 0.59460  0.59460  0.90540  Biso   1.000  H
  O233     1.0000 0.93320  0.93320  0.93320  Biso   1.000  O
  O234     1.0000 0.95040  0.95040  0.95040  Biso   1.000  O
  H117     1.0000 0.90540  0.90540  0.90540  Biso   1.000  H
  O235     1.0000 0.93320  0.43320  0.43320  Biso   1.000  O
  O236     1.0000 0.95040  0.45040  0.45040  Biso   1.000  O
  H118     1.0000 0.90540  0.40540  0.40540  Biso   1.000  H
  O237     1.0000 0.43320  0.93320  0.43320  Biso   1.000  O
  O238     1.0000 0.45040  0.95040  0.45040  Biso   1.000  O
  H119     1.0000 0.40540  0.90540  0.40540  Biso   1.000  H
  O239     1.0000 0.43320  0.43320  0.93320  Biso   1.000  O
  O240     1.0000 0.45040  0.45040  0.95040  Biso   1.000  O
  H120     1.0000 0.40540  0.40540  0.90540  Biso   1.000  H
  O241     1.0000 0.06680  0.93320  0.06680  Biso   1.000  O
  O242     1.0000 0.04960  0.95040  0.04960  Biso   1.000  O
  H121     1.0000 0.09460  0.90540  0.09460  Biso   1.000  H
  O243     1.0000 0.06680  0.43320  0.56680  Biso   1.000  O
  O244     1.0000 0.04960  0.45040  0.54960  Biso   1.000  O
  H122     1.0000 0.09460  0.40540  0.59460  Biso   1.000  H
  O245     1.0000 0.56680  0.93320  0.56680  Biso   1.000  O
  O246     1.0000 0.54960  0.95040  0.54960  Biso   1.000  O
  H123     1.0000 0.59460  0.90540  0.59460  Biso   1.000  H
  O247     1.0000 0.56680  0.43320  0.06680  Biso   1.000  O
  O248     1.0000 0.54960  0.45040  0.04960  Biso   1.000  O
  H124     1.0000 0.59460  0.40540  0.09460  Biso   1.000  H
  O249     1.0000 0.93320  0.06680  0.06680  Biso   1.000  O
  O250     1.0000 0.95040  0.04960  0.04960  Biso   1.000  O
  H125     1.0000 0.90540  0.09460  0.09460  Biso   1.000  H
  O251     1.0000 0.93320  0.56680  0.56680  Biso   1.000  O
  O252     1.0000 0.95040  0.54960  0.54960  Biso   1.000  O
  H126     1.0000 0.90540  0.59460  0.59460  Biso   1.000  H
  O253     1.0000 0.43320  0.06680  0.56680  Biso   1.000  O
  O254     1.0000 0.45040  0.04960  0.54960  Biso   1.000  O
  H127     1.0000 0.40540  0.09460  0.59460  Biso   1.000  H
  O255     1.0000 0.43320  0.56680  0.06680  Biso   1.000  O
  O256     1.0000 0.45040  0.54960  0.04960  Biso   1.000  O
  H128     1.0000 0.40540  0.59460  0.09460  Biso   1.000  H
