data_image0
_cell_length_a       8.8994
_cell_length_b       10.719
_cell_length_c       13.656
_cell_angle_alpha    69.08
_cell_angle_beta     78.07
_cell_angle_gamma    79.98

_symmetry_space_group_name_H-M    "P 1"
_symmetry_int_tables_number       1

loop_
  _symmetry_equiv_pos_as_xyz
  'x, y, z'

loop_
  _atom_site_label
  _atom_site_occupancy
  _atom_site_fract_x
  _atom_site_fract_y
  _atom_site_fract_z
  _atom_site_thermal_displace_type
  _atom_site_B_iso_or_equiv
  _atom_site_type_symbol
  Ni1      1.0000 0.81105  0.90161  0.14884  Biso   1.000  Ni
  P1       1.0000 0.71883  0.71816  0.04872  Biso   1.000  P
  P2       1.0000 0.03281  0.81838  0.96776  Biso   1.000  P
  O1       1.0000 0.77670  0.59120  0.02360  Biso   1.000  O
  O2       1.0000 0.73480  0.72560  0.15400  Biso   1.000  O
  O3       1.0000 0.54140  0.75490  0.03790  Biso   1.000  O
  H1       1.0000 0.51100  0.71500  0.00600  Biso   1.000  H
  O4       1.0000 0.09030  0.67600  0.96980  Biso   1.000  O
  O5       1.0000 0.03370  0.84100  0.07310  Biso   1.000  O
  O6       1.0000 0.11330  0.92120  0.87310  Biso   1.000  O
  O7       1.0000 0.76640  0.97190  0.98880  Biso   1.000  O
  H2       1.0000 0.81900  0.03400  0.95800  Biso   1.000  H
  C1       1.0000 0.82430  0.85650  0.95280  Biso   1.000  C
  C2       1.0000 0.80750  0.89590  0.83660  Biso   1.000  C
  H3       1.0000 0.86320  0.97340  0.79660  Biso   1.000  H
  H4       1.0000 0.85750  0.82270  0.81140  Biso   1.000  H
  N1       1.0000 0.64960  0.92820  0.81230  Biso   1.000  N
  C3       1.0000 0.53310  0.01210  0.84340  Biso   1.000  C
  H5       1.0000 0.54110  0.05940  0.88710  Biso   1.000  H
  N2       1.0000 0.40570  0.01910  0.80400  Biso   1.000  N
  C4       1.0000 0.44470  0.93550  0.74540  Biso   1.000  C
  H6       1.0000 0.37850  0.91900  0.70800  Biso   1.000  H
  C5       1.0000 0.59180  0.88010  0.74890  Biso   1.000  C
  H7       1.0000 0.64440  0.82040  0.71480  Biso   1.000  H
  N3       1.0000 0.98470  0.55600  0.83780  Biso   1.000  N
  C6       1.0000 0.84710  0.56460  0.70220  Biso   1.000  C
  H8       1.0000 0.76730  0.53590  0.68400  Biso   1.000  H
  C7       1.0000 0.94230  0.65240  0.62490  Biso   1.000  C
  C8       1.0000 0.06160  0.68620  0.65720  Biso   1.000  C
  H9       1.0000 0.12990  0.74330  0.60780  Biso   1.000  H
  C9       1.0000 0.08010  0.63580  0.76280  Biso   1.000  C
  H10      1.0000 0.16290  0.65860  0.78230  Biso   1.000  H
  C10      1.0000 0.91370  0.70870  0.51280  Biso   1.000  C
  C11      1.0000 0.86780  0.63270  0.46320  Biso   1.000  C
  H11      1.0000 0.85130  0.54360  0.50060  Biso   1.000  H
  C12      1.0000 0.84640  0.68880  0.35840  Biso   1.000  C
  H12      1.0000 0.82030  0.63450  0.32590  Biso   1.000  H
  C13      1.0000 0.89820  0.89370  0.35140  Biso   1.000  C
  H13      1.0000 0.90490  0.98460  0.31430  Biso   1.000  H
  C14      1.0000 0.92630  0.84250  0.45500  Biso   1.000  C
  H14      1.0000 0.95360  0.89830  0.48570  Biso   1.000  H
  N4       1.0000 0.86140  0.81750  0.30170  Biso   1.000  N
  C15      1.0000 0.87130  0.52010  0.80620  Biso   1.000  C
  H15      1.0000 0.80530  0.46200  0.85710  Biso   1.000  H
  C16      1.0000 0.74600  0.78600  0.38390  Biso   1.000  C
  H16      1.0000 0.64550  0.80780  0.36940  Biso   1.000  H
  C17      1.0000 0.76700  0.72400  0.48900  Biso   1.000  C
  H17      1.0000 0.68410  0.69430  0.54140  Biso   1.000  H
  C18      1.0000 0.00730  0.78800  0.32400  Biso   1.000  C
  H18      1.0000 0.09060  0.80080  0.26880  Biso   1.000  H
  C19      1.0000 0.03300  0.73800  0.42810  Biso   1.000  C
  H19      1.0000 0.13400  0.72330  0.44160  Biso   1.000  H
  Ni2      1.0000 0.18895  0.09839  0.85116  Biso   1.000  Ni
  P3       1.0000 0.28117  0.28184  0.95128  Biso   1.000  P
  P4       1.0000 0.96719  0.18162  0.03224  Biso   1.000  P
  O8       1.0000 0.22330  0.40880  0.97640  Biso   1.000  O
  O9       1.0000 0.26520  0.27440  0.84600  Biso   1.000  O
  O10      1.0000 0.45860  0.24510  0.96210  Biso   1.000  O
  H20      1.0000 0.48900  0.28500  0.99400  Biso   1.000  H
  O11      1.0000 0.90970  0.32400  0.03020  Biso   1.000  O
  O12      1.0000 0.96630  0.15900  0.92690  Biso   1.000  O
  O13      1.0000 0.88670  0.07880  0.12690  Biso   1.000  O
  O14      1.0000 0.23360  0.02810  0.01120  Biso   1.000  O
  H21      1.0000 0.18100  0.96600  0.04200  Biso   1.000  H
  C20      1.0000 0.17570  0.14350  0.04720  Biso   1.000  C
  C21      1.0000 0.19250  0.10410  0.16340  Biso   1.000  C
  H22      1.0000 0.13680  0.02660  0.20340  Biso   1.000  H
  H23      1.0000 0.14250  0.17730  0.18860  Biso   1.000  H
  N5       1.0000 0.35040  0.07180  0.18770  Biso   1.000  N
  C22      1.0000 0.46690  0.98790  0.15660  Biso   1.000  C
  H24      1.0000 0.45890  0.94060  0.11290  Biso   1.000  H
  N6       1.0000 0.59430  0.98090  0.19600  Biso   1.000  N
  C23      1.0000 0.55530  0.06450  0.25460  Biso   1.000  C
  H25      1.0000 0.62150  0.08100  0.29200  Biso   1.000  H
  C24      1.0000 0.40820  0.11990  0.25110  Biso   1.000  C
  H26      1.0000 0.35560  0.17960  0.28520  Biso   1.000  H
  N7       1.0000 0.01530  0.44400  0.16220  Biso   1.000  N
  C25      1.0000 0.15290  0.43540  0.29780  Biso   1.000  C
  H27      1.0000 0.23270  0.46410  0.31600  Biso   1.000  H
  C26      1.0000 0.05770  0.34760  0.37510  Biso   1.000  C
  C27      1.0000 0.93840  0.31380  0.34280  Biso   1.000  C
  H28      1.0000 0.87010  0.25670  0.39220  Biso   1.000  H
  C28      1.0000 0.91990  0.36420  0.23720  Biso   1.000  C
  H29      1.0000 0.83710  0.34140  0.21770  Biso   1.000  H
  C29      1.0000 0.08630  0.29130  0.48720  Biso   1.000  C
  C30      1.0000 0.13220  0.36730  0.53680  Biso   1.000  C
  H30      1.0000 0.14870  0.45640  0.49940  Biso   1.000  H
  C31      1.0000 0.15360  0.31120  0.64160  Biso   1.000  C
  H31      1.0000 0.17970  0.36550  0.67410  Biso   1.000  H
  C32      1.0000 0.10180  0.10630  0.64860  Biso   1.000  C
  H32      1.0000 0.09510  0.01540  0.68570  Biso   1.000  H
  C33      1.0000 0.07370  0.15750  0.54500  Biso   1.000  C
  H33      1.0000 0.04640  0.10170  0.51430  Biso   1.000  H
  N8       1.0000 0.13860  0.18250  0.69830  Biso   1.000  N
  C34      1.0000 0.12870  0.47990  0.19380  Biso   1.000  C
  H34      1.0000 0.19470  0.53800  0.14290  Biso   1.000  H
  C35      1.0000 0.25400  0.21400  0.61610  Biso   1.000  C
  H35      1.0000 0.35450  0.19220  0.63060  Biso   1.000  H
  C36      1.0000 0.23300  0.27600  0.51100  Biso   1.000  C
  H36      1.0000 0.31590  0.30570  0.45860  Biso   1.000  H
  C37      1.0000 0.99270  0.21200  0.67600  Biso   1.000  C
  H37      1.0000 0.90940  0.19920  0.73120  Biso   1.000  H
  C38      1.0000 0.96700  0.26200  0.57190  Biso   1.000  C
  H38      1.0000 0.86600  0.27670  0.55840  Biso   1.000  H
  Ni3      1.0000 0.00000  0.50000  0.00000  Biso   1.000  Ni
