data_image0
_cell_length_a       19.6891
_cell_length_b       13.7933
_cell_length_c       26.276
_cell_angle_alpha    90
_cell_angle_beta     96.242
_cell_angle_gamma    90

_symmetry_space_group_name_H-M    "P 1"
_symmetry_int_tables_number       1

loop_
  _symmetry_equiv_pos_as_xyz
  'x, y, z'

loop_
  _atom_site_label
  _atom_site_occupancy
  _atom_site_fract_x
  _atom_site_fract_y
  _atom_site_fract_z
  _atom_site_thermal_displace_type
  _atom_site_B_iso_or_equiv
  _atom_site_type_symbol
  Zn1      1.0000 0.07679  0.51281  0.13549  Biso   1.000  Zn
  Zn2      1.0000 0.24626  0.50210  0.14640  Biso   1.000  Zn
  Zn3      1.0000 0.42020  0.48612  0.15756  Biso   1.000  Zn
  O1       1.0000 0.07610  0.66740  0.16310  Biso   1.000  O
  O2       1.0000 0.16110  0.60190  0.13276  Biso   1.000  O
  O3       1.0000 0.42540  0.33360  0.16150  Biso   1.000  O
  O4       1.0000 0.32729  0.40020  0.15810  Biso   1.000  O
  O5       1.0000 0.08448  0.43530  0.07431  Biso   1.000  O
  O6       1.0000 0.19594  0.41050  0.09374  Biso   1.000  O
  O7       1.0000 0.20536  0.05870  0.70811  Biso   1.000  O
  O8       1.0000 0.09200  0.05680  0.69949  Biso   1.000  O
  O9       1.0000 0.29780  0.59320  0.19905  Biso   1.000  O
  O10      1.0000 0.40752  0.55930  0.21896  Biso   1.000  O
  O11      1.0000 0.40179  0.95010  0.59169  Biso   1.000  O
  O12      1.0000 0.28869  0.93390  0.58645  Biso   1.000  O
  C1       1.0000 0.17170  0.76830  0.15750  Biso   1.000  C
  C2       1.0000 0.23230  0.78120  0.13800  Biso   1.000  C
  H1       1.0000 0.25190  0.72970  0.12190  Biso   1.000  H
  C3       1.0000 0.26520  0.87010  0.14170  Biso   1.000  C
  H2       1.0000 0.30720  0.87710  0.12890  Biso   1.000  H
  C4       1.0000 0.23660  0.94810  0.16410  Biso   1.000  C
  C5       1.0000 0.17650  0.93380  0.18420  Biso   1.000  C
  H3       1.0000 0.15690  0.98510  0.20020  Biso   1.000  H
  C6       1.0000 0.14420  0.84520  0.18140  Biso   1.000  C
  H4       1.0000 0.10350  0.83740  0.19570  Biso   1.000  H
  C7       1.0000 0.13430  0.67480  0.15110  Biso   1.000  C
  C8       1.0000 0.32970  0.22840  0.16230  Biso   1.000  C
  C9       1.0000 0.36930  0.14590  0.16240  Biso   1.000  C
  H5       1.0000 0.41630  0.15100  0.16180  Biso   1.000  H
  C10      1.0000 0.33900  0.05540  0.16330  Biso   1.000  C
  H6       1.0000 0.36610  0.00020  0.16320  Biso   1.000  H
  C11      1.0000 0.26980  0.04520  0.16450  Biso   1.000  C
  C12      1.0000 0.23230  0.12920  0.16620  Biso   1.000  C
  H7       1.0000 0.18550  0.12480  0.16810  Biso   1.000  H
  C13      1.0000 0.26200  0.21940  0.16520  Biso   1.000  C
  H8       1.0000 0.23520  0.27460  0.16650  Biso   1.000  H
  C14      1.0000 0.36210  0.32560  0.16030  Biso   1.000  C
  C15      1.0000 0.14260  0.34490  0.01720  Biso   1.000  C
  C16      1.0000 0.20340  0.32250  0.99830  Biso   1.000  C
  H9       1.0000 0.24440  0.33890  0.01740  Biso   1.000  H
  C17      1.0000 0.20480  0.27730  0.95270  Biso   1.000  C
  H10      1.0000 0.24680  0.26420  0.94100  Biso   1.000  H
  C18      1.0000 0.14550  0.24990  0.92290  Biso   1.000  C
  C19      1.0000 0.08400  0.27160  0.94200  Biso   1.000  C
  H11      1.0000 0.04300  0.25440  0.92320  Biso   1.000  H
  C20      1.0000 0.08300  0.31780  0.98790  Biso   1.000  C
  H12      1.0000 0.04120  0.33140  0.99970  Biso   1.000  H
  C21      1.0000 0.14140  0.40050  0.06583  Biso   1.000  C
  C22      1.0000 0.14830  0.11920  0.77500  Biso   1.000  C
  C23      1.0000 0.20680  0.13870  0.80500  Biso   1.000  C
  H13      1.0000 0.24860  0.12420  0.79340  Biso   1.000  H
  C24      1.0000 0.20520  0.18050  0.85310  Biso   1.000  C
  H14      1.0000 0.24640  0.19380  0.87270  Biso   1.000  H
  C25      1.0000 0.14650  0.20250  0.87270  Biso   1.000  C
  C26      1.0000 0.08840  0.18600  0.84110  Biso   1.000  C
  H15      1.0000 0.04660  0.20290  0.85210  Biso   1.000  H
  C27      1.0000 0.08900  0.14480  0.79300  Biso   1.000  C
  H16      1.0000 0.04790  0.13470  0.77260  Biso   1.000  H
  C28      1.0000 0.14970  0.07510  0.72357  Biso   1.000  C
  C29      1.0000 0.35020  0.64420  0.27870  Biso   1.000  C
  C30      1.0000 0.40940  0.65690  0.31100  Biso   1.000  C
  H17      1.0000 0.45070  0.63470  0.30120  Biso   1.000  H
  C31      1.0000 0.40830  0.70180  0.35760  Biso   1.000  C
  H18      1.0000 0.44920  0.71210  0.37810  Biso   1.000  H
  C32      1.0000 0.34860  0.73180  0.37460  Biso   1.000  C
  C33      1.0000 0.29040  0.72460  0.34030  Biso   1.000  C
  H19      1.0000 0.24940  0.74960  0.34910  Biso   1.000  H
  C34      1.0000 0.29210  0.68080  0.29300  Biso   1.000  C
  H20      1.0000 0.25220  0.67670  0.27070  Biso   1.000  H
  C35      1.0000 0.35170  0.59470  0.22850  Biso   1.000  C
  C36      1.0000 0.34610  0.87180  0.51990  Biso   1.000  C
  C37      1.0000 0.40510  0.86500  0.49690  Biso   1.000  C
  H21      1.0000 0.44530  0.89090  0.51310  Biso   1.000  H
  C38      1.0000 0.40550  0.82040  0.45010  Biso   1.000  C
  H22      1.0000 0.44600  0.81800  0.43490  Biso   1.000  H
  C39      1.0000 0.34730  0.77910  0.42510  Biso   1.000  C
  C40      1.0000 0.28870  0.78770  0.44850  Biso   1.000  C
  H23      1.0000 0.24840  0.76150  0.43250  Biso   1.000  H
  C41      1.0000 0.28720  0.83320  0.49470  Biso   1.000  C
  H24      1.0000 0.24630  0.83830  0.50910  Biso   1.000  H
  C42      1.0000 0.34450  0.92370  0.57020  Biso   1.000  C
  N1       1.0000 0.97230  0.51390  0.12942  Biso   1.000  N
  N2       1.0000 0.76000  0.50590  0.12580  Biso   1.000  N
  N3       1.0000 0.73920  0.50620  0.16700  Biso   1.000  N
  C43      1.0000 0.94330  0.54460  0.17000  Biso   1.000  C
  H25      1.0000 0.97120  0.56810  0.19810  Biso   1.000  H
  C44      1.0000 0.87340  0.54300  0.17200  Biso   1.000  C
  H26      1.0000 0.85430  0.56440  0.20090  Biso   1.000  H
  C45      1.0000 0.83260  0.50840  0.12940  Biso   1.000  C
  C46      1.0000 0.86270  0.47910  0.08760  Biso   1.000  C
  H27      1.0000 0.83590  0.45840  0.05830  Biso   1.000  H
  C47      1.0000 0.93260  0.48040  0.08910  Biso   1.000  C
  H28      1.0000 0.95270  0.45720  0.06100  Biso   1.000  H
  C48      1.0000 0.56500  0.44830  0.19940  Biso   1.000  C
  H29      1.0000 0.54480  0.41340  0.22400  Biso   1.000  H
  C49      1.0000 0.63570  0.45180  0.20090  Biso   1.000  C
  H30      1.0000 0.66290  0.41930  0.22660  Biso   1.000  H
  C50      1.0000 0.66580  0.50400  0.16400  Biso   1.000  C
  C51      1.0000 0.62520  0.55260  0.12560  Biso   1.000  C
  H31      1.0000 0.64530  0.58750  0.10100  Biso   1.000  H
  C52      1.0000 0.55440  0.54910  0.12410  Biso   1.000  C
  H32      1.0000 0.52730  0.58170  0.09840  Biso   1.000  H
  N4       1.0000 0.52430  0.49700  0.16100  Biso   1.000  N
  C53      1.0000 0.56590  0.49990  0.20610  Biso   1.000  C
  H33      1.0000 0.54670  0.49860  0.23680  Biso   1.000  H
  C54      1.0000 0.63650  0.50380  0.20620  Biso   1.000  C
  H34      1.0000 0.66450  0.50500  0.23710  Biso   1.000  H
  C55      1.0000 0.66530  0.50570  0.16020  Biso   1.000  C
  C56      1.0000 0.62340  0.50380  0.11400  Biso   1.000  C
  H35      1.0000 0.64270  0.50510  0.08320  Biso   1.000  H
  C57      1.0000 0.55290  0.50000  0.11390  Biso   1.000  C
  H36      1.0000 0.52490  0.49870  0.08300  Biso   1.000  H
  N5       1.0000 0.52410  0.49810  0.15990  Biso   1.000  N
  Zn4      1.0000 0.07679  0.98719  0.63549  Biso   1.000  Zn
  Zn5      1.0000 0.24626  0.99790  0.64640  Biso   1.000  Zn
  Zn6      1.0000 0.42020  0.01388  0.65756  Biso   1.000  Zn
  O13      1.0000 0.07610  0.83260  0.66310  Biso   1.000  O
  O14      1.0000 0.16110  0.89810  0.63276  Biso   1.000  O
  O15      1.0000 0.42540  0.16640  0.66150  Biso   1.000  O
  O16      1.0000 0.32729  0.09980  0.65810  Biso   1.000  O
  O17      1.0000 0.08448  0.06470  0.57431  Biso   1.000  O
  O18      1.0000 0.19594  0.08950  0.59374  Biso   1.000  O
  O19      1.0000 0.20536  0.44130  0.20811  Biso   1.000  O
  O20      1.0000 0.09200  0.44320  0.19949  Biso   1.000  O
  O21      1.0000 0.29780  0.90680  0.69905  Biso   1.000  O
  O22      1.0000 0.40752  0.94070  0.71896  Biso   1.000  O
  O23      1.0000 0.40179  0.54990  0.09169  Biso   1.000  O
  O24      1.0000 0.28869  0.56610  0.08645  Biso   1.000  O
  C58      1.0000 0.17170  0.73170  0.65750  Biso   1.000  C
  C59      1.0000 0.23230  0.71880  0.63800  Biso   1.000  C
  H37      1.0000 0.25190  0.77030  0.62190  Biso   1.000  H
  C60      1.0000 0.26520  0.62990  0.64170  Biso   1.000  C
  H38      1.0000 0.30720  0.62290  0.62890  Biso   1.000  H
  C61      1.0000 0.23660  0.55190  0.66410  Biso   1.000  C
  C62      1.0000 0.17650  0.56620  0.68420  Biso   1.000  C
  H39      1.0000 0.15690  0.51490  0.70020  Biso   1.000  H
  C63      1.0000 0.14420  0.65480  0.68140  Biso   1.000  C
  H40      1.0000 0.10350  0.66260  0.69570  Biso   1.000  H
  C64      1.0000 0.13430  0.82520  0.65110  Biso   1.000  C
  C65      1.0000 0.32970  0.27160  0.66230  Biso   1.000  C
  C66      1.0000 0.36930  0.35410  0.66240  Biso   1.000  C
  H41      1.0000 0.41630  0.34900  0.66180  Biso   1.000  H
  C67      1.0000 0.33900  0.44460  0.66330  Biso   1.000  C
  H42      1.0000 0.36610  0.49980  0.66320  Biso   1.000  H
  C68      1.0000 0.26980  0.45480  0.66450  Biso   1.000  C
  C69      1.0000 0.23230  0.37080  0.66620  Biso   1.000  C
  H43      1.0000 0.18550  0.37520  0.66810  Biso   1.000  H
  C70      1.0000 0.26200  0.28060  0.66520  Biso   1.000  C
  H44      1.0000 0.23520  0.22540  0.66650  Biso   1.000  H
  C71      1.0000 0.36210  0.17440  0.66030  Biso   1.000  C
  C72      1.0000 0.14260  0.15510  0.51720  Biso   1.000  C
  C73      1.0000 0.20340  0.17750  0.49830  Biso   1.000  C
  H45      1.0000 0.24440  0.16110  0.51740  Biso   1.000  H
  C74      1.0000 0.20480  0.22270  0.45270  Biso   1.000  C
  H46      1.0000 0.24680  0.23580  0.44100  Biso   1.000  H
  C75      1.0000 0.14550  0.25010  0.42290  Biso   1.000  C
  C76      1.0000 0.08400  0.22840  0.44200  Biso   1.000  C
  H47      1.0000 0.04300  0.24560  0.42320  Biso   1.000  H
  C77      1.0000 0.08300  0.18220  0.48790  Biso   1.000  C
  H48      1.0000 0.04120  0.16860  0.49970  Biso   1.000  H
  C78      1.0000 0.14140  0.09950  0.56583  Biso   1.000  C
  C79      1.0000 0.14830  0.38080  0.27500  Biso   1.000  C
  C80      1.0000 0.20680  0.36130  0.30500  Biso   1.000  C
  H49      1.0000 0.24860  0.37580  0.29340  Biso   1.000  H
  C81      1.0000 0.20520  0.31950  0.35310  Biso   1.000  C
  H50      1.0000 0.24640  0.30620  0.37270  Biso   1.000  H
  C82      1.0000 0.14650  0.29750  0.37270  Biso   1.000  C
  C83      1.0000 0.08840  0.31400  0.34110  Biso   1.000  C
  H51      1.0000 0.04660  0.29710  0.35210  Biso   1.000  H
  C84      1.0000 0.08900  0.35520  0.29300  Biso   1.000  C
  H52      1.0000 0.04790  0.36530  0.27260  Biso   1.000  H
  C85      1.0000 0.14970  0.42490  0.22357  Biso   1.000  C
  C86      1.0000 0.35020  0.85580  0.77870  Biso   1.000  C
  C87      1.0000 0.40940  0.84310  0.81100  Biso   1.000  C
  H53      1.0000 0.45070  0.86530  0.80120  Biso   1.000  H
  C88      1.0000 0.40830  0.79820  0.85760  Biso   1.000  C
  H54      1.0000 0.44920  0.78790  0.87810  Biso   1.000  H
  C89      1.0000 0.34860  0.76820  0.87460  Biso   1.000  C
  C90      1.0000 0.29040  0.77540  0.84030  Biso   1.000  C
  H55      1.0000 0.24940  0.75040  0.84910  Biso   1.000  H
  C91      1.0000 0.29210  0.81920  0.79300  Biso   1.000  C
  H56      1.0000 0.25220  0.82330  0.77070  Biso   1.000  H
  C92      1.0000 0.35170  0.90530  0.72850  Biso   1.000  C
  C93      1.0000 0.34610  0.62820  0.01990  Biso   1.000  C
  C94      1.0000 0.40510  0.63500  0.99690  Biso   1.000  C
  H57      1.0000 0.44530  0.60910  0.01310  Biso   1.000  H
  C95      1.0000 0.40550  0.67960  0.95010  Biso   1.000  C
  H58      1.0000 0.44600  0.68200  0.93490  Biso   1.000  H
  C96      1.0000 0.34730  0.72090  0.92510  Biso   1.000  C
  C97      1.0000 0.28870  0.71230  0.94850  Biso   1.000  C
  H59      1.0000 0.24840  0.73850  0.93250  Biso   1.000  H
  C98      1.0000 0.28720  0.66680  0.99470  Biso   1.000  C
  H60      1.0000 0.24630  0.66170  0.00910  Biso   1.000  H
  C99      1.0000 0.34450  0.57630  0.07020  Biso   1.000  C
  N6       1.0000 0.97230  0.98610  0.62942  Biso   1.000  N
  N7       1.0000 0.76000  0.99410  0.62580  Biso   1.000  N
  N8       1.0000 0.73920  0.99380  0.66700  Biso   1.000  N
  C100     1.0000 0.94330  0.95540  0.67000  Biso   1.000  C
  H61      1.0000 0.97120  0.93190  0.69810  Biso   1.000  H
  C101     1.0000 0.87340  0.95700  0.67200  Biso   1.000  C
  H62      1.0000 0.85430  0.93560  0.70090  Biso   1.000  H
  C102     1.0000 0.83260  0.99160  0.62940  Biso   1.000  C
  C103     1.0000 0.86270  0.02090  0.58760  Biso   1.000  C
  H63      1.0000 0.83590  0.04160  0.55830  Biso   1.000  H
  C104     1.0000 0.93260  0.01960  0.58910  Biso   1.000  C
  H64      1.0000 0.95270  0.04280  0.56100  Biso   1.000  H
  C105     1.0000 0.56500  0.05170  0.69940  Biso   1.000  C
  H65      1.0000 0.54480  0.08660  0.72400  Biso   1.000  H
  C106     1.0000 0.63570  0.04820  0.70090  Biso   1.000  C
  H66      1.0000 0.66290  0.08070  0.72660  Biso   1.000  H
  C107     1.0000 0.66580  0.99600  0.66400  Biso   1.000  C
  C108     1.0000 0.62520  0.94740  0.62560  Biso   1.000  C
  H67      1.0000 0.64530  0.91250  0.60100  Biso   1.000  H
  C109     1.0000 0.55440  0.95090  0.62410  Biso   1.000  C
  H68      1.0000 0.52730  0.91830  0.59840  Biso   1.000  H
  N9       1.0000 0.52430  0.00300  0.66100  Biso   1.000  N
  C110     1.0000 0.56590  0.00010  0.70610  Biso   1.000  C
  H69      1.0000 0.54670  0.00140  0.73680  Biso   1.000  H
  C111     1.0000 0.63650  0.99620  0.70620  Biso   1.000  C
  H70      1.0000 0.66450  0.99500  0.73710  Biso   1.000  H
  C112     1.0000 0.66530  0.99430  0.66020  Biso   1.000  C
  C113     1.0000 0.62340  0.99620  0.61400  Biso   1.000  C
  H71      1.0000 0.64270  0.99490  0.58320  Biso   1.000  H
  C114     1.0000 0.55290  0.00000  0.61390  Biso   1.000  C
  H72      1.0000 0.52490  0.00130  0.58300  Biso   1.000  H
  N10      1.0000 0.52410  0.00190  0.65990  Biso   1.000  N
  Zn7      1.0000 0.92321  0.01281  0.36451  Biso   1.000  Zn
  Zn8      1.0000 0.75374  0.00210  0.35360  Biso   1.000  Zn
  Zn9      1.0000 0.57980  0.98612  0.34244  Biso   1.000  Zn
  O25      1.0000 0.92390  0.16740  0.33690  Biso   1.000  O
  O26      1.0000 0.83890  0.10190  0.36724  Biso   1.000  O
  O27      1.0000 0.57460  0.83360  0.33850  Biso   1.000  O
  O28      1.0000 0.67271  0.90020  0.34190  Biso   1.000  O
  O29      1.0000 0.91552  0.93530  0.42569  Biso   1.000  O
  O30      1.0000 0.80406  0.91050  0.40626  Biso   1.000  O
  O31      1.0000 0.79464  0.55870  0.79189  Biso   1.000  O
  O32      1.0000 0.90800  0.55680  0.80051  Biso   1.000  O
  O33      1.0000 0.70220  0.09320  0.30095  Biso   1.000  O
  O34      1.0000 0.59248  0.05930  0.28104  Biso   1.000  O
  O35      1.0000 0.59821  0.45010  0.90831  Biso   1.000  O
  O36      1.0000 0.71131  0.43390  0.91355  Biso   1.000  O
  C115     1.0000 0.82830  0.26830  0.34250  Biso   1.000  C
  C116     1.0000 0.76770  0.28120  0.36200  Biso   1.000  C
  H73      1.0000 0.74810  0.22970  0.37810  Biso   1.000  H
  C117     1.0000 0.73480  0.37010  0.35830  Biso   1.000  C
  H74      1.0000 0.69280  0.37710  0.37110  Biso   1.000  H
  C118     1.0000 0.76340  0.44810  0.33590  Biso   1.000  C
  C119     1.0000 0.82350  0.43380  0.31580  Biso   1.000  C
  H75      1.0000 0.84310  0.48510  0.29980  Biso   1.000  H
  C120     1.0000 0.85580  0.34520  0.31860  Biso   1.000  C
  H76      1.0000 0.89650  0.33740  0.30430  Biso   1.000  H
  C121     1.0000 0.86570  0.17480  0.34890  Biso   1.000  C
  C122     1.0000 0.67030  0.72840  0.33770  Biso   1.000  C
  C123     1.0000 0.63070  0.64590  0.33760  Biso   1.000  C
  H77      1.0000 0.58370  0.65100  0.33820  Biso   1.000  H
  C124     1.0000 0.66100  0.55540  0.33670  Biso   1.000  C
  H78      1.0000 0.63390  0.50020  0.33680  Biso   1.000  H
  C125     1.0000 0.73020  0.54520  0.33550  Biso   1.000  C
  C126     1.0000 0.76770  0.62920  0.33380  Biso   1.000  C
  H79      1.0000 0.81450  0.62480  0.33190  Biso   1.000  H
  C127     1.0000 0.73800  0.71940  0.33480  Biso   1.000  C
  H80      1.0000 0.76480  0.77460  0.33350  Biso   1.000  H
  C128     1.0000 0.63790  0.82560  0.33970  Biso   1.000  C
  C129     1.0000 0.85740  0.84490  0.48280  Biso   1.000  C
  C130     1.0000 0.79660  0.82250  0.50170  Biso   1.000  C
  H81      1.0000 0.75560  0.83890  0.48260  Biso   1.000  H
  C131     1.0000 0.79520  0.77730  0.54730  Biso   1.000  C
  H82      1.0000 0.75320  0.76420  0.55900  Biso   1.000  H
  C132     1.0000 0.85450  0.74990  0.57710  Biso   1.000  C
  C133     1.0000 0.91600  0.77160  0.55800  Biso   1.000  C
  H83      1.0000 0.95700  0.75440  0.57680  Biso   1.000  H
  C134     1.0000 0.91700  0.81780  0.51210  Biso   1.000  C
  H84      1.0000 0.95880  0.83140  0.50030  Biso   1.000  H
  C135     1.0000 0.85860  0.90050  0.43417  Biso   1.000  C
  C136     1.0000 0.85170  0.61920  0.72500  Biso   1.000  C
  C137     1.0000 0.79320  0.63870  0.69500  Biso   1.000  C
  H85      1.0000 0.75140  0.62420  0.70660  Biso   1.000  H
  C138     1.0000 0.79480  0.68050  0.64690  Biso   1.000  C
  H86      1.0000 0.75360  0.69380  0.62730  Biso   1.000  H
  C139     1.0000 0.85350  0.70250  0.62730  Biso   1.000  C
  C140     1.0000 0.91160  0.68600  0.65890  Biso   1.000  C
  H87      1.0000 0.95340  0.70290  0.64790  Biso   1.000  H
  C141     1.0000 0.91100  0.64480  0.70700  Biso   1.000  C
  H88      1.0000 0.95210  0.63470  0.72740  Biso   1.000  H
  C142     1.0000 0.85030  0.57510  0.77643  Biso   1.000  C
  C143     1.0000 0.64980  0.14420  0.22130  Biso   1.000  C
  C144     1.0000 0.59060  0.15690  0.18900  Biso   1.000  C
  H89      1.0000 0.54930  0.13470  0.19880  Biso   1.000  H
  C145     1.0000 0.59170  0.20180  0.14240  Biso   1.000  C
  H90      1.0000 0.55080  0.21210  0.12190  Biso   1.000  H
  C146     1.0000 0.65140  0.23180  0.12540  Biso   1.000  C
  C147     1.0000 0.70960  0.22460  0.15970  Biso   1.000  C
  H91      1.0000 0.75060  0.24960  0.15090  Biso   1.000  H
  C148     1.0000 0.70790  0.18080  0.20700  Biso   1.000  C
  H92      1.0000 0.74780  0.17670  0.22930  Biso   1.000  H
  C149     1.0000 0.64830  0.09470  0.27150  Biso   1.000  C
  C150     1.0000 0.65390  0.37180  0.98010  Biso   1.000  C
  C151     1.0000 0.59490  0.36500  0.00310  Biso   1.000  C
  H93      1.0000 0.55470  0.39090  0.98690  Biso   1.000  H
  C152     1.0000 0.59450  0.32040  0.04990  Biso   1.000  C
  H94      1.0000 0.55400  0.31800  0.06510  Biso   1.000  H
  C153     1.0000 0.65270  0.27910  0.07490  Biso   1.000  C
  C154     1.0000 0.71130  0.28770  0.05150  Biso   1.000  C
  H95      1.0000 0.75160  0.26150  0.06750  Biso   1.000  H
  C155     1.0000 0.71280  0.33320  0.00530  Biso   1.000  C
  H96      1.0000 0.75370  0.33830  0.99090  Biso   1.000  H
  C156     1.0000 0.65550  0.42370  0.92980  Biso   1.000  C
  N11      1.0000 0.02770  0.01390  0.37058  Biso   1.000  N
  N12      1.0000 0.24000  0.00590  0.37420  Biso   1.000  N
  N13      1.0000 0.26080  0.00620  0.33300  Biso   1.000  N
  C157     1.0000 0.05670  0.04460  0.33000  Biso   1.000  C
  H97      1.0000 0.02880  0.06810  0.30190  Biso   1.000  H
  C158     1.0000 0.12660  0.04300  0.32800  Biso   1.000  C
  H98      1.0000 0.14570  0.06440  0.29910  Biso   1.000  H
  C159     1.0000 0.16740  0.00840  0.37060  Biso   1.000  C
  C160     1.0000 0.13730  0.97910  0.41240  Biso   1.000  C
  H99      1.0000 0.16410  0.95840  0.44170  Biso   1.000  H
  C161     1.0000 0.06740  0.98040  0.41090  Biso   1.000  C
  H100     1.0000 0.04730  0.95720  0.43900  Biso   1.000  H
  C162     1.0000 0.43500  0.94830  0.30060  Biso   1.000  C
  H101     1.0000 0.45520  0.91340  0.27600  Biso   1.000  H
  C163     1.0000 0.36430  0.95180  0.29910  Biso   1.000  C
  H102     1.0000 0.33710  0.91930  0.27340  Biso   1.000  H
  C164     1.0000 0.33420  0.00400  0.33600  Biso   1.000  C
  C165     1.0000 0.37480  0.05260  0.37440  Biso   1.000  C
  H103     1.0000 0.35470  0.08750  0.39900  Biso   1.000  H
  C166     1.0000 0.44560  0.04910  0.37590  Biso   1.000  C
  H104     1.0000 0.47270  0.08170  0.40160  Biso   1.000  H
  N14      1.0000 0.47570  0.99700  0.33900  Biso   1.000  N
  C167     1.0000 0.43410  0.99990  0.29390  Biso   1.000  C
  H105     1.0000 0.45330  0.99860  0.26320  Biso   1.000  H
  C168     1.0000 0.36350  0.00380  0.29380  Biso   1.000  C
  H106     1.0000 0.33550  0.00500  0.26290  Biso   1.000  H
  C169     1.0000 0.33470  0.00570  0.33980  Biso   1.000  C
  C170     1.0000 0.37660  0.00380  0.38600  Biso   1.000  C
  H107     1.0000 0.35730  0.00510  0.41680  Biso   1.000  H
  C171     1.0000 0.44710  0.00000  0.38610  Biso   1.000  C
  H108     1.0000 0.47510  0.99870  0.41700  Biso   1.000  H
  N15      1.0000 0.47590  0.99810  0.34010  Biso   1.000  N
  Zn10     1.0000 0.92321  0.48719  0.86451  Biso   1.000  Zn
  Zn11     1.0000 0.75374  0.49790  0.85360  Biso   1.000  Zn
  Zn12     1.0000 0.57980  0.51388  0.84244  Biso   1.000  Zn
  O37      1.0000 0.92390  0.33260  0.83690  Biso   1.000  O
  O38      1.0000 0.83890  0.39810  0.86724  Biso   1.000  O
  O39      1.0000 0.57460  0.66640  0.83850  Biso   1.000  O
  O40      1.0000 0.67271  0.59980  0.84190  Biso   1.000  O
  O41      1.0000 0.91552  0.56470  0.92569  Biso   1.000  O
  O42      1.0000 0.80406  0.58950  0.90626  Biso   1.000  O
  O43      1.0000 0.79464  0.94130  0.29189  Biso   1.000  O
  O44      1.0000 0.90800  0.94320  0.30051  Biso   1.000  O
  O45      1.0000 0.70220  0.40680  0.80095  Biso   1.000  O
  O46      1.0000 0.59248  0.44070  0.78104  Biso   1.000  O
  O47      1.0000 0.59821  0.04990  0.40831  Biso   1.000  O
  O48      1.0000 0.71131  0.06610  0.41355  Biso   1.000  O
  C172     1.0000 0.82830  0.23170  0.84250  Biso   1.000  C
  C173     1.0000 0.76770  0.21880  0.86200  Biso   1.000  C
  H109     1.0000 0.74810  0.27030  0.87810  Biso   1.000  H
  C174     1.0000 0.73480  0.12990  0.85830  Biso   1.000  C
  H110     1.0000 0.69280  0.12290  0.87110  Biso   1.000  H
  C175     1.0000 0.76340  0.05190  0.83590  Biso   1.000  C
  C176     1.0000 0.82350  0.06620  0.81580  Biso   1.000  C
  H111     1.0000 0.84310  0.01490  0.79980  Biso   1.000  H
  C177     1.0000 0.85580  0.15480  0.81860  Biso   1.000  C
  H112     1.0000 0.89650  0.16260  0.80430  Biso   1.000  H
  C178     1.0000 0.86570  0.32520  0.84890  Biso   1.000  C
  C179     1.0000 0.67030  0.77160  0.83770  Biso   1.000  C
  C180     1.0000 0.63070  0.85410  0.83760  Biso   1.000  C
  H113     1.0000 0.58370  0.84900  0.83820  Biso   1.000  H
  C181     1.0000 0.66100  0.94460  0.83670  Biso   1.000  C
  H114     1.0000 0.63390  0.99980  0.83680  Biso   1.000  H
  C182     1.0000 0.73020  0.95480  0.83550  Biso   1.000  C
  C183     1.0000 0.76770  0.87080  0.83380  Biso   1.000  C
  H115     1.0000 0.81450  0.87520  0.83190  Biso   1.000  H
  C184     1.0000 0.73800  0.78060  0.83480  Biso   1.000  C
  H116     1.0000 0.76480  0.72540  0.83350  Biso   1.000  H
  C185     1.0000 0.63790  0.67440  0.83970  Biso   1.000  C
  C186     1.0000 0.85740  0.65510  0.98280  Biso   1.000  C
  C187     1.0000 0.79660  0.67750  0.00170  Biso   1.000  C
  H117     1.0000 0.75560  0.66110  0.98260  Biso   1.000  H
  C188     1.0000 0.79520  0.72270  0.04730  Biso   1.000  C
  H118     1.0000 0.75320  0.73580  0.05900  Biso   1.000  H
  C189     1.0000 0.85450  0.75010  0.07710  Biso   1.000  C
  C190     1.0000 0.91600  0.72840  0.05800  Biso   1.000  C
  H119     1.0000 0.95700  0.74560  0.07680  Biso   1.000  H
  C191     1.0000 0.91700  0.68220  0.01210  Biso   1.000  C
  H120     1.0000 0.95880  0.66860  0.00030  Biso   1.000  H
  C192     1.0000 0.85860  0.59950  0.93417  Biso   1.000  C
  C193     1.0000 0.85170  0.88080  0.22500  Biso   1.000  C
  C194     1.0000 0.79320  0.86130  0.19500  Biso   1.000  C
  H121     1.0000 0.75140  0.87580  0.20660  Biso   1.000  H
  C195     1.0000 0.79480  0.81950  0.14690  Biso   1.000  C
  H122     1.0000 0.75360  0.80620  0.12730  Biso   1.000  H
  C196     1.0000 0.85350  0.79750  0.12730  Biso   1.000  C
  C197     1.0000 0.91160  0.81400  0.15890  Biso   1.000  C
  H123     1.0000 0.95340  0.79710  0.14790  Biso   1.000  H
  C198     1.0000 0.91100  0.85520  0.20700  Biso   1.000  C
  H124     1.0000 0.95210  0.86530  0.22740  Biso   1.000  H
  C199     1.0000 0.85030  0.92490  0.27643  Biso   1.000  C
  C200     1.0000 0.64980  0.35580  0.72130  Biso   1.000  C
  C201     1.0000 0.59060  0.34310  0.68900  Biso   1.000  C
  H125     1.0000 0.54930  0.36530  0.69880  Biso   1.000  H
  C202     1.0000 0.59170  0.29820  0.64240  Biso   1.000  C
  H126     1.0000 0.55080  0.28790  0.62190  Biso   1.000  H
  C203     1.0000 0.65140  0.26820  0.62540  Biso   1.000  C
  C204     1.0000 0.70960  0.27540  0.65970  Biso   1.000  C
  H127     1.0000 0.75060  0.25040  0.65090  Biso   1.000  H
  C205     1.0000 0.70790  0.31920  0.70700  Biso   1.000  C
  H128     1.0000 0.74780  0.32330  0.72930  Biso   1.000  H
  C206     1.0000 0.64830  0.40530  0.77150  Biso   1.000  C
  C207     1.0000 0.65390  0.12820  0.48010  Biso   1.000  C
  C208     1.0000 0.59490  0.13500  0.50310  Biso   1.000  C
  H129     1.0000 0.55470  0.10910  0.48690  Biso   1.000  H
  C209     1.0000 0.59450  0.17960  0.54990  Biso   1.000  C
  H130     1.0000 0.55400  0.18200  0.56510  Biso   1.000  H
  C210     1.0000 0.65270  0.22090  0.57490  Biso   1.000  C
  C211     1.0000 0.71130  0.21230  0.55150  Biso   1.000  C
  H131     1.0000 0.75160  0.23850  0.56750  Biso   1.000  H
  C212     1.0000 0.71280  0.16680  0.50530  Biso   1.000  C
  H132     1.0000 0.75370  0.16170  0.49090  Biso   1.000  H
  C213     1.0000 0.65550  0.07630  0.42980  Biso   1.000  C
  N16      1.0000 0.02770  0.48610  0.87058  Biso   1.000  N
  N17      1.0000 0.24000  0.49410  0.87420  Biso   1.000  N
  N18      1.0000 0.26080  0.49380  0.83300  Biso   1.000  N
  C214     1.0000 0.05670  0.45540  0.83000  Biso   1.000  C
  H133     1.0000 0.02880  0.43190  0.80190  Biso   1.000  H
  C215     1.0000 0.12660  0.45700  0.82800  Biso   1.000  C
  H134     1.0000 0.14570  0.43560  0.79910  Biso   1.000  H
  C216     1.0000 0.16740  0.49160  0.87060  Biso   1.000  C
  C217     1.0000 0.13730  0.52090  0.91240  Biso   1.000  C
  H135     1.0000 0.16410  0.54160  0.94170  Biso   1.000  H
  C218     1.0000 0.06740  0.51960  0.91090  Biso   1.000  C
  H136     1.0000 0.04730  0.54280  0.93900  Biso   1.000  H
  C219     1.0000 0.43500  0.55170  0.80060  Biso   1.000  C
  H137     1.0000 0.45520  0.58660  0.77600  Biso   1.000  H
  C220     1.0000 0.36430  0.54820  0.79910  Biso   1.000  C
  H138     1.0000 0.33710  0.58070  0.77340  Biso   1.000  H
  C221     1.0000 0.33420  0.49600  0.83600  Biso   1.000  C
  C222     1.0000 0.37480  0.44740  0.87440  Biso   1.000  C
  H139     1.0000 0.35470  0.41250  0.89900  Biso   1.000  H
  C223     1.0000 0.44560  0.45090  0.87590  Biso   1.000  C
  H140     1.0000 0.47270  0.41830  0.90160  Biso   1.000  H
  N19      1.0000 0.47570  0.50300  0.83900  Biso   1.000  N
  C224     1.0000 0.43410  0.50010  0.79390  Biso   1.000  C
  H141     1.0000 0.45330  0.50140  0.76320  Biso   1.000  H
  C225     1.0000 0.36350  0.49620  0.79380  Biso   1.000  C
  H142     1.0000 0.33550  0.49500  0.76290  Biso   1.000  H
  C226     1.0000 0.33470  0.49430  0.83980  Biso   1.000  C
  C227     1.0000 0.37660  0.49620  0.88600  Biso   1.000  C
  H143     1.0000 0.35730  0.49490  0.91680  Biso   1.000  H
  C228     1.0000 0.44710  0.50000  0.88610  Biso   1.000  C
  H144     1.0000 0.47510  0.50130  0.91700  Biso   1.000  H
  N20      1.0000 0.47590  0.50190  0.84010  Biso   1.000  N
