data_image0
_cell_length_a       13.4541
_cell_length_b       13.4541
_cell_length_c       27.755
_cell_angle_alpha    90
_cell_angle_beta     90
_cell_angle_gamma    120

_symmetry_space_group_name_H-M    "P 1"
_symmetry_int_tables_number       1

loop_
  _symmetry_equiv_pos_as_xyz
  'x, y, z'

loop_
  _atom_site_label
  _atom_site_occupancy
  _atom_site_fract_x
  _atom_site_fract_y
  _atom_site_fract_z
  _atom_site_thermal_displace_type
  _atom_site_B_iso_or_equiv
  _atom_site_type_symbol
  V1       1.0000 0.14188  0.43412  0.47322  Biso   1.000  V
  P1       1.0000 0.02559  0.18703  0.41572  Biso   1.000  P
  P2       1.0000 0.87287  0.36903  0.46431  Biso   1.000  P
  O1       1.0000 0.22780  0.55220  0.42347  Biso   1.000  O
  O2       1.0000 0.97357  0.10886  0.45959  Biso   1.000  O
  O3       1.0000 0.07121  0.14026  0.37740  Biso   1.000  O
  O4       1.0000 0.11974  0.30721  0.42952  Biso   1.000  O
  O5       1.0000 0.99850  0.42730  0.45039  Biso   1.000  O
  O6       1.0000 0.83350  0.45287  0.47659  Biso   1.000  O
  O7       1.0000 0.84806  0.28152  0.50398  Biso   1.000  O
  O8       1.0000 0.14190  0.07640  0.29532  Biso   1.000  O
  H1       1.0000 0.93660  0.19640  0.39660  Biso   1.000  H
  H2       1.0000 0.80490  0.30810  0.42180  Biso   1.000  H
  V2       1.0000 0.56588  0.70776  0.47322  Biso   1.000  V
  P3       1.0000 0.81297  0.83856  0.41572  Biso   1.000  P
  P4       1.0000 0.63097  0.50384  0.46431  Biso   1.000  P
  O9       1.0000 0.44780  0.67560  0.42347  Biso   1.000  O
  O10      1.0000 0.89114  0.86471  0.45959  Biso   1.000  O
  O11      1.0000 0.85974  0.93095  0.37740  Biso   1.000  O
  O12      1.0000 0.69279  0.81253  0.42952  Biso   1.000  O
  O13      1.0000 0.57270  0.57120  0.45039  Biso   1.000  O
  O14      1.0000 0.54713  0.38063  0.47659  Biso   1.000  O
  O15      1.0000 0.71848  0.56654  0.50398  Biso   1.000  O
  O16      1.0000 0.92360  0.06550  0.29532  Biso   1.000  O
  H3       1.0000 0.80360  0.74020  0.39660  Biso   1.000  H
  H4       1.0000 0.69190  0.49680  0.42180  Biso   1.000  H
  V3       1.0000 0.29224  0.85812  0.47322  Biso   1.000  V
  P5       1.0000 0.16144  0.97441  0.41572  Biso   1.000  P
  P6       1.0000 0.49616  0.12713  0.46431  Biso   1.000  P
  O17      1.0000 0.32440  0.77220  0.42347  Biso   1.000  O
  O18      1.0000 0.13529  0.02643  0.45959  Biso   1.000  O
  O19      1.0000 0.06905  0.92879  0.37740  Biso   1.000  O
  O20      1.0000 0.18747  0.88026  0.42952  Biso   1.000  O
  O21      1.0000 0.42880  0.00150  0.45039  Biso   1.000  O
  O22      1.0000 0.61937  0.16650  0.47659  Biso   1.000  O
  O23      1.0000 0.43346  0.15194  0.50398  Biso   1.000  O
  O24      1.0000 0.93450  0.85810  0.29532  Biso   1.000  O
  H5       1.0000 0.25980  0.06340  0.39660  Biso   1.000  H
  H6       1.0000 0.50320  0.19510  0.42180  Biso   1.000  H
  V4       1.0000 0.85812  0.56588  0.97322  Biso   1.000  V
  P7       1.0000 0.97441  0.81297  0.91572  Biso   1.000  P
  P8       1.0000 0.12713  0.63097  0.96431  Biso   1.000  P
  O25      1.0000 0.77220  0.44780  0.92347  Biso   1.000  O
  O26      1.0000 0.02643  0.89114  0.95959  Biso   1.000  O
  O27      1.0000 0.92879  0.85974  0.87740  Biso   1.000  O
  O28      1.0000 0.88026  0.69279  0.92952  Biso   1.000  O
  O29      1.0000 0.00150  0.57270  0.95039  Biso   1.000  O
  O30      1.0000 0.16650  0.54713  0.97659  Biso   1.000  O
  O31      1.0000 0.15194  0.71848  0.00398  Biso   1.000  O
  O32      1.0000 0.85810  0.92360  0.79532  Biso   1.000  O
  H7       1.0000 0.06340  0.80360  0.89660  Biso   1.000  H
  H8       1.0000 0.19510  0.69190  0.92180  Biso   1.000  H
  V5       1.0000 0.43412  0.29224  0.97322  Biso   1.000  V
  P9       1.0000 0.18703  0.16144  0.91572  Biso   1.000  P
  P10      1.0000 0.36903  0.49616  0.96431  Biso   1.000  P
  O33      1.0000 0.55220  0.32440  0.92347  Biso   1.000  O
  O34      1.0000 0.10886  0.13529  0.95959  Biso   1.000  O
  O35      1.0000 0.14026  0.06905  0.87740  Biso   1.000  O
  O36      1.0000 0.30721  0.18747  0.92952  Biso   1.000  O
  O37      1.0000 0.42730  0.42880  0.95039  Biso   1.000  O
  O38      1.0000 0.45287  0.61937  0.97659  Biso   1.000  O
  O39      1.0000 0.28152  0.43346  0.00398  Biso   1.000  O
  O40      1.0000 0.07640  0.93450  0.79532  Biso   1.000  O
  H9       1.0000 0.19640  0.25980  0.89660  Biso   1.000  H
  H10      1.0000 0.30810  0.50320  0.92180  Biso   1.000  H
  V6       1.0000 0.70776  0.14188  0.97322  Biso   1.000  V
  P11      1.0000 0.83856  0.02559  0.91572  Biso   1.000  P
  P12      1.0000 0.50384  0.87287  0.96431  Biso   1.000  P
  O41      1.0000 0.67560  0.22780  0.92347  Biso   1.000  O
  O42      1.0000 0.86471  0.97357  0.95959  Biso   1.000  O
  O43      1.0000 0.93095  0.07121  0.87740  Biso   1.000  O
  O44      1.0000 0.81253  0.11974  0.92952  Biso   1.000  O
  O45      1.0000 0.57120  0.99850  0.95039  Biso   1.000  O
  O46      1.0000 0.38063  0.83350  0.97659  Biso   1.000  O
  O47      1.0000 0.56654  0.84806  0.00398  Biso   1.000  O
  O48      1.0000 0.06550  0.14190  0.79532  Biso   1.000  O
  H11      1.0000 0.74020  0.93660  0.89660  Biso   1.000  H
  H12      1.0000 0.49680  0.80490  0.92180  Biso   1.000  H
  V7       1.0000 0.85812  0.56588  0.52678  Biso   1.000  V
  P13      1.0000 0.97441  0.81297  0.58428  Biso   1.000  P
  P14      1.0000 0.12713  0.63097  0.53569  Biso   1.000  P
  O49      1.0000 0.77220  0.44780  0.57653  Biso   1.000  O
  O50      1.0000 0.02643  0.89114  0.54041  Biso   1.000  O
  O51      1.0000 0.92879  0.85974  0.62260  Biso   1.000  O
  O52      1.0000 0.88026  0.69279  0.57048  Biso   1.000  O
  O53      1.0000 0.00150  0.57270  0.54961  Biso   1.000  O
  O54      1.0000 0.16650  0.54713  0.52341  Biso   1.000  O
  O55      1.0000 0.15194  0.71848  0.49602  Biso   1.000  O
  O56      1.0000 0.85810  0.92360  0.70468  Biso   1.000  O
  H13      1.0000 0.06340  0.80360  0.60340  Biso   1.000  H
  H14      1.0000 0.19510  0.69190  0.57820  Biso   1.000  H
  V8       1.0000 0.43412  0.29224  0.52678  Biso   1.000  V
  P15      1.0000 0.18703  0.16144  0.58428  Biso   1.000  P
  P16      1.0000 0.36903  0.49616  0.53569  Biso   1.000  P
  O57      1.0000 0.55220  0.32440  0.57653  Biso   1.000  O
  O58      1.0000 0.10886  0.13529  0.54041  Biso   1.000  O
  O59      1.0000 0.14026  0.06905  0.62260  Biso   1.000  O
  O60      1.0000 0.30721  0.18747  0.57048  Biso   1.000  O
  O61      1.0000 0.42730  0.42880  0.54961  Biso   1.000  O
  O62      1.0000 0.45287  0.61937  0.52341  Biso   1.000  O
  O63      1.0000 0.28152  0.43346  0.49602  Biso   1.000  O
  O64      1.0000 0.07640  0.93450  0.70468  Biso   1.000  O
  H15      1.0000 0.19640  0.25980  0.60340  Biso   1.000  H
  H16      1.0000 0.30810  0.50320  0.57820  Biso   1.000  H
  V9       1.0000 0.70776  0.14188  0.52678  Biso   1.000  V
  P17      1.0000 0.83856  0.02559  0.58428  Biso   1.000  P
  P18      1.0000 0.50384  0.87287  0.53569  Biso   1.000  P
  O65      1.0000 0.67560  0.22780  0.57653  Biso   1.000  O
  O66      1.0000 0.86471  0.97357  0.54041  Biso   1.000  O
  O67      1.0000 0.93095  0.07121  0.62260  Biso   1.000  O
  O68      1.0000 0.81253  0.11974  0.57048  Biso   1.000  O
  O69      1.0000 0.57120  0.99850  0.54961  Biso   1.000  O
  O70      1.0000 0.38063  0.83350  0.52341  Biso   1.000  O
  O71      1.0000 0.56654  0.84806  0.49602  Biso   1.000  O
  O72      1.0000 0.06550  0.14190  0.70468  Biso   1.000  O
  H17      1.0000 0.74020  0.93660  0.60340  Biso   1.000  H
  H18      1.0000 0.49680  0.80490  0.57820  Biso   1.000  H
  V10      1.0000 0.14188  0.43412  0.02678  Biso   1.000  V
  P19      1.0000 0.02559  0.18703  0.08428  Biso   1.000  P
  P20      1.0000 0.87287  0.36903  0.03569  Biso   1.000  P
  O73      1.0000 0.22780  0.55220  0.07653  Biso   1.000  O
  O74      1.0000 0.97357  0.10886  0.04041  Biso   1.000  O
  O75      1.0000 0.07121  0.14026  0.12260  Biso   1.000  O
  O76      1.0000 0.11974  0.30721  0.07048  Biso   1.000  O
  O77      1.0000 0.99850  0.42730  0.04961  Biso   1.000  O
  O78      1.0000 0.83350  0.45287  0.02341  Biso   1.000  O
  O79      1.0000 0.84806  0.28152  0.99602  Biso   1.000  O
  O80      1.0000 0.14190  0.07640  0.20468  Biso   1.000  O
  H19      1.0000 0.93660  0.19640  0.10340  Biso   1.000  H
  H20      1.0000 0.80490  0.30810  0.07820  Biso   1.000  H
  V11      1.0000 0.56588  0.70776  0.02678  Biso   1.000  V
  P21      1.0000 0.81297  0.83856  0.08428  Biso   1.000  P
  P22      1.0000 0.63097  0.50384  0.03569  Biso   1.000  P
  O81      1.0000 0.44780  0.67560  0.07653  Biso   1.000  O
  O82      1.0000 0.89114  0.86471  0.04041  Biso   1.000  O
  O83      1.0000 0.85974  0.93095  0.12260  Biso   1.000  O
  O84      1.0000 0.69279  0.81253  0.07048  Biso   1.000  O
  O85      1.0000 0.57270  0.57120  0.04961  Biso   1.000  O
  O86      1.0000 0.54713  0.38063  0.02341  Biso   1.000  O
  O87      1.0000 0.71848  0.56654  0.99602  Biso   1.000  O
  O88      1.0000 0.92360  0.06550  0.20468  Biso   1.000  O
  H21      1.0000 0.80360  0.74020  0.10340  Biso   1.000  H
  H22      1.0000 0.69190  0.49680  0.07820  Biso   1.000  H
  V12      1.0000 0.29224  0.85812  0.02678  Biso   1.000  V
  P23      1.0000 0.16144  0.97441  0.08428  Biso   1.000  P
  P24      1.0000 0.49616  0.12713  0.03569  Biso   1.000  P
  O89      1.0000 0.32440  0.77220  0.07653  Biso   1.000  O
  O90      1.0000 0.13529  0.02643  0.04041  Biso   1.000  O
  O91      1.0000 0.06905  0.92879  0.12260  Biso   1.000  O
  O92      1.0000 0.18747  0.88026  0.07048  Biso   1.000  O
  O93      1.0000 0.42880  0.00150  0.04961  Biso   1.000  O
  O94      1.0000 0.61937  0.16650  0.02341  Biso   1.000  O
  O95      1.0000 0.43346  0.15194  0.99602  Biso   1.000  O
  O96      1.0000 0.93450  0.85810  0.20468  Biso   1.000  O
  H23      1.0000 0.25980  0.06340  0.10340  Biso   1.000  H
  H24      1.0000 0.50320  0.19510  0.07820  Biso   1.000  H
  V13      1.0000 0.00000  0.00000  0.50000  Biso   1.000  V
  V14      1.0000 0.00000  0.00000  0.00000  Biso   1.000  V
  V15      1.0000 0.00000  0.00000  0.33611  Biso   1.000  V
  V16      1.0000 0.00000  0.00000  0.83611  Biso   1.000  V
  V17      1.0000 0.00000  0.00000  0.66389  Biso   1.000  V
  V18      1.0000 0.00000  0.00000  0.16389  Biso   1.000  V
  P25      1.0000 0.19180  0.06298  0.25000  Biso   1.000  P
  O97      1.0000 0.32230  0.13900  0.25000  Biso   1.000  O
  H25      1.0000 0.35170  0.09810  0.25000  Biso   1.000  H
  H26      1.0000 0.20010  0.95750  0.25000  Biso   1.000  H
  H27      1.0000 0.30550  0.22760  0.25000  Biso   1.000  H
  O98      1.0000 0.31200  0.17000  0.25000  Biso   1.000  O
  P26      1.0000 0.93702  0.12882  0.25000  Biso   1.000  P
  O99      1.0000 0.86100  0.18330  0.25000  Biso   1.000  O
  H28      1.0000 0.90190  0.25360  0.25000  Biso   1.000  H
  H29      1.0000 0.04250  0.24260  0.25000  Biso   1.000  H
  H30      1.0000 0.77240  0.07790  0.25000  Biso   1.000  H
  O100     1.0000 0.83000  0.14200  0.25000  Biso   1.000  O
  P27      1.0000 0.87118  0.80820  0.25000  Biso   1.000  P
  O101     1.0000 0.81670  0.67770  0.25000  Biso   1.000  O
  H31      1.0000 0.74640  0.64830  0.25000  Biso   1.000  H
  H32      1.0000 0.75740  0.79990  0.25000  Biso   1.000  H
  H33      1.0000 0.92210  0.69450  0.25000  Biso   1.000  H
  O102     1.0000 0.85800  0.68800  0.25000  Biso   1.000  O
  P28      1.0000 0.80820  0.93702  0.75000  Biso   1.000  P
  O103     1.0000 0.67770  0.86100  0.75000  Biso   1.000  O
  H34      1.0000 0.64830  0.90190  0.75000  Biso   1.000  H
  H35      1.0000 0.79990  0.04250  0.75000  Biso   1.000  H
  H36      1.0000 0.69450  0.77240  0.75000  Biso   1.000  H
  O104     1.0000 0.68800  0.83000  0.75000  Biso   1.000  O
  P29      1.0000 0.06298  0.87118  0.75000  Biso   1.000  P
  O105     1.0000 0.13900  0.81670  0.75000  Biso   1.000  O
  H37      1.0000 0.09810  0.74640  0.75000  Biso   1.000  H
  H38      1.0000 0.95750  0.75740  0.75000  Biso   1.000  H
  H39      1.0000 0.22760  0.92210  0.75000  Biso   1.000  H
  O106     1.0000 0.17000  0.85800  0.75000  Biso   1.000  O
  P30      1.0000 0.12882  0.19180  0.75000  Biso   1.000  P
  O107     1.0000 0.18330  0.32230  0.75000  Biso   1.000  O
  H40      1.0000 0.25360  0.35170  0.75000  Biso   1.000  H
  H41      1.0000 0.24260  0.20010  0.75000  Biso   1.000  H
  H42      1.0000 0.07790  0.30550  0.75000  Biso   1.000  H
  O108     1.0000 0.14200  0.31200  0.75000  Biso   1.000  O
  P31      1.0000 0.33333  0.66667  0.41040  Biso   1.000  P
  H43      1.0000 0.33333  0.66667  0.36440  Biso   1.000  H
  B1       1.0000 0.33333  0.66667  0.42000  Biso   1.000  B
  P32      1.0000 0.66667  0.33333  0.91040  Biso   1.000  P
  H44      1.0000 0.66667  0.33333  0.86440  Biso   1.000  H
  B2       1.0000 0.66667  0.33333  0.92000  Biso   1.000  B
  P33      1.0000 0.66667  0.33333  0.58960  Biso   1.000  P
  H45      1.0000 0.66667  0.33333  0.63560  Biso   1.000  H
  B3       1.0000 0.66667  0.33333  0.58000  Biso   1.000  B
  P34      1.0000 0.33333  0.66667  0.08960  Biso   1.000  P
  H46      1.0000 0.33333  0.66667  0.13560  Biso   1.000  H
  B4       1.0000 0.33333  0.66667  0.08000  Biso   1.000  B
