data_image0
_cell_length_a       17.7101
_cell_length_b       13.2378
_cell_length_c       17.869
_cell_angle_alpha    90
_cell_angle_beta     90.847
_cell_angle_gamma    90

_symmetry_space_group_name_H-M    "P 1"
_symmetry_int_tables_number       1

loop_
  _symmetry_equiv_pos_as_xyz
  'x, y, z'

loop_
  _atom_site_label
  _atom_site_occupancy
  _atom_site_fract_x
  _atom_site_fract_y
  _atom_site_fract_z
  _atom_site_thermal_displace_type
  _atom_site_B_iso_or_equiv
  _atom_site_type_symbol
  N1       1.0000 0.57900  0.31730  0.97990  Biso   1.000  N
  C1       1.0000 0.51770  0.28510  0.94430  Biso   1.000  C
  H1       1.0000 0.49640  0.21970  0.94960  Biso   1.000  H
  N2       1.0000 0.48940  0.35840  0.89940  Biso   1.000  N
  C2       1.0000 0.53610  0.44450  0.90900  Biso   1.000  C
  H2       1.0000 0.52960  0.50920  0.88680  Biso   1.000  H
  C3       1.0000 0.59030  0.41570  0.95500  Biso   1.000  C
  H3       1.0000 0.63200  0.45680  0.96950  Biso   1.000  H
  C4       1.0000 0.88030  0.64850  0.02870  Biso   1.000  C
  C5       1.0000 0.80210  0.64440  0.02770  Biso   1.000  C
  H4       1.0000 0.77370  0.69960  0.00810  Biso   1.000  H
  C6       1.0000 0.76540  0.56100  0.05490  Biso   1.000  C
  H5       1.0000 0.71180  0.55810  0.05310  Biso   1.000  H
  C7       1.0000 0.80660  0.48000  0.08540  Biso   1.000  C
  C8       1.0000 0.88440  0.48430  0.08510  Biso   1.000  C
  H6       1.0000 0.91300  0.42990  0.10530  Biso   1.000  H
  C9       1.0000 0.92140  0.56770  0.05530  Biso   1.000  C
  H7       1.0000 0.97500  0.56870  0.05350  Biso   1.000  H
  C10      1.0000 0.76470  0.39240  0.11840  Biso   1.000  C
  C11      1.0000 0.95510  0.73140  0.93150  Biso   1.000  C
  C12      1.0000 0.93620  0.66060  0.87880  Biso   1.000  C
  H8       1.0000 0.89840  0.61190  0.88960  Biso   1.000  H
  C13      1.0000 0.97100  0.65850  0.81020  Biso   1.000  C
  H9       1.0000 0.95610  0.61020  0.77350  Biso   1.000  H
  C14      1.0000 0.02850  0.72800  0.79490  Biso   1.000  C
  C15      1.0000 0.04940  0.79760  0.84940  Biso   1.000  C
  H10      1.0000 0.08930  0.84370  0.84010  Biso   1.000  H
  C16      1.0000 0.01310  0.80030  0.91620  Biso   1.000  C
  H11      1.0000 0.02730  0.84920  0.95270  Biso   1.000  H
  C17      1.0000 0.06390  0.72810  0.71940  Biso   1.000  C
  C18      1.0000 0.88460  0.83100  0.02380  Biso   1.000  C
  C19      1.0000 0.87530  0.85030  0.10040  Biso   1.000  C
  H12      1.0000 0.89470  0.80430  0.13660  Biso   1.000  H
  C20      1.0000 0.83850  0.93480  0.12230  Biso   1.000  C
  H13      1.0000 0.83340  0.94810  0.17430  Biso   1.000  H
  C21      1.0000 0.80830  0.00190  0.07110  Biso   1.000  C
  C22      1.0000 0.81950  0.98430  0.99590  Biso   1.000  C
  H14      1.0000 0.80050  0.03080  0.95970  Biso   1.000  H
  C23      1.0000 0.85810  0.89960  0.97300  Biso   1.000  C
  H15      1.0000 0.86640  0.88900  0.92120  Biso   1.000  H
  C24      1.0000 0.76130  0.08990  0.09820  Biso   1.000  C
  C25      1.0000 0.42000  0.35140  0.85590  Biso   1.000  C
  C26      1.0000 0.39600  0.43640  0.81650  Biso   1.000  C
  H16      1.0000 0.42510  0.49670  0.81820  Biso   1.000  H
  C27      1.0000 0.33010  0.43300  0.77500  Biso   1.000  C
  H17      1.0000 0.31410  0.49160  0.74840  Biso   1.000  H
  C28      1.0000 0.28630  0.34640  0.77100  Biso   1.000  C
  C29      1.0000 0.31090  0.26130  0.80950  Biso   1.000  C
  H18      1.0000 0.28210  0.20080  0.80700  Biso   1.000  H
  C30      1.0000 0.37700  0.26400  0.85170  Biso   1.000  C
  H19      1.0000 0.39310  0.20530  0.87800  Biso   1.000  H
  Cd1      1.0000 0.63006  0.23642  0.08312  Biso   1.000  Cd
  N3       1.0000 0.91830  0.73660  0.00140  Biso   1.000  N
  O1       1.0000 0.70090  0.37440  0.09100  Biso   1.000  O
  O2       1.0000 0.79559  0.34670  0.17102  Biso   1.000  O
  O3       1.0000 0.12227  0.78340  0.71041  Biso   1.000  O
  O4       1.0000 0.03490  0.67950  0.66580  Biso   1.000  O
  O5       1.0000 0.76230  0.10740  0.16520  Biso   1.000  O
  O6       1.0000 0.72470  0.13790  0.04870  Biso   1.000  O
  N4       1.0000 0.57680  0.30600  0.98220  Biso   1.000  N
  C31      1.0000 0.50660  0.29500  0.95800  Biso   1.000  C
  H20      1.0000 0.47010  0.25400  0.98180  Biso   1.000  H
  N5       1.0000 0.49280  0.34980  0.89440  Biso   1.000  N
  C32      1.0000 0.56130  0.39740  0.87920  Biso   1.000  C
  H21      1.0000 0.57050  0.44150  0.83840  Biso   1.000  H
  C33      1.0000 0.61060  0.37070  0.93060  Biso   1.000  C
  H22      1.0000 0.66180  0.39210  0.93270  Biso   1.000  H
  N6       1.0000 0.56940  0.31360  0.99000  Biso   1.000  N
  C34      1.0000 0.51780  0.28150  0.94160  Biso   1.000  C
  H23      1.0000 0.50860  0.21270  0.92930  Biso   1.000  H
  N7       1.0000 0.47970  0.36150  0.91190  Biso   1.000  N
  C35      1.0000 0.50980  0.44940  0.94510  Biso   1.000  C
  H24      1.0000 0.49350  0.51700  0.93720  Biso   1.000  H
  C36      1.0000 0.56430  0.41900  0.98890  Biso   1.000  C
  H25      1.0000 0.59670  0.46280  0.01670  Biso   1.000  H
  N8       1.0000 0.92100  0.31730  0.52010  Biso   1.000  N
  C37      1.0000 0.98230  0.28510  0.55570  Biso   1.000  C
  H26      1.0000 0.00360  0.21970  0.55040  Biso   1.000  H
  N9       1.0000 0.01060  0.35840  0.60060  Biso   1.000  N
  C38      1.0000 0.96390  0.44450  0.59100  Biso   1.000  C
  H27      1.0000 0.97040  0.50920  0.61320  Biso   1.000  H
  C39      1.0000 0.90970  0.41570  0.54500  Biso   1.000  C
  H28      1.0000 0.86800  0.45680  0.53050  Biso   1.000  H
  C40      1.0000 0.61970  0.64850  0.47130  Biso   1.000  C
  C41      1.0000 0.69790  0.64440  0.47230  Biso   1.000  C
  H29      1.0000 0.72630  0.69960  0.49190  Biso   1.000  H
  C42      1.0000 0.73460  0.56100  0.44510  Biso   1.000  C
  H30      1.0000 0.78820  0.55810  0.44690  Biso   1.000  H
  C43      1.0000 0.69340  0.48000  0.41460  Biso   1.000  C
  C44      1.0000 0.61560  0.48430  0.41490  Biso   1.000  C
  H31      1.0000 0.58700  0.42990  0.39470  Biso   1.000  H
  C45      1.0000 0.57860  0.56770  0.44470  Biso   1.000  C
  H32      1.0000 0.52500  0.56870  0.44650  Biso   1.000  H
  C46      1.0000 0.73530  0.39240  0.38160  Biso   1.000  C
  C47      1.0000 0.54490  0.73140  0.56850  Biso   1.000  C
  C48      1.0000 0.56380  0.66060  0.62120  Biso   1.000  C
  H33      1.0000 0.60160  0.61190  0.61040  Biso   1.000  H
  C49      1.0000 0.52900  0.65850  0.68980  Biso   1.000  C
  H34      1.0000 0.54390  0.61020  0.72650  Biso   1.000  H
  C50      1.0000 0.47150  0.72800  0.70510  Biso   1.000  C
  C51      1.0000 0.45060  0.79760  0.65060  Biso   1.000  C
  H35      1.0000 0.41070  0.84370  0.65990  Biso   1.000  H
  C52      1.0000 0.48690  0.80030  0.58380  Biso   1.000  C
  H36      1.0000 0.47270  0.84920  0.54730  Biso   1.000  H
  C53      1.0000 0.43610  0.72810  0.78060  Biso   1.000  C
  C54      1.0000 0.61540  0.83100  0.47620  Biso   1.000  C
  C55      1.0000 0.62470  0.85030  0.39960  Biso   1.000  C
  H37      1.0000 0.60530  0.80430  0.36340  Biso   1.000  H
  C56      1.0000 0.66150  0.93480  0.37770  Biso   1.000  C
  H38      1.0000 0.66660  0.94810  0.32570  Biso   1.000  H
  C57      1.0000 0.69170  0.00190  0.42890  Biso   1.000  C
  C58      1.0000 0.68050  0.98430  0.50410  Biso   1.000  C
  H39      1.0000 0.69950  0.03080  0.54030  Biso   1.000  H
  C59      1.0000 0.64190  0.89960  0.52700  Biso   1.000  C
  H40      1.0000 0.63360  0.88900  0.57880  Biso   1.000  H
  C60      1.0000 0.73870  0.08990  0.40180  Biso   1.000  C
  C61      1.0000 0.08000  0.35140  0.64410  Biso   1.000  C
  C62      1.0000 0.10400  0.43640  0.68350  Biso   1.000  C
  H41      1.0000 0.07490  0.49670  0.68180  Biso   1.000  H
  C63      1.0000 0.16990  0.43300  0.72500  Biso   1.000  C
  H42      1.0000 0.18590  0.49160  0.75160  Biso   1.000  H
  C64      1.0000 0.21370  0.34640  0.72900  Biso   1.000  C
  C65      1.0000 0.18910  0.26130  0.69050  Biso   1.000  C
  H43      1.0000 0.21790  0.20080  0.69300  Biso   1.000  H
  C66      1.0000 0.12300  0.26400  0.64830  Biso   1.000  C
  H44      1.0000 0.10690  0.20530  0.62200  Biso   1.000  H
  Cd2      1.0000 0.86994  0.23642  0.41688  Biso   1.000  Cd
  N10      1.0000 0.58170  0.73660  0.49860  Biso   1.000  N
  O7       1.0000 0.79910  0.37440  0.40900  Biso   1.000  O
  O8       1.0000 0.70441  0.34670  0.32898  Biso   1.000  O
  O9       1.0000 0.37773  0.78340  0.78959  Biso   1.000  O
  O10      1.0000 0.46510  0.67950  0.83420  Biso   1.000  O
  O11      1.0000 0.73770  0.10740  0.33480  Biso   1.000  O
  O12      1.0000 0.77530  0.13790  0.45130  Biso   1.000  O
  N11      1.0000 0.92320  0.30600  0.51780  Biso   1.000  N
  C67      1.0000 0.99340  0.29500  0.54200  Biso   1.000  C
  H45      1.0000 0.02990  0.25400  0.51820  Biso   1.000  H
  N12      1.0000 0.00720  0.34980  0.60560  Biso   1.000  N
  C68      1.0000 0.93870  0.39740  0.62080  Biso   1.000  C
  H46      1.0000 0.92950  0.44150  0.66160  Biso   1.000  H
  C69      1.0000 0.88940  0.37070  0.56940  Biso   1.000  C
  H47      1.0000 0.83820  0.39210  0.56730  Biso   1.000  H
  N13      1.0000 0.93060  0.31360  0.51000  Biso   1.000  N
  C70      1.0000 0.98220  0.28150  0.55840  Biso   1.000  C
  H48      1.0000 0.99140  0.21270  0.57070  Biso   1.000  H
  N14      1.0000 0.02030  0.36150  0.58810  Biso   1.000  N
  C71      1.0000 0.99020  0.44940  0.55490  Biso   1.000  C
  H49      1.0000 0.00650  0.51700  0.56280  Biso   1.000  H
  C72      1.0000 0.93570  0.41900  0.51110  Biso   1.000  C
  H50      1.0000 0.90330  0.46280  0.48330  Biso   1.000  H
  N15      1.0000 0.42100  0.68270  0.02010  Biso   1.000  N
  C73      1.0000 0.48230  0.71490  0.05570  Biso   1.000  C
  H51      1.0000 0.50360  0.78030  0.05040  Biso   1.000  H
  N16      1.0000 0.51060  0.64160  0.10060  Biso   1.000  N
  C74      1.0000 0.46390  0.55550  0.09100  Biso   1.000  C
  H52      1.0000 0.47040  0.49080  0.11320  Biso   1.000  H
  C75      1.0000 0.40970  0.58430  0.04500  Biso   1.000  C
  H53      1.0000 0.36800  0.54320  0.03050  Biso   1.000  H
  C76      1.0000 0.11970  0.35150  0.97130  Biso   1.000  C
  C77      1.0000 0.19790  0.35560  0.97230  Biso   1.000  C
  H54      1.0000 0.22630  0.30040  0.99190  Biso   1.000  H
  C78      1.0000 0.23460  0.43900  0.94510  Biso   1.000  C
  H55      1.0000 0.28820  0.44190  0.94690  Biso   1.000  H
  C79      1.0000 0.19340  0.52000  0.91460  Biso   1.000  C
  C80      1.0000 0.11560  0.51570  0.91490  Biso   1.000  C
  H56      1.0000 0.08700  0.57010  0.89470  Biso   1.000  H
  C81      1.0000 0.07860  0.43230  0.94470  Biso   1.000  C
  H57      1.0000 0.02500  0.43130  0.94650  Biso   1.000  H
  C82      1.0000 0.23530  0.60760  0.88160  Biso   1.000  C
  C83      1.0000 0.04490  0.26860  0.06850  Biso   1.000  C
  C84      1.0000 0.06380  0.33940  0.12120  Biso   1.000  C
  H58      1.0000 0.10160  0.38810  0.11040  Biso   1.000  H
  C85      1.0000 0.02900  0.34150  0.18980  Biso   1.000  C
  H59      1.0000 0.04390  0.38980  0.22650  Biso   1.000  H
  C86      1.0000 0.97150  0.27200  0.20510  Biso   1.000  C
  C87      1.0000 0.95060  0.20240  0.15060  Biso   1.000  C
  H60      1.0000 0.91070  0.15630  0.15990  Biso   1.000  H
  C88      1.0000 0.98690  0.19970  0.08380  Biso   1.000  C
  H61      1.0000 0.97270  0.15080  0.04730  Biso   1.000  H
  C89      1.0000 0.93610  0.27190  0.28060  Biso   1.000  C
  C90      1.0000 0.11540  0.16900  0.97620  Biso   1.000  C
  C91      1.0000 0.12470  0.14970  0.89960  Biso   1.000  C
  H62      1.0000 0.10530  0.19570  0.86340  Biso   1.000  H
  C92      1.0000 0.16150  0.06520  0.87770  Biso   1.000  C
  H63      1.0000 0.16660  0.05190  0.82570  Biso   1.000  H
  C93      1.0000 0.19170  0.99810  0.92890  Biso   1.000  C
  C94      1.0000 0.18050  0.01570  0.00410  Biso   1.000  C
  H64      1.0000 0.19950  0.96920  0.04030  Biso   1.000  H
  C95      1.0000 0.14190  0.10040  0.02700  Biso   1.000  C
  H65      1.0000 0.13360  0.11100  0.07880  Biso   1.000  H
  C96      1.0000 0.23870  0.91010  0.90180  Biso   1.000  C
  C97      1.0000 0.58000  0.64860  0.14410  Biso   1.000  C
  C98      1.0000 0.60400  0.56360  0.18350  Biso   1.000  C
  H66      1.0000 0.57490  0.50330  0.18180  Biso   1.000  H
  C99      1.0000 0.66990  0.56700  0.22500  Biso   1.000  C
  H67      1.0000 0.68590  0.50840  0.25160  Biso   1.000  H
  C100     1.0000 0.71370  0.65360  0.22900  Biso   1.000  C
  C101     1.0000 0.68910  0.73870  0.19050  Biso   1.000  C
  H68      1.0000 0.71790  0.79920  0.19300  Biso   1.000  H
  C102     1.0000 0.62300  0.73600  0.14830  Biso   1.000  C
  H69      1.0000 0.60690  0.79470  0.12200  Biso   1.000  H
  Cd3      1.0000 0.36994  0.76358  0.91688  Biso   1.000  Cd
  N17      1.0000 0.08170  0.26340  0.99860  Biso   1.000  N
  O13      1.0000 0.29910  0.62560  0.90900  Biso   1.000  O
  O14      1.0000 0.20441  0.65330  0.82898  Biso   1.000  O
  O15      1.0000 0.87773  0.21660  0.28959  Biso   1.000  O
  O16      1.0000 0.96510  0.32050  0.33420  Biso   1.000  O
  O17      1.0000 0.23770  0.89260  0.83480  Biso   1.000  O
  O18      1.0000 0.27530  0.86210  0.95130  Biso   1.000  O
  N18      1.0000 0.42320  0.69400  0.01780  Biso   1.000  N
  C103     1.0000 0.49340  0.70500  0.04200  Biso   1.000  C
  H70      1.0000 0.52990  0.74600  0.01820  Biso   1.000  H
  N19      1.0000 0.50720  0.65020  0.10560  Biso   1.000  N
  C104     1.0000 0.43870  0.60260  0.12080  Biso   1.000  C
  H71      1.0000 0.42950  0.55850  0.16160  Biso   1.000  H
  C105     1.0000 0.38940  0.62930  0.06940  Biso   1.000  C
  H72      1.0000 0.33820  0.60790  0.06730  Biso   1.000  H
  N20      1.0000 0.43060  0.68640  0.01000  Biso   1.000  N
  C106     1.0000 0.48220  0.71850  0.05840  Biso   1.000  C
  H73      1.0000 0.49140  0.78730  0.07070  Biso   1.000  H
  N21      1.0000 0.52030  0.63850  0.08810  Biso   1.000  N
  C107     1.0000 0.49020  0.55060  0.05490  Biso   1.000  C
  H74      1.0000 0.50650  0.48300  0.06280  Biso   1.000  H
  C108     1.0000 0.43570  0.58100  0.01110  Biso   1.000  C
  H75      1.0000 0.40330  0.53720  0.98330  Biso   1.000  H
  N22      1.0000 0.07900  0.68270  0.47990  Biso   1.000  N
  C109     1.0000 0.01770  0.71490  0.44430  Biso   1.000  C
  H76      1.0000 0.99640  0.78030  0.44960  Biso   1.000  H
  N23      1.0000 0.98940  0.64160  0.39940  Biso   1.000  N
  C110     1.0000 0.03610  0.55550  0.40900  Biso   1.000  C
  H77      1.0000 0.02960  0.49080  0.38680  Biso   1.000  H
  C111     1.0000 0.09030  0.58430  0.45500  Biso   1.000  C
  H78      1.0000 0.13200  0.54320  0.46950  Biso   1.000  H
  C112     1.0000 0.38030  0.35150  0.52870  Biso   1.000  C
  C113     1.0000 0.30210  0.35560  0.52770  Biso   1.000  C
  H79      1.0000 0.27370  0.30040  0.50810  Biso   1.000  H
  C114     1.0000 0.26540  0.43900  0.55490  Biso   1.000  C
  H80      1.0000 0.21180  0.44190  0.55310  Biso   1.000  H
  C115     1.0000 0.30660  0.52000  0.58540  Biso   1.000  C
  C116     1.0000 0.38440  0.51570  0.58510  Biso   1.000  C
  H81      1.0000 0.41300  0.57010  0.60530  Biso   1.000  H
  C117     1.0000 0.42140  0.43230  0.55530  Biso   1.000  C
  H82      1.0000 0.47500  0.43130  0.55350  Biso   1.000  H
  C118     1.0000 0.26470  0.60760  0.61840  Biso   1.000  C
  C119     1.0000 0.45510  0.26860  0.43150  Biso   1.000  C
  C120     1.0000 0.43620  0.33940  0.37880  Biso   1.000  C
  H83      1.0000 0.39840  0.38810  0.38960  Biso   1.000  H
  C121     1.0000 0.47100  0.34150  0.31020  Biso   1.000  C
  H84      1.0000 0.45610  0.38980  0.27350  Biso   1.000  H
  C122     1.0000 0.52850  0.27200  0.29490  Biso   1.000  C
  C123     1.0000 0.54940  0.20240  0.34940  Biso   1.000  C
  H85      1.0000 0.58930  0.15630  0.34010  Biso   1.000  H
  C124     1.0000 0.51310  0.19970  0.41620  Biso   1.000  C
  H86      1.0000 0.52730  0.15080  0.45270  Biso   1.000  H
  C125     1.0000 0.56390  0.27190  0.21940  Biso   1.000  C
  C126     1.0000 0.38460  0.16900  0.52380  Biso   1.000  C
  C127     1.0000 0.37530  0.14970  0.60040  Biso   1.000  C
  H87      1.0000 0.39470  0.19570  0.63660  Biso   1.000  H
  C128     1.0000 0.33850  0.06520  0.62230  Biso   1.000  C
  H88      1.0000 0.33340  0.05190  0.67430  Biso   1.000  H
  C129     1.0000 0.30830  0.99810  0.57110  Biso   1.000  C
  C130     1.0000 0.31950  0.01570  0.49590  Biso   1.000  C
  H89      1.0000 0.30050  0.96920  0.45970  Biso   1.000  H
  C131     1.0000 0.35810  0.10040  0.47300  Biso   1.000  C
  H90      1.0000 0.36640  0.11100  0.42120  Biso   1.000  H
  C132     1.0000 0.26130  0.91010  0.59820  Biso   1.000  C
  C133     1.0000 0.92000  0.64860  0.35590  Biso   1.000  C
  C134     1.0000 0.89600  0.56360  0.31650  Biso   1.000  C
  H91      1.0000 0.92510  0.50330  0.31820  Biso   1.000  H
  C135     1.0000 0.83010  0.56700  0.27500  Biso   1.000  C
  H92      1.0000 0.81410  0.50840  0.24840  Biso   1.000  H
  C136     1.0000 0.78630  0.65360  0.27100  Biso   1.000  C
  C137     1.0000 0.81090  0.73870  0.30950  Biso   1.000  C
  H93      1.0000 0.78210  0.79920  0.30700  Biso   1.000  H
  C138     1.0000 0.87700  0.73600  0.35170  Biso   1.000  C
  H94      1.0000 0.89310  0.79470  0.37800  Biso   1.000  H
  Cd4      1.0000 0.13006  0.76358  0.58312  Biso   1.000  Cd
  N24      1.0000 0.41830  0.26340  0.50140  Biso   1.000  N
  O19      1.0000 0.20090  0.62560  0.59100  Biso   1.000  O
  O20      1.0000 0.29559  0.65330  0.67102  Biso   1.000  O
  O21      1.0000 0.62227  0.21660  0.21041  Biso   1.000  O
  O22      1.0000 0.53490  0.32050  0.16580  Biso   1.000  O
  O23      1.0000 0.26230  0.89260  0.66520  Biso   1.000  O
  O24      1.0000 0.22470  0.86210  0.54870  Biso   1.000  O
  N25      1.0000 0.07680  0.69400  0.48220  Biso   1.000  N
  C139     1.0000 0.00660  0.70500  0.45800  Biso   1.000  C
  H95      1.0000 0.97010  0.74600  0.48180  Biso   1.000  H
  N26      1.0000 0.99280  0.65020  0.39440  Biso   1.000  N
  C140     1.0000 0.06130  0.60260  0.37920  Biso   1.000  C
  H96      1.0000 0.07050  0.55850  0.33840  Biso   1.000  H
  C141     1.0000 0.11060  0.62930  0.43060  Biso   1.000  C
  H97      1.0000 0.16180  0.60790  0.43270  Biso   1.000  H
  N27      1.0000 0.06940  0.68640  0.49000  Biso   1.000  N
  C142     1.0000 0.01780  0.71850  0.44160  Biso   1.000  C
  H98      1.0000 0.00860  0.78730  0.42930  Biso   1.000  H
  N28      1.0000 0.97970  0.63850  0.41190  Biso   1.000  N
  C143     1.0000 0.00980  0.55060  0.44510  Biso   1.000  C
  H99      1.0000 0.99350  0.48300  0.43720  Biso   1.000  H
  C144     1.0000 0.06430  0.58100  0.48890  Biso   1.000  C
  H100     1.0000 0.09670  0.53720  0.51670  Biso   1.000  H
  Cd5      1.0000 0.75000  0.23092  0.25000  Biso   1.000  Cd
  Cd6      1.0000 0.25000  0.76908  0.75000  Biso   1.000  Cd
