data_image0
_cell_length_a       14.694
_cell_length_b       14.694
_cell_length_c       8.936
_cell_angle_alpha    90
_cell_angle_beta     90
_cell_angle_gamma    90

_symmetry_space_group_name_H-M    "P 1"
_symmetry_int_tables_number       1

loop_
  _symmetry_equiv_pos_as_xyz
  'x, y, z'

loop_
  _atom_site_label
  _atom_site_occupancy
  _atom_site_fract_x
  _atom_site_fract_y
  _atom_site_fract_z
  _atom_site_thermal_displace_type
  _atom_site_B_iso_or_equiv
  _atom_site_type_symbol
  Zn1      1.0000 0.50143  0.13221  0.23267  Biso   1.000  Zn
  Zn2      1.0000 0.13043  0.00891  0.04894  Biso   1.000  Zn
  P1       1.0000 0.35150  0.99990  0.09260  Biso   1.000  P
  P2       1.0000 0.48860  0.35490  0.19150  Biso   1.000  P
  O1       1.0000 0.39540  0.08630  0.10400  Biso   1.000  O
  O2       1.0000 0.35650  0.94890  0.93200  Biso   1.000  O
  O3       1.0000 0.39000  0.92300  0.20000  Biso   1.000  O
  O4       1.0000 0.24820  0.00950  0.13820  Biso   1.000  O
  O5       1.0000 0.50340  0.25650  0.14990  Biso   1.000  O
  O6       1.0000 0.57990  0.40390  0.18840  Biso   1.000  O
  O7       1.0000 0.44610  0.36240  0.34450  Biso   1.000  O
  O8       1.0000 0.42240  0.38940  0.07210  Biso   1.000  O
  O9       1.0000 0.39550  0.07580  0.21000  Biso   1.000  O
  O10      1.0000 0.36570  0.04990  0.93500  Biso   1.000  O
  O11      1.0000 0.38660  0.91240  0.12600  Biso   1.000  O
  Zn3      1.0000 0.49857  0.86779  0.23267  Biso   1.000  Zn
  Zn4      1.0000 0.86957  0.99109  0.04894  Biso   1.000  Zn
  P3       1.0000 0.64850  0.00010  0.09260  Biso   1.000  P
  P4       1.0000 0.51140  0.64510  0.19150  Biso   1.000  P
  O12      1.0000 0.60460  0.91370  0.10400  Biso   1.000  O
  O13      1.0000 0.64350  0.05110  0.93200  Biso   1.000  O
  O14      1.0000 0.61000  0.07700  0.20000  Biso   1.000  O
  O15      1.0000 0.75180  0.99050  0.13820  Biso   1.000  O
  O16      1.0000 0.49660  0.74350  0.14990  Biso   1.000  O
  O17      1.0000 0.42010  0.59610  0.18840  Biso   1.000  O
  O18      1.0000 0.55390  0.63760  0.34450  Biso   1.000  O
  O19      1.0000 0.57760  0.61060  0.07210  Biso   1.000  O
  O20      1.0000 0.60450  0.92420  0.21000  Biso   1.000  O
  O21      1.0000 0.63430  0.95010  0.93500  Biso   1.000  O
  O22      1.0000 0.61340  0.08760  0.12600  Biso   1.000  O
  Zn5      1.0000 0.86779  0.50143  0.73267  Biso   1.000  Zn
  Zn6      1.0000 0.99109  0.13043  0.54894  Biso   1.000  Zn
  P5       1.0000 0.00010  0.35150  0.59260  Biso   1.000  P
  P6       1.0000 0.64510  0.48860  0.69150  Biso   1.000  P
  O23      1.0000 0.91370  0.39540  0.60400  Biso   1.000  O
  O24      1.0000 0.05110  0.35650  0.43200  Biso   1.000  O
  O25      1.0000 0.07700  0.39000  0.70000  Biso   1.000  O
  O26      1.0000 0.99050  0.24820  0.63820  Biso   1.000  O
  O27      1.0000 0.74350  0.50340  0.64990  Biso   1.000  O
  O28      1.0000 0.59610  0.57990  0.68840  Biso   1.000  O
  O29      1.0000 0.63760  0.44610  0.84450  Biso   1.000  O
  O30      1.0000 0.61060  0.42240  0.57210  Biso   1.000  O
  O31      1.0000 0.92420  0.39550  0.71000  Biso   1.000  O
  O32      1.0000 0.95010  0.36570  0.43500  Biso   1.000  O
  O33      1.0000 0.08760  0.38660  0.62600  Biso   1.000  O
  Zn7      1.0000 0.13221  0.49857  0.73267  Biso   1.000  Zn
  Zn8      1.0000 0.00891  0.86957  0.54894  Biso   1.000  Zn
  P7       1.0000 0.99990  0.64850  0.59260  Biso   1.000  P
  P8       1.0000 0.35490  0.51140  0.69150  Biso   1.000  P
  O34      1.0000 0.08630  0.60460  0.60400  Biso   1.000  O
  O35      1.0000 0.94890  0.64350  0.43200  Biso   1.000  O
  O36      1.0000 0.92300  0.61000  0.70000  Biso   1.000  O
  O37      1.0000 0.00950  0.75180  0.63820  Biso   1.000  O
  O38      1.0000 0.25650  0.49660  0.64990  Biso   1.000  O
  O39      1.0000 0.40390  0.42010  0.68840  Biso   1.000  O
  O40      1.0000 0.36240  0.55390  0.84450  Biso   1.000  O
  O41      1.0000 0.38940  0.57760  0.57210  Biso   1.000  O
  O42      1.0000 0.07580  0.60450  0.71000  Biso   1.000  O
  O43      1.0000 0.04990  0.63430  0.43500  Biso   1.000  O
  O44      1.0000 0.91240  0.61340  0.62600  Biso   1.000  O
  Zn9      1.0000 0.00143  0.36779  0.23267  Biso   1.000  Zn
  Zn10     1.0000 0.63043  0.49109  0.04894  Biso   1.000  Zn
  P9       1.0000 0.85150  0.50010  0.09260  Biso   1.000  P
  P10      1.0000 0.98860  0.14510  0.19150  Biso   1.000  P
  O45      1.0000 0.89540  0.41370  0.10400  Biso   1.000  O
  O46      1.0000 0.85650  0.55110  0.93200  Biso   1.000  O
  O47      1.0000 0.89000  0.57700  0.20000  Biso   1.000  O
  O48      1.0000 0.74820  0.49050  0.13820  Biso   1.000  O
  O49      1.0000 0.00340  0.24350  0.14990  Biso   1.000  O
  O50      1.0000 0.07990  0.09610  0.18840  Biso   1.000  O
  O51      1.0000 0.94610  0.13760  0.34450  Biso   1.000  O
  O52      1.0000 0.92240  0.11060  0.07210  Biso   1.000  O
  O53      1.0000 0.89550  0.42420  0.21000  Biso   1.000  O
  O54      1.0000 0.86570  0.45010  0.93500  Biso   1.000  O
  O55      1.0000 0.88660  0.58760  0.12600  Biso   1.000  O
  Zn11     1.0000 0.99857  0.63221  0.23267  Biso   1.000  Zn
  Zn12     1.0000 0.36957  0.50891  0.04894  Biso   1.000  Zn
  P11      1.0000 0.14850  0.49990  0.09260  Biso   1.000  P
  P12      1.0000 0.01140  0.85490  0.19150  Biso   1.000  P
  O56      1.0000 0.10460  0.58630  0.10400  Biso   1.000  O
  O57      1.0000 0.14350  0.44890  0.93200  Biso   1.000  O
  O58      1.0000 0.11000  0.42300  0.20000  Biso   1.000  O
  O59      1.0000 0.25180  0.50950  0.13820  Biso   1.000  O
  O60      1.0000 0.99660  0.75650  0.14990  Biso   1.000  O
  O61      1.0000 0.92010  0.90390  0.18840  Biso   1.000  O
  O62      1.0000 0.05390  0.86240  0.34450  Biso   1.000  O
  O63      1.0000 0.07760  0.88940  0.07210  Biso   1.000  O
  O64      1.0000 0.10450  0.57580  0.21000  Biso   1.000  O
  O65      1.0000 0.13430  0.54990  0.93500  Biso   1.000  O
  O66      1.0000 0.11340  0.41240  0.12600  Biso   1.000  O
  Zn13     1.0000 0.36779  0.99857  0.73267  Biso   1.000  Zn
  Zn14     1.0000 0.49109  0.36957  0.54894  Biso   1.000  Zn
  P13      1.0000 0.50010  0.14850  0.59260  Biso   1.000  P
  P14      1.0000 0.14510  0.01140  0.69150  Biso   1.000  P
  O67      1.0000 0.41370  0.10460  0.60400  Biso   1.000  O
  O68      1.0000 0.55110  0.14350  0.43200  Biso   1.000  O
  O69      1.0000 0.57700  0.11000  0.70000  Biso   1.000  O
  O70      1.0000 0.49050  0.25180  0.63820  Biso   1.000  O
  O71      1.0000 0.24350  0.99660  0.64990  Biso   1.000  O
  O72      1.0000 0.09610  0.92010  0.68840  Biso   1.000  O
  O73      1.0000 0.13760  0.05390  0.84450  Biso   1.000  O
  O74      1.0000 0.11060  0.07760  0.57210  Biso   1.000  O
  O75      1.0000 0.42420  0.10450  0.71000  Biso   1.000  O
  O76      1.0000 0.45010  0.13430  0.43500  Biso   1.000  O
  O77      1.0000 0.58760  0.11340  0.62600  Biso   1.000  O
  Zn15     1.0000 0.63221  0.00143  0.73267  Biso   1.000  Zn
  Zn16     1.0000 0.50891  0.63043  0.54894  Biso   1.000  Zn
  P15      1.0000 0.49990  0.85150  0.59260  Biso   1.000  P
  P16      1.0000 0.85490  0.98860  0.69150  Biso   1.000  P
  O78      1.0000 0.58630  0.89540  0.60400  Biso   1.000  O
  O79      1.0000 0.44890  0.85650  0.43200  Biso   1.000  O
  O80      1.0000 0.42300  0.89000  0.70000  Biso   1.000  O
  O81      1.0000 0.50950  0.74820  0.63820  Biso   1.000  O
  O82      1.0000 0.75650  0.00340  0.64990  Biso   1.000  O
  O83      1.0000 0.90390  0.07990  0.68840  Biso   1.000  O
  O84      1.0000 0.86240  0.94610  0.84450  Biso   1.000  O
  O85      1.0000 0.88940  0.92240  0.57210  Biso   1.000  O
  O86      1.0000 0.57580  0.89550  0.71000  Biso   1.000  O
  O87      1.0000 0.54990  0.86570  0.43500  Biso   1.000  O
  O88      1.0000 0.41240  0.88660  0.62600  Biso   1.000  O
