data_image0
_cell_length_a       14.6938
_cell_length_b       8.924
_cell_length_c       14.6901
_cell_angle_alpha    90
_cell_angle_beta     90
_cell_angle_gamma    90

_symmetry_space_group_name_H-M    "P 1"
_symmetry_int_tables_number       1

loop_
  _symmetry_equiv_pos_as_xyz
  'x, y, z'

loop_
  _atom_site_label
  _atom_site_occupancy
  _atom_site_fract_x
  _atom_site_fract_y
  _atom_site_fract_z
  _atom_site_thermal_displace_type
  _atom_site_B_iso_or_equiv
  _atom_site_type_symbol
  Co1      1.0000 0.51133  0.15614  0.11849  Biso   1.000  Co
  Co2      1.0000 0.36869  0.34324  0.74144  Biso   1.000  Co
  P1       1.0000 0.48809  0.20162  0.89781  Biso   1.000  P
  P2       1.0000 0.35377  0.29705  0.23912  Biso   1.000  P
  O1       1.0000 0.50527  0.24706  0.99790  Biso   1.000  O
  O2       1.0000 0.42057  0.31980  0.86109  Biso   1.000  O
  O3       1.0000 0.36622  0.45270  0.19712  Biso   1.000  O
  O4       1.0000 0.57855  0.20645  0.84708  Biso   1.000  O
  O5       1.0000 0.25210  0.25330  0.23160  Biso   1.000  O
  O6       1.0000 0.24660  0.26050  0.76180  Biso   1.000  O
  O7       1.0000 0.39498  0.17950  0.17541  Biso   1.000  O
  O8       1.0000 0.44411  0.04650  0.89186  Biso   1.000  O
  O9       1.0000 0.39461  0.28660  0.33368  Biso   1.000  O
  Zn1      1.0000 0.48867  0.84386  0.88151  Biso   1.000  Zn
  Zn2      1.0000 0.63131  0.65676  0.25856  Biso   1.000  Zn
  Co3      1.0000 0.98867  0.84386  0.11849  Biso   1.000  Co
  Co4      1.0000 0.13131  0.65676  0.74144  Biso   1.000  Co
  P3       1.0000 0.01191  0.79838  0.89781  Biso   1.000  P
  P4       1.0000 0.14623  0.70295  0.23912  Biso   1.000  P
  O10      1.0000 0.99473  0.75294  0.99790  Biso   1.000  O
  O11      1.0000 0.07943  0.68020  0.86109  Biso   1.000  O
  O12      1.0000 0.13378  0.54730  0.19712  Biso   1.000  O
  O13      1.0000 0.92145  0.79355  0.84708  Biso   1.000  O
  O14      1.0000 0.24790  0.74670  0.23160  Biso   1.000  O
  O15      1.0000 0.25340  0.73950  0.76180  Biso   1.000  O
  O16      1.0000 0.10502  0.82050  0.17541  Biso   1.000  O
  O17      1.0000 0.05589  0.95350  0.89186  Biso   1.000  O
  O18      1.0000 0.10539  0.71340  0.33368  Biso   1.000  O
  Zn3      1.0000 0.01133  0.15614  0.88151  Biso   1.000  Zn
  Zn4      1.0000 0.86869  0.34324  0.25856  Biso   1.000  Zn
  Co5      1.0000 0.48867  0.15614  0.38151  Biso   1.000  Co
  Co6      1.0000 0.63131  0.34324  0.75856  Biso   1.000  Co
  P5       1.0000 0.51191  0.20162  0.60219  Biso   1.000  P
  P6       1.0000 0.64623  0.29705  0.26088  Biso   1.000  P
  O19      1.0000 0.49473  0.24706  0.50210  Biso   1.000  O
  O20      1.0000 0.57943  0.31980  0.63891  Biso   1.000  O
  O21      1.0000 0.63378  0.45270  0.30288  Biso   1.000  O
  O22      1.0000 0.42145  0.20645  0.65292  Biso   1.000  O
  O23      1.0000 0.74790  0.25330  0.26840  Biso   1.000  O
  O24      1.0000 0.75340  0.26050  0.73820  Biso   1.000  O
  O25      1.0000 0.60502  0.17950  0.32459  Biso   1.000  O
  O26      1.0000 0.55589  0.04650  0.60814  Biso   1.000  O
  O27      1.0000 0.60539  0.28660  0.16632  Biso   1.000  O
  Zn5      1.0000 0.51133  0.84386  0.61849  Biso   1.000  Zn
  Zn6      1.0000 0.36869  0.65676  0.24144  Biso   1.000  Zn
  Co7      1.0000 0.01133  0.84386  0.38151  Biso   1.000  Co
  Co8      1.0000 0.86869  0.65676  0.75856  Biso   1.000  Co
  P7       1.0000 0.98809  0.79838  0.60219  Biso   1.000  P
  P8       1.0000 0.85377  0.70295  0.26088  Biso   1.000  P
  O28      1.0000 0.00527  0.75294  0.50210  Biso   1.000  O
  O29      1.0000 0.92057  0.68020  0.63891  Biso   1.000  O
  O30      1.0000 0.86622  0.54730  0.30288  Biso   1.000  O
  O31      1.0000 0.07855  0.79355  0.65292  Biso   1.000  O
  O32      1.0000 0.75210  0.74670  0.26840  Biso   1.000  O
  O33      1.0000 0.74660  0.73950  0.73820  Biso   1.000  O
  O34      1.0000 0.89498  0.82050  0.32459  Biso   1.000  O
  O35      1.0000 0.94411  0.95350  0.60814  Biso   1.000  O
  O36      1.0000 0.89461  0.71340  0.16632  Biso   1.000  O
  Zn7      1.0000 0.98867  0.15614  0.61849  Biso   1.000  Zn
  Zn8      1.0000 0.13131  0.34324  0.24144  Biso   1.000  Zn
  P9       1.0000 0.51191  0.79838  0.10219  Biso   1.000  P
  P10      1.0000 0.64623  0.70295  0.76088  Biso   1.000  P
  O37      1.0000 0.49473  0.75294  0.00210  Biso   1.000  O
  O38      1.0000 0.57943  0.68020  0.13891  Biso   1.000  O
  O39      1.0000 0.63378  0.54730  0.80288  Biso   1.000  O
  O40      1.0000 0.42145  0.79355  0.15292  Biso   1.000  O
  O41      1.0000 0.74790  0.74670  0.76840  Biso   1.000  O
  O42      1.0000 0.75340  0.73950  0.23820  Biso   1.000  O
  O43      1.0000 0.60502  0.82050  0.82459  Biso   1.000  O
  O44      1.0000 0.55589  0.95350  0.10814  Biso   1.000  O
  O45      1.0000 0.60539  0.71340  0.66632  Biso   1.000  O
  P11      1.0000 0.98809  0.20162  0.10219  Biso   1.000  P
  P12      1.0000 0.85377  0.29705  0.76088  Biso   1.000  P
  O46      1.0000 0.00527  0.24706  0.00210  Biso   1.000  O
  O47      1.0000 0.92057  0.31980  0.13891  Biso   1.000  O
  O48      1.0000 0.86622  0.45270  0.80288  Biso   1.000  O
  O49      1.0000 0.07855  0.20645  0.15292  Biso   1.000  O
  O50      1.0000 0.75210  0.25330  0.76840  Biso   1.000  O
  O51      1.0000 0.74660  0.26050  0.23820  Biso   1.000  O
  O52      1.0000 0.89498  0.17950  0.82459  Biso   1.000  O
  O53      1.0000 0.94411  0.04650  0.10814  Biso   1.000  O
  O54      1.0000 0.89461  0.28660  0.66632  Biso   1.000  O
  P13      1.0000 0.48809  0.79838  0.39781  Biso   1.000  P
  P14      1.0000 0.35377  0.70295  0.73912  Biso   1.000  P
  O55      1.0000 0.50527  0.75294  0.49790  Biso   1.000  O
  O56      1.0000 0.42057  0.68020  0.36109  Biso   1.000  O
  O57      1.0000 0.36622  0.54730  0.69712  Biso   1.000  O
  O58      1.0000 0.57855  0.79355  0.34708  Biso   1.000  O
  O59      1.0000 0.25210  0.74670  0.73160  Biso   1.000  O
  O60      1.0000 0.24660  0.73950  0.26180  Biso   1.000  O
  O61      1.0000 0.39498  0.82050  0.67541  Biso   1.000  O
  O62      1.0000 0.44411  0.95350  0.39186  Biso   1.000  O
  O63      1.0000 0.39461  0.71340  0.83368  Biso   1.000  O
  P15      1.0000 0.01191  0.20162  0.39781  Biso   1.000  P
  P16      1.0000 0.14623  0.29705  0.73912  Biso   1.000  P
  O64      1.0000 0.99473  0.24706  0.49790  Biso   1.000  O
  O65      1.0000 0.07943  0.31980  0.36109  Biso   1.000  O
  O66      1.0000 0.13378  0.45270  0.69712  Biso   1.000  O
  O67      1.0000 0.92145  0.20645  0.34708  Biso   1.000  O
  O68      1.0000 0.24790  0.25330  0.73160  Biso   1.000  O
  O69      1.0000 0.25340  0.26050  0.26180  Biso   1.000  O
  O70      1.0000 0.10502  0.17950  0.67541  Biso   1.000  O
  O71      1.0000 0.05589  0.04650  0.39186  Biso   1.000  O
  O72      1.0000 0.10539  0.28660  0.83368  Biso   1.000  O
