data_image0
_cell_length_a       16.687
_cell_length_b       14.7395
_cell_length_c       17.5737
_cell_angle_alpha    90
_cell_angle_beta     90
_cell_angle_gamma    90

_symmetry_space_group_name_H-M    "P 1"
_symmetry_int_tables_number       1

loop_
  _symmetry_equiv_pos_as_xyz
  'x, y, z'

loop_
  _atom_site_label
  _atom_site_occupancy
  _atom_site_fract_x
  _atom_site_fract_y
  _atom_site_fract_z
  _atom_site_thermal_displace_type
  _atom_site_B_iso_or_equiv
  _atom_site_type_symbol
  P1       1.0000 0.85491  0.41238  0.60000  Biso   1.000  P
  P2       1.0000 0.84361  0.11696  0.63098  Biso   1.000  P
  O1       1.0000 0.77890  0.41990  0.55440  Biso   1.000  O
  O2       1.0000 0.84980  0.06490  0.55610  Biso   1.000  O
  O3       1.0000 0.76960  0.09050  0.66950  Biso   1.000  O
  O4       1.0000 0.85340  0.45990  0.67190  Biso   1.000  O
  O5       1.0000 0.91950  0.09930  0.67180  Biso   1.000  O
  O6       1.0000 0.93900  0.42000  0.57270  Biso   1.000  O
  O7       1.0000 0.59290  0.04770  0.03910  Biso   1.000  O
  C1       1.0000 0.81700  0.23350  0.62740  Biso   1.000  C
  C2       1.0000 0.87120  0.29110  0.58620  Biso   1.000  C
  C3       1.0000 0.64800  0.20040  0.14930  Biso   1.000  C
  C4       1.0000 0.85140  0.22480  0.91450  Biso   1.000  C
  P3       1.0000 0.35491  0.91238  0.60000  Biso   1.000  P
  P4       1.0000 0.34361  0.61696  0.63098  Biso   1.000  P
  O8       1.0000 0.27890  0.91990  0.55440  Biso   1.000  O
  O9       1.0000 0.34980  0.56490  0.55610  Biso   1.000  O
  O10      1.0000 0.26960  0.59050  0.66950  Biso   1.000  O
  O11      1.0000 0.35340  0.95990  0.67190  Biso   1.000  O
  O12      1.0000 0.41950  0.59930  0.67180  Biso   1.000  O
  O13      1.0000 0.43900  0.92000  0.57270  Biso   1.000  O
  O14      1.0000 0.09290  0.54770  0.03910  Biso   1.000  O
  C5       1.0000 0.31700  0.73350  0.62740  Biso   1.000  C
  C6       1.0000 0.37120  0.79110  0.58620  Biso   1.000  C
  C7       1.0000 0.14800  0.70040  0.14930  Biso   1.000  C
  C8       1.0000 0.35140  0.72480  0.91450  Biso   1.000  C
  P5       1.0000 0.14509  0.58762  0.10000  Biso   1.000  P
  P6       1.0000 0.15639  0.88304  0.13098  Biso   1.000  P
  O15      1.0000 0.22110  0.58010  0.05440  Biso   1.000  O
  O16      1.0000 0.15020  0.93510  0.05610  Biso   1.000  O
  O17      1.0000 0.23040  0.90950  0.16950  Biso   1.000  O
  O18      1.0000 0.14660  0.54010  0.17190  Biso   1.000  O
  O19      1.0000 0.08050  0.90070  0.17180  Biso   1.000  O
  O20      1.0000 0.06100  0.58000  0.07270  Biso   1.000  O
  O21      1.0000 0.40710  0.95230  0.53910  Biso   1.000  O
  C9       1.0000 0.18300  0.76650  0.12740  Biso   1.000  C
  C10      1.0000 0.12880  0.70890  0.08620  Biso   1.000  C
  C11      1.0000 0.35200  0.79960  0.64930  Biso   1.000  C
  C12      1.0000 0.14860  0.77520  0.41450  Biso   1.000  C
  P7       1.0000 0.64509  0.08762  0.10000  Biso   1.000  P
  P8       1.0000 0.65639  0.38304  0.13098  Biso   1.000  P
  O22      1.0000 0.72110  0.08010  0.05440  Biso   1.000  O
  O23      1.0000 0.65020  0.43510  0.05610  Biso   1.000  O
  O24      1.0000 0.73040  0.40950  0.16950  Biso   1.000  O
  O25      1.0000 0.64660  0.04010  0.17190  Biso   1.000  O
  O26      1.0000 0.58050  0.40070  0.17180  Biso   1.000  O
  O27      1.0000 0.56100  0.08000  0.07270  Biso   1.000  O
  O28      1.0000 0.90710  0.45230  0.53910  Biso   1.000  O
  C13      1.0000 0.68300  0.26650  0.12740  Biso   1.000  C
  C14      1.0000 0.62880  0.20890  0.08620  Biso   1.000  C
  C15      1.0000 0.85200  0.29960  0.64930  Biso   1.000  C
  C16      1.0000 0.64860  0.27520  0.41450  Biso   1.000  C
  P9       1.0000 0.14509  0.41238  0.90000  Biso   1.000  P
  P10      1.0000 0.15639  0.11696  0.86902  Biso   1.000  P
  O29      1.0000 0.22110  0.41990  0.94560  Biso   1.000  O
  O30      1.0000 0.15020  0.06490  0.94390  Biso   1.000  O
  O31      1.0000 0.23040  0.09050  0.83050  Biso   1.000  O
  O32      1.0000 0.14660  0.45990  0.82810  Biso   1.000  O
  O33      1.0000 0.08050  0.09930  0.82820  Biso   1.000  O
  O34      1.0000 0.06100  0.42000  0.92730  Biso   1.000  O
  O35      1.0000 0.40710  0.04770  0.46090  Biso   1.000  O
  C17      1.0000 0.18300  0.23350  0.87260  Biso   1.000  C
  C18      1.0000 0.12880  0.29110  0.91380  Biso   1.000  C
  C19      1.0000 0.35200  0.20040  0.35070  Biso   1.000  C
  C20      1.0000 0.14860  0.22480  0.58550  Biso   1.000  C
  P11      1.0000 0.64509  0.91238  0.90000  Biso   1.000  P
  P12      1.0000 0.65639  0.61696  0.86902  Biso   1.000  P
  O36      1.0000 0.72110  0.91990  0.94560  Biso   1.000  O
  O37      1.0000 0.65020  0.56490  0.94390  Biso   1.000  O
  O38      1.0000 0.73040  0.59050  0.83050  Biso   1.000  O
  O39      1.0000 0.64660  0.95990  0.82810  Biso   1.000  O
  O40      1.0000 0.58050  0.59930  0.82820  Biso   1.000  O
  O41      1.0000 0.56100  0.92000  0.92730  Biso   1.000  O
  O42      1.0000 0.90710  0.54770  0.46090  Biso   1.000  O
  C21      1.0000 0.68300  0.73350  0.87260  Biso   1.000  C
  C22      1.0000 0.62880  0.79110  0.91380  Biso   1.000  C
  C23      1.0000 0.85200  0.70040  0.35070  Biso   1.000  C
  C24      1.0000 0.64860  0.72480  0.58550  Biso   1.000  C
  P13      1.0000 0.85491  0.58762  0.40000  Biso   1.000  P
  P14      1.0000 0.84361  0.88304  0.36902  Biso   1.000  P
  O43      1.0000 0.77890  0.58010  0.44560  Biso   1.000  O
  O44      1.0000 0.84980  0.93510  0.44390  Biso   1.000  O
  O45      1.0000 0.76960  0.90950  0.33050  Biso   1.000  O
  O46      1.0000 0.85340  0.54010  0.32810  Biso   1.000  O
  O47      1.0000 0.91950  0.90070  0.32820  Biso   1.000  O
  O48      1.0000 0.93900  0.58000  0.42730  Biso   1.000  O
  O49      1.0000 0.59290  0.95230  0.96090  Biso   1.000  O
  C25      1.0000 0.81700  0.76650  0.37260  Biso   1.000  C
  C26      1.0000 0.87120  0.70890  0.41380  Biso   1.000  C
  C27      1.0000 0.64800  0.79960  0.85070  Biso   1.000  C
  C28      1.0000 0.85140  0.77520  0.08550  Biso   1.000  C
  P15      1.0000 0.35491  0.08762  0.40000  Biso   1.000  P
  P16      1.0000 0.34361  0.38304  0.36902  Biso   1.000  P
  O50      1.0000 0.27890  0.08010  0.44560  Biso   1.000  O
  O51      1.0000 0.34980  0.43510  0.44390  Biso   1.000  O
  O52      1.0000 0.26960  0.40950  0.33050  Biso   1.000  O
  O53      1.0000 0.35340  0.04010  0.32810  Biso   1.000  O
  O54      1.0000 0.41950  0.40070  0.32820  Biso   1.000  O
  O55      1.0000 0.43900  0.08000  0.42730  Biso   1.000  O
  O56      1.0000 0.09290  0.45230  0.96090  Biso   1.000  O
  C29      1.0000 0.31700  0.26650  0.37260  Biso   1.000  C
  C30      1.0000 0.37120  0.20890  0.41380  Biso   1.000  C
  C31      1.0000 0.14800  0.29960  0.85070  Biso   1.000  C
  C32      1.0000 0.35140  0.27520  0.08550  Biso   1.000  C
  P17      1.0000 0.14509  0.58762  0.40000  Biso   1.000  P
  P18      1.0000 0.15639  0.88304  0.36902  Biso   1.000  P
  O57      1.0000 0.22110  0.58010  0.44560  Biso   1.000  O
  O58      1.0000 0.15020  0.93510  0.44390  Biso   1.000  O
  O59      1.0000 0.23040  0.90950  0.33050  Biso   1.000  O
  O60      1.0000 0.14660  0.54010  0.32810  Biso   1.000  O
  O61      1.0000 0.08050  0.90070  0.32820  Biso   1.000  O
  O62      1.0000 0.06100  0.58000  0.42730  Biso   1.000  O
  O63      1.0000 0.40710  0.95230  0.96090  Biso   1.000  O
  C33      1.0000 0.18300  0.76650  0.37260  Biso   1.000  C
  C34      1.0000 0.12880  0.70890  0.41380  Biso   1.000  C
  C35      1.0000 0.35200  0.79960  0.85070  Biso   1.000  C
  C36      1.0000 0.14860  0.77520  0.08550  Biso   1.000  C
  P19      1.0000 0.64509  0.08762  0.40000  Biso   1.000  P
  P20      1.0000 0.65639  0.38304  0.36902  Biso   1.000  P
  O64      1.0000 0.72110  0.08010  0.44560  Biso   1.000  O
  O65      1.0000 0.65020  0.43510  0.44390  Biso   1.000  O
  O66      1.0000 0.73040  0.40950  0.33050  Biso   1.000  O
  O67      1.0000 0.64660  0.04010  0.32810  Biso   1.000  O
  O68      1.0000 0.58050  0.40070  0.32820  Biso   1.000  O
  O69      1.0000 0.56100  0.08000  0.42730  Biso   1.000  O
  O70      1.0000 0.90710  0.45230  0.96090  Biso   1.000  O
  C37      1.0000 0.68300  0.26650  0.37260  Biso   1.000  C
  C38      1.0000 0.62880  0.20890  0.41380  Biso   1.000  C
  C39      1.0000 0.85200  0.29960  0.85070  Biso   1.000  C
  C40      1.0000 0.64860  0.27520  0.08550  Biso   1.000  C
  P21      1.0000 0.85491  0.41238  0.90000  Biso   1.000  P
  P22      1.0000 0.84361  0.11696  0.86902  Biso   1.000  P
  O71      1.0000 0.77890  0.41990  0.94560  Biso   1.000  O
  O72      1.0000 0.84980  0.06490  0.94390  Biso   1.000  O
  O73      1.0000 0.76960  0.09050  0.83050  Biso   1.000  O
  O74      1.0000 0.85340  0.45990  0.82810  Biso   1.000  O
  O75      1.0000 0.91950  0.09930  0.82820  Biso   1.000  O
  O76      1.0000 0.93900  0.42000  0.92730  Biso   1.000  O
  O77      1.0000 0.59290  0.04770  0.46090  Biso   1.000  O
  C41      1.0000 0.81700  0.23350  0.87260  Biso   1.000  C
  C42      1.0000 0.87120  0.29110  0.91380  Biso   1.000  C
  C43      1.0000 0.64800  0.20040  0.35070  Biso   1.000  C
  C44      1.0000 0.85140  0.22480  0.58550  Biso   1.000  C
  P23      1.0000 0.35491  0.91238  0.90000  Biso   1.000  P
  P24      1.0000 0.34361  0.61696  0.86902  Biso   1.000  P
  O78      1.0000 0.27890  0.91990  0.94560  Biso   1.000  O
  O79      1.0000 0.34980  0.56490  0.94390  Biso   1.000  O
  O80      1.0000 0.26960  0.59050  0.83050  Biso   1.000  O
  O81      1.0000 0.35340  0.95990  0.82810  Biso   1.000  O
  O82      1.0000 0.41950  0.59930  0.82820  Biso   1.000  O
  O83      1.0000 0.43900  0.92000  0.92730  Biso   1.000  O
  O84      1.0000 0.09290  0.54770  0.46090  Biso   1.000  O
  C45      1.0000 0.31700  0.73350  0.87260  Biso   1.000  C
  C46      1.0000 0.37120  0.79110  0.91380  Biso   1.000  C
  C47      1.0000 0.14800  0.70040  0.35070  Biso   1.000  C
  C48      1.0000 0.35140  0.72480  0.58550  Biso   1.000  C
  P25      1.0000 0.85491  0.58762  0.10000  Biso   1.000  P
  P26      1.0000 0.84361  0.88304  0.13098  Biso   1.000  P
  O85      1.0000 0.77890  0.58010  0.05440  Biso   1.000  O
  O86      1.0000 0.84980  0.93510  0.05610  Biso   1.000  O
  O87      1.0000 0.76960  0.90950  0.16950  Biso   1.000  O
  O88      1.0000 0.85340  0.54010  0.17190  Biso   1.000  O
  O89      1.0000 0.91950  0.90070  0.17180  Biso   1.000  O
  O90      1.0000 0.93900  0.58000  0.07270  Biso   1.000  O
  O91      1.0000 0.59290  0.95230  0.53910  Biso   1.000  O
  C49      1.0000 0.81700  0.76650  0.12740  Biso   1.000  C
  C50      1.0000 0.87120  0.70890  0.08620  Biso   1.000  C
  C51      1.0000 0.64800  0.79960  0.64930  Biso   1.000  C
  C52      1.0000 0.85140  0.77520  0.41450  Biso   1.000  C
  P27      1.0000 0.35491  0.08762  0.10000  Biso   1.000  P
  P28      1.0000 0.34361  0.38304  0.13098  Biso   1.000  P
  O92      1.0000 0.27890  0.08010  0.05440  Biso   1.000  O
  O93      1.0000 0.34980  0.43510  0.05610  Biso   1.000  O
  O94      1.0000 0.26960  0.40950  0.16950  Biso   1.000  O
  O95      1.0000 0.35340  0.04010  0.17190  Biso   1.000  O
  O96      1.0000 0.41950  0.40070  0.17180  Biso   1.000  O
  O97      1.0000 0.43900  0.08000  0.07270  Biso   1.000  O
  O98      1.0000 0.09290  0.45230  0.53910  Biso   1.000  O
  C53      1.0000 0.31700  0.26650  0.12740  Biso   1.000  C
  C54      1.0000 0.37120  0.20890  0.08620  Biso   1.000  C
  C55      1.0000 0.14800  0.29960  0.64930  Biso   1.000  C
  C56      1.0000 0.35140  0.27520  0.41450  Biso   1.000  C
  P29      1.0000 0.14509  0.41238  0.60000  Biso   1.000  P
  P30      1.0000 0.15639  0.11696  0.63098  Biso   1.000  P
  O99      1.0000 0.22110  0.41990  0.55440  Biso   1.000  O
  O100     1.0000 0.15020  0.06490  0.55610  Biso   1.000  O
  O101     1.0000 0.23040  0.09050  0.66950  Biso   1.000  O
  O102     1.0000 0.14660  0.45990  0.67190  Biso   1.000  O
  O103     1.0000 0.08050  0.09930  0.67180  Biso   1.000  O
  O104     1.0000 0.06100  0.42000  0.57270  Biso   1.000  O
  O105     1.0000 0.40710  0.04770  0.03910  Biso   1.000  O
  C57      1.0000 0.18300  0.23350  0.62740  Biso   1.000  C
  C58      1.0000 0.12880  0.29110  0.58620  Biso   1.000  C
  C59      1.0000 0.35200  0.20040  0.14930  Biso   1.000  C
  C60      1.0000 0.14860  0.22480  0.91450  Biso   1.000  C
  P31      1.0000 0.64509  0.91238  0.60000  Biso   1.000  P
  P32      1.0000 0.65639  0.61696  0.63098  Biso   1.000  P
  O106     1.0000 0.72110  0.91990  0.55440  Biso   1.000  O
  O107     1.0000 0.65020  0.56490  0.55610  Biso   1.000  O
  O108     1.0000 0.73040  0.59050  0.66950  Biso   1.000  O
  O109     1.0000 0.64660  0.95990  0.67190  Biso   1.000  O
  O110     1.0000 0.58050  0.59930  0.67180  Biso   1.000  O
  O111     1.0000 0.56100  0.92000  0.57270  Biso   1.000  O
  O112     1.0000 0.90710  0.54770  0.03910  Biso   1.000  O
  C61      1.0000 0.68300  0.73350  0.62740  Biso   1.000  C
  C62      1.0000 0.62880  0.79110  0.58620  Biso   1.000  C
  C63      1.0000 0.85200  0.70040  0.14930  Biso   1.000  C
  C64      1.0000 0.64860  0.72480  0.91450  Biso   1.000  C
  Ga1      1.0000 0.72073  0.50000  0.50000  Biso   1.000  Ga
  Ga2      1.0000 0.22073  0.00000  0.50000  Biso   1.000  Ga
  Ga3      1.0000 0.27927  0.50000  0.00000  Biso   1.000  Ga
  Ga4      1.0000 0.77927  0.00000  0.00000  Biso   1.000  Ga
  Ga5      1.0000 0.27927  0.50000  0.50000  Biso   1.000  Ga
  Ga6      1.0000 0.77927  0.00000  0.50000  Biso   1.000  Ga
  Ga7      1.0000 0.72073  0.50000  0.00000  Biso   1.000  Ga
  Ga8      1.0000 0.22073  0.00000  0.00000  Biso   1.000  Ga
  V1       1.0000 0.27647  0.01240  0.75000  Biso   1.000  V
  O113     1.0000 0.37440  0.12280  0.75000  Biso   1.000  O
  V2       1.0000 0.77647  0.51240  0.75000  Biso   1.000  V
  O114     1.0000 0.87440  0.62280  0.75000  Biso   1.000  O
  V3       1.0000 0.72353  0.98760  0.25000  Biso   1.000  V
  O115     1.0000 0.62560  0.87720  0.25000  Biso   1.000  O
  V4       1.0000 0.22353  0.48760  0.25000  Biso   1.000  V
  O116     1.0000 0.12560  0.37720  0.25000  Biso   1.000  O
  V5       1.0000 0.72353  0.01240  0.75000  Biso   1.000  V
  O117     1.0000 0.62560  0.12280  0.75000  Biso   1.000  O
  V6       1.0000 0.22353  0.51240  0.75000  Biso   1.000  V
  O118     1.0000 0.12560  0.62280  0.75000  Biso   1.000  O
  V7       1.0000 0.27647  0.98760  0.25000  Biso   1.000  V
  O119     1.0000 0.37440  0.87720  0.25000  Biso   1.000  O
  V8       1.0000 0.77647  0.48760  0.25000  Biso   1.000  V
  O120     1.0000 0.87440  0.37720  0.25000  Biso   1.000  O
  V9       1.0000 0.00000  0.12680  0.75000  Biso   1.000  V
  V10      1.0000 0.50000  0.62680  0.75000  Biso   1.000  V
  V11      1.0000 0.00000  0.87320  0.25000  Biso   1.000  V
  V12      1.0000 0.50000  0.37320  0.25000  Biso   1.000  V
  K1       1.0000 0.50000  0.04070  0.25000  Biso   1.000  K
  K2       1.0000 0.50000  0.98050  0.25000  Biso   1.000  K
  K3       1.0000 0.00000  0.54070  0.25000  Biso   1.000  K
  K4       1.0000 0.00000  0.48050  0.25000  Biso   1.000  K
  K5       1.0000 0.50000  0.95930  0.75000  Biso   1.000  K
  K6       1.0000 0.50000  0.01950  0.75000  Biso   1.000  K
  K7       1.0000 0.00000  0.45930  0.75000  Biso   1.000  K
  K8       1.0000 0.00000  0.51950  0.75000  Biso   1.000  K
  K9       1.0000 0.00000  0.50000  0.50000  Biso   1.000  K
  K10      1.0000 0.50000  0.00000  0.50000  Biso   1.000  K
  K11      1.0000 0.00000  0.50000  0.00000  Biso   1.000  K
  K12      1.0000 0.50000  0.00000  0.00000  Biso   1.000  K
  O121     1.0000 0.50000  0.01240  0.98330  Biso   1.000  O
  O122     1.0000 0.00000  0.51240  0.98330  Biso   1.000  O
  O123     1.0000 0.50000  0.98760  0.48330  Biso   1.000  O
  O124     1.0000 0.00000  0.48760  0.48330  Biso   1.000  O
  O125     1.0000 0.50000  0.01240  0.51670  Biso   1.000  O
  O126     1.0000 0.00000  0.51240  0.51670  Biso   1.000  O
  O127     1.0000 0.50000  0.98760  0.01670  Biso   1.000  O
  O128     1.0000 0.00000  0.48760  0.01670  Biso   1.000  O
