data_image0
_cell_length_a       8.7561
_cell_length_b       20.752
_cell_length_c       34.297
_cell_angle_alpha    90
_cell_angle_beta     90
_cell_angle_gamma    90

_symmetry_space_group_name_H-M    "P 1"
_symmetry_int_tables_number       1

loop_
  _symmetry_equiv_pos_as_xyz
  'x, y, z'

loop_
  _atom_site_label
  _atom_site_occupancy
  _atom_site_fract_x
  _atom_site_fract_y
  _atom_site_fract_z
  _atom_site_thermal_displace_type
  _atom_site_B_iso_or_equiv
  _atom_site_type_symbol
  O1       1.0000 0.24490  0.33430  0.59290  Biso   1.000  O
  O2       1.0000 0.00880  0.33290  0.57052  Biso   1.000  O
  O3       1.0000 0.24480  0.45830  0.63530  Biso   1.000  O
  C1       1.0000 0.14760  0.31990  0.56770  Biso   1.000  C
  C2       1.0000 0.20050  0.28410  0.53281  Biso   1.000  C
  C3       1.0000 0.09660  0.26400  0.50480  Biso   1.000  C
  C4       1.0000 0.14740  0.23050  0.47230  Biso   1.000  C
  C5       1.0000 0.26060  0.59150  0.63170  Biso   1.000  C
  H1       1.0000 0.99000  0.27260  0.50830  Biso   1.000  H
  H2       1.0000 0.07310  0.21580  0.45310  Biso   1.000  H
  H3       1.0000 0.35490  0.56820  0.63600  Biso   1.000  H
  C6       1.0000 0.26060  0.65870  0.63150  Biso   1.000  C
  H4       1.0000 0.35540  0.68220  0.63500  Biso   1.000  H
  O4       1.0000 0.24490  0.83430  0.09290  Biso   1.000  O
  O5       1.0000 0.00880  0.83290  0.07052  Biso   1.000  O
  O6       1.0000 0.24480  0.95830  0.13530  Biso   1.000  O
  C7       1.0000 0.14760  0.81990  0.06770  Biso   1.000  C
  C8       1.0000 0.20050  0.78410  0.03281  Biso   1.000  C
  C9       1.0000 0.09660  0.76400  0.00480  Biso   1.000  C
  C10      1.0000 0.14740  0.73050  0.97230  Biso   1.000  C
  C11      1.0000 0.26060  0.09150  0.13170  Biso   1.000  C
  H5       1.0000 0.99000  0.77260  0.00830  Biso   1.000  H
  H6       1.0000 0.07310  0.71580  0.95310  Biso   1.000  H
  H7       1.0000 0.35490  0.06820  0.13600  Biso   1.000  H
  C12      1.0000 0.26060  0.15870  0.13150  Biso   1.000  C
  H8       1.0000 0.35540  0.18220  0.13500  Biso   1.000  H
  O7       1.0000 0.74490  0.33430  0.09290  Biso   1.000  O
  O8       1.0000 0.50880  0.33290  0.07052  Biso   1.000  O
  O9       1.0000 0.74480  0.45830  0.13530  Biso   1.000  O
  C13      1.0000 0.64760  0.31990  0.06770  Biso   1.000  C
  C14      1.0000 0.70050  0.28410  0.03281  Biso   1.000  C
  C15      1.0000 0.59660  0.26400  0.00480  Biso   1.000  C
  C16      1.0000 0.64740  0.23050  0.97230  Biso   1.000  C
  C17      1.0000 0.76060  0.59150  0.13170  Biso   1.000  C
  H9       1.0000 0.49000  0.27260  0.00830  Biso   1.000  H
  H10      1.0000 0.57310  0.21580  0.95310  Biso   1.000  H
  H11      1.0000 0.85490  0.56820  0.13600  Biso   1.000  H
  C18      1.0000 0.76060  0.65870  0.13150  Biso   1.000  C
  H12      1.0000 0.85540  0.68220  0.13500  Biso   1.000  H
  O10      1.0000 0.74490  0.83430  0.59290  Biso   1.000  O
  O11      1.0000 0.50880  0.83290  0.57052  Biso   1.000  O
  O12      1.0000 0.74480  0.95830  0.63530  Biso   1.000  O
  C19      1.0000 0.64760  0.81990  0.56770  Biso   1.000  C
  C20      1.0000 0.70050  0.78410  0.53281  Biso   1.000  C
  C21      1.0000 0.59660  0.76400  0.50480  Biso   1.000  C
  C22      1.0000 0.64740  0.73050  0.47230  Biso   1.000  C
  C23      1.0000 0.76060  0.09150  0.63170  Biso   1.000  C
  H13      1.0000 0.49000  0.77260  0.50830  Biso   1.000  H
  H14      1.0000 0.57310  0.71580  0.45310  Biso   1.000  H
  H15      1.0000 0.85490  0.06820  0.63600  Biso   1.000  H
  C24      1.0000 0.76060  0.15870  0.63150  Biso   1.000  C
  H16      1.0000 0.85540  0.18220  0.63500  Biso   1.000  H
  O13      1.0000 0.50510  0.41570  0.59290  Biso   1.000  O
  O14      1.0000 0.74120  0.41710  0.57052  Biso   1.000  O
  O15      1.0000 0.50520  0.29170  0.63530  Biso   1.000  O
  C25      1.0000 0.60240  0.43010  0.56770  Biso   1.000  C
  C26      1.0000 0.54950  0.46590  0.53281  Biso   1.000  C
  C27      1.0000 0.65340  0.48600  0.50480  Biso   1.000  C
  C28      1.0000 0.60260  0.51950  0.47230  Biso   1.000  C
  C29      1.0000 0.48940  0.15850  0.63170  Biso   1.000  C
  H17      1.0000 0.76000  0.47740  0.50830  Biso   1.000  H
  H18      1.0000 0.67690  0.53420  0.45310  Biso   1.000  H
  H19      1.0000 0.39510  0.18180  0.63600  Biso   1.000  H
  C30      1.0000 0.48940  0.09130  0.63150  Biso   1.000  C
  H20      1.0000 0.39460  0.06780  0.63500  Biso   1.000  H
  O16      1.0000 0.50510  0.91570  0.09290  Biso   1.000  O
  O17      1.0000 0.74120  0.91710  0.07052  Biso   1.000  O
  O18      1.0000 0.50520  0.79170  0.13530  Biso   1.000  O
  C31      1.0000 0.60240  0.93010  0.06770  Biso   1.000  C
  C32      1.0000 0.54950  0.96590  0.03281  Biso   1.000  C
  C33      1.0000 0.65340  0.98600  0.00480  Biso   1.000  C
  C34      1.0000 0.60260  0.01950  0.97230  Biso   1.000  C
  C35      1.0000 0.48940  0.65850  0.13170  Biso   1.000  C
  H21      1.0000 0.76000  0.97740  0.00830  Biso   1.000  H
  H22      1.0000 0.67690  0.03420  0.95310  Biso   1.000  H
  H23      1.0000 0.39510  0.68180  0.13600  Biso   1.000  H
  C36      1.0000 0.48940  0.59130  0.13150  Biso   1.000  C
  H24      1.0000 0.39460  0.56780  0.13500  Biso   1.000  H
  O19      1.0000 0.00510  0.41570  0.09290  Biso   1.000  O
  O20      1.0000 0.24120  0.41710  0.07052  Biso   1.000  O
  O21      1.0000 0.00520  0.29170  0.13530  Biso   1.000  O
  C37      1.0000 0.10240  0.43010  0.06770  Biso   1.000  C
  C38      1.0000 0.04950  0.46590  0.03281  Biso   1.000  C
  C39      1.0000 0.15340  0.48600  0.00480  Biso   1.000  C
  C40      1.0000 0.10260  0.51950  0.97230  Biso   1.000  C
  C41      1.0000 0.98940  0.15850  0.13170  Biso   1.000  C
  H25      1.0000 0.26000  0.47740  0.00830  Biso   1.000  H
  H26      1.0000 0.17690  0.53420  0.95310  Biso   1.000  H
  H27      1.0000 0.89510  0.18180  0.13600  Biso   1.000  H
  C42      1.0000 0.98940  0.09130  0.13150  Biso   1.000  C
  H28      1.0000 0.89460  0.06780  0.13500  Biso   1.000  H
  O22      1.0000 0.00510  0.91570  0.59290  Biso   1.000  O
  O23      1.0000 0.24120  0.91710  0.57052  Biso   1.000  O
  O24      1.0000 0.00520  0.79170  0.63530  Biso   1.000  O
  C43      1.0000 0.10240  0.93010  0.56770  Biso   1.000  C
  C44      1.0000 0.04950  0.96590  0.53281  Biso   1.000  C
  C45      1.0000 0.15340  0.98600  0.50480  Biso   1.000  C
  C46      1.0000 0.10260  0.01950  0.47230  Biso   1.000  C
  C47      1.0000 0.98940  0.65850  0.63170  Biso   1.000  C
  H29      1.0000 0.26000  0.97740  0.50830  Biso   1.000  H
  H30      1.0000 0.17690  0.03420  0.45310  Biso   1.000  H
  H31      1.0000 0.89510  0.68180  0.63600  Biso   1.000  H
  C48      1.0000 0.98940  0.59130  0.63150  Biso   1.000  C
  H32      1.0000 0.89460  0.56780  0.63500  Biso   1.000  H
  O25      1.0000 0.50510  0.33430  0.15710  Biso   1.000  O
  O26      1.0000 0.74120  0.33290  0.17948  Biso   1.000  O
  O27      1.0000 0.50520  0.45830  0.11470  Biso   1.000  O
  C49      1.0000 0.60240  0.31990  0.18230  Biso   1.000  C
  C50      1.0000 0.54950  0.28410  0.21719  Biso   1.000  C
  C51      1.0000 0.65340  0.26400  0.24520  Biso   1.000  C
  C52      1.0000 0.60260  0.23050  0.27770  Biso   1.000  C
  C53      1.0000 0.48940  0.59150  0.11830  Biso   1.000  C
  H33      1.0000 0.76000  0.27260  0.24170  Biso   1.000  H
  H34      1.0000 0.67690  0.21580  0.29690  Biso   1.000  H
  H35      1.0000 0.39510  0.56820  0.11400  Biso   1.000  H
  C54      1.0000 0.48940  0.65870  0.11850  Biso   1.000  C
  H36      1.0000 0.39460  0.68220  0.11500  Biso   1.000  H
  O28      1.0000 0.50510  0.83430  0.65710  Biso   1.000  O
  O29      1.0000 0.74120  0.83290  0.67948  Biso   1.000  O
  O30      1.0000 0.50520  0.95830  0.61470  Biso   1.000  O
  C55      1.0000 0.60240  0.81990  0.68230  Biso   1.000  C
  C56      1.0000 0.54950  0.78410  0.71719  Biso   1.000  C
  C57      1.0000 0.65340  0.76400  0.74520  Biso   1.000  C
  C58      1.0000 0.60260  0.73050  0.77770  Biso   1.000  C
  C59      1.0000 0.48940  0.09150  0.61830  Biso   1.000  C
  H37      1.0000 0.76000  0.77260  0.74170  Biso   1.000  H
  H38      1.0000 0.67690  0.71580  0.79690  Biso   1.000  H
  H39      1.0000 0.39510  0.06820  0.61400  Biso   1.000  H
  C60      1.0000 0.48940  0.15870  0.61850  Biso   1.000  C
  H40      1.0000 0.39460  0.18220  0.61500  Biso   1.000  H
  O31      1.0000 0.00510  0.33430  0.65710  Biso   1.000  O
  O32      1.0000 0.24120  0.33290  0.67948  Biso   1.000  O
  O33      1.0000 0.00520  0.45830  0.61470  Biso   1.000  O
  C61      1.0000 0.10240  0.31990  0.68230  Biso   1.000  C
  C62      1.0000 0.04950  0.28410  0.71719  Biso   1.000  C
  C63      1.0000 0.15340  0.26400  0.74520  Biso   1.000  C
  C64      1.0000 0.10260  0.23050  0.77770  Biso   1.000  C
  C65      1.0000 0.98940  0.59150  0.61830  Biso   1.000  C
  H41      1.0000 0.26000  0.27260  0.74170  Biso   1.000  H
  H42      1.0000 0.17690  0.21580  0.79690  Biso   1.000  H
  H43      1.0000 0.89510  0.56820  0.61400  Biso   1.000  H
  C66      1.0000 0.98940  0.65870  0.61850  Biso   1.000  C
  H44      1.0000 0.89460  0.68220  0.61500  Biso   1.000  H
  O34      1.0000 0.00510  0.83430  0.15710  Biso   1.000  O
  O35      1.0000 0.24120  0.83290  0.17948  Biso   1.000  O
  O36      1.0000 0.00520  0.95830  0.11470  Biso   1.000  O
  C67      1.0000 0.10240  0.81990  0.18230  Biso   1.000  C
  C68      1.0000 0.04950  0.78410  0.21719  Biso   1.000  C
  C69      1.0000 0.15340  0.76400  0.24520  Biso   1.000  C
  C70      1.0000 0.10260  0.73050  0.27770  Biso   1.000  C
  C71      1.0000 0.98940  0.09150  0.11830  Biso   1.000  C
  H45      1.0000 0.26000  0.77260  0.24170  Biso   1.000  H
  H46      1.0000 0.17690  0.71580  0.29690  Biso   1.000  H
  H47      1.0000 0.89510  0.06820  0.11400  Biso   1.000  H
  C72      1.0000 0.98940  0.15870  0.11850  Biso   1.000  C
  H48      1.0000 0.89460  0.18220  0.11500  Biso   1.000  H
  O37      1.0000 0.24490  0.41570  0.15710  Biso   1.000  O
  O38      1.0000 0.00880  0.41710  0.17948  Biso   1.000  O
  O39      1.0000 0.24480  0.29170  0.11470  Biso   1.000  O
  C73      1.0000 0.14760  0.43010  0.18230  Biso   1.000  C
  C74      1.0000 0.20050  0.46590  0.21719  Biso   1.000  C
  C75      1.0000 0.09660  0.48600  0.24520  Biso   1.000  C
  C76      1.0000 0.14740  0.51950  0.27770  Biso   1.000  C
  C77      1.0000 0.26060  0.15850  0.11830  Biso   1.000  C
  H49      1.0000 0.99000  0.47740  0.24170  Biso   1.000  H
  H50      1.0000 0.07310  0.53420  0.29690  Biso   1.000  H
  H51      1.0000 0.35490  0.18180  0.11400  Biso   1.000  H
  C78      1.0000 0.26060  0.09130  0.11850  Biso   1.000  C
  H52      1.0000 0.35540  0.06780  0.11500  Biso   1.000  H
  O40      1.0000 0.24490  0.91570  0.65710  Biso   1.000  O
  O41      1.0000 0.00880  0.91710  0.67948  Biso   1.000  O
  O42      1.0000 0.24480  0.79170  0.61470  Biso   1.000  O
  C79      1.0000 0.14760  0.93010  0.68230  Biso   1.000  C
  C80      1.0000 0.20050  0.96590  0.71719  Biso   1.000  C
  C81      1.0000 0.09660  0.98600  0.74520  Biso   1.000  C
  C82      1.0000 0.14740  0.01950  0.77770  Biso   1.000  C
  C83      1.0000 0.26060  0.65850  0.61830  Biso   1.000  C
  H53      1.0000 0.99000  0.97740  0.74170  Biso   1.000  H
  H54      1.0000 0.07310  0.03420  0.79690  Biso   1.000  H
  H55      1.0000 0.35490  0.68180  0.61400  Biso   1.000  H
  C84      1.0000 0.26060  0.59130  0.61850  Biso   1.000  C
  H56      1.0000 0.35540  0.56780  0.61500  Biso   1.000  H
  O43      1.0000 0.74490  0.41570  0.65710  Biso   1.000  O
  O44      1.0000 0.50880  0.41710  0.67948  Biso   1.000  O
  O45      1.0000 0.74480  0.29170  0.61470  Biso   1.000  O
  C85      1.0000 0.64760  0.43010  0.68230  Biso   1.000  C
  C86      1.0000 0.70050  0.46590  0.71719  Biso   1.000  C
  C87      1.0000 0.59660  0.48600  0.74520  Biso   1.000  C
  C88      1.0000 0.64740  0.51950  0.77770  Biso   1.000  C
  C89      1.0000 0.76060  0.15850  0.61830  Biso   1.000  C
  H57      1.0000 0.49000  0.47740  0.74170  Biso   1.000  H
  H58      1.0000 0.57310  0.53420  0.79690  Biso   1.000  H
  H59      1.0000 0.85490  0.18180  0.61400  Biso   1.000  H
  C90      1.0000 0.76060  0.09130  0.61850  Biso   1.000  C
  H60      1.0000 0.85540  0.06780  0.61500  Biso   1.000  H
  O46      1.0000 0.74490  0.91570  0.15710  Biso   1.000  O
  O47      1.0000 0.50880  0.91710  0.17948  Biso   1.000  O
  O48      1.0000 0.74480  0.79170  0.11470  Biso   1.000  O
  C91      1.0000 0.64760  0.93010  0.18230  Biso   1.000  C
  C92      1.0000 0.70050  0.96590  0.21719  Biso   1.000  C
  C93      1.0000 0.59660  0.98600  0.24520  Biso   1.000  C
  C94      1.0000 0.64740  0.01950  0.27770  Biso   1.000  C
  C95      1.0000 0.76060  0.65850  0.11830  Biso   1.000  C
  H61      1.0000 0.49000  0.97740  0.24170  Biso   1.000  H
  H62      1.0000 0.57310  0.03420  0.29690  Biso   1.000  H
  H63      1.0000 0.85490  0.68180  0.11400  Biso   1.000  H
  C96      1.0000 0.76060  0.59130  0.11850  Biso   1.000  C
  H64      1.0000 0.85540  0.56780  0.11500  Biso   1.000  H
  O49      1.0000 0.75510  0.66570  0.40710  Biso   1.000  O
  O50      1.0000 0.99120  0.66710  0.42948  Biso   1.000  O
  O51      1.0000 0.75520  0.54170  0.36470  Biso   1.000  O
  C97      1.0000 0.85240  0.68010  0.43230  Biso   1.000  C
  C98      1.0000 0.79950  0.71590  0.46719  Biso   1.000  C
  C99      1.0000 0.90340  0.73600  0.49520  Biso   1.000  C
  C100     1.0000 0.85260  0.76950  0.52770  Biso   1.000  C
  C101     1.0000 0.73940  0.40850  0.36830  Biso   1.000  C
  H65      1.0000 0.01000  0.72740  0.49170  Biso   1.000  H
  H66      1.0000 0.92690  0.78420  0.54690  Biso   1.000  H
  H67      1.0000 0.64510  0.43180  0.36400  Biso   1.000  H
  C102     1.0000 0.73940  0.34130  0.36850  Biso   1.000  C
  H68      1.0000 0.64460  0.31780  0.36500  Biso   1.000  H
  O52      1.0000 0.75510  0.16570  0.90710  Biso   1.000  O
  O53      1.0000 0.99120  0.16710  0.92948  Biso   1.000  O
  O54      1.0000 0.75520  0.04170  0.86470  Biso   1.000  O
  C103     1.0000 0.85240  0.18010  0.93230  Biso   1.000  C
  C104     1.0000 0.79950  0.21590  0.96719  Biso   1.000  C
  C105     1.0000 0.90340  0.23600  0.99520  Biso   1.000  C
  C106     1.0000 0.85260  0.26950  0.02770  Biso   1.000  C
  C107     1.0000 0.73940  0.90850  0.86830  Biso   1.000  C
  H69      1.0000 0.01000  0.22740  0.99170  Biso   1.000  H
  H70      1.0000 0.92690  0.28420  0.04690  Biso   1.000  H
  H71      1.0000 0.64510  0.93180  0.86400  Biso   1.000  H
  C108     1.0000 0.73940  0.84130  0.86850  Biso   1.000  C
  H72      1.0000 0.64460  0.81780  0.86500  Biso   1.000  H
  O55      1.0000 0.25510  0.66570  0.90710  Biso   1.000  O
  O56      1.0000 0.49120  0.66710  0.92948  Biso   1.000  O
  O57      1.0000 0.25520  0.54170  0.86470  Biso   1.000  O
  C109     1.0000 0.35240  0.68010  0.93230  Biso   1.000  C
  C110     1.0000 0.29950  0.71590  0.96719  Biso   1.000  C
  C111     1.0000 0.40340  0.73600  0.99520  Biso   1.000  C
  C112     1.0000 0.35260  0.76950  0.02770  Biso   1.000  C
  C113     1.0000 0.23940  0.40850  0.86830  Biso   1.000  C
  H73      1.0000 0.51000  0.72740  0.99170  Biso   1.000  H
  H74      1.0000 0.42690  0.78420  0.04690  Biso   1.000  H
  H75      1.0000 0.14510  0.43180  0.86400  Biso   1.000  H
  C114     1.0000 0.23940  0.34130  0.86850  Biso   1.000  C
  H76      1.0000 0.14460  0.31780  0.86500  Biso   1.000  H
  O58      1.0000 0.25510  0.16570  0.40710  Biso   1.000  O
  O59      1.0000 0.49120  0.16710  0.42948  Biso   1.000  O
  O60      1.0000 0.25520  0.04170  0.36470  Biso   1.000  O
  C115     1.0000 0.35240  0.18010  0.43230  Biso   1.000  C
  C116     1.0000 0.29950  0.21590  0.46719  Biso   1.000  C
  C117     1.0000 0.40340  0.23600  0.49520  Biso   1.000  C
  C118     1.0000 0.35260  0.26950  0.52770  Biso   1.000  C
  C119     1.0000 0.23940  0.90850  0.36830  Biso   1.000  C
  H77      1.0000 0.51000  0.22740  0.49170  Biso   1.000  H
  H78      1.0000 0.42690  0.28420  0.54690  Biso   1.000  H
  H79      1.0000 0.14510  0.93180  0.36400  Biso   1.000  H
  C120     1.0000 0.23940  0.84130  0.36850  Biso   1.000  C
  H80      1.0000 0.14460  0.81780  0.36500  Biso   1.000  H
  O61      1.0000 0.49490  0.58430  0.40710  Biso   1.000  O
  O62      1.0000 0.25880  0.58290  0.42948  Biso   1.000  O
  O63      1.0000 0.49480  0.70830  0.36470  Biso   1.000  O
  C121     1.0000 0.39760  0.56990  0.43230  Biso   1.000  C
  C122     1.0000 0.45050  0.53410  0.46719  Biso   1.000  C
  C123     1.0000 0.34660  0.51400  0.49520  Biso   1.000  C
  C124     1.0000 0.39740  0.48050  0.52770  Biso   1.000  C
  C125     1.0000 0.51060  0.84150  0.36830  Biso   1.000  C
  H81      1.0000 0.24000  0.52260  0.49170  Biso   1.000  H
  H82      1.0000 0.32310  0.46580  0.54690  Biso   1.000  H
  H83      1.0000 0.60490  0.81820  0.36400  Biso   1.000  H
  C126     1.0000 0.51060  0.90870  0.36850  Biso   1.000  C
  H84      1.0000 0.60540  0.93220  0.36500  Biso   1.000  H
  O64      1.0000 0.49490  0.08430  0.90710  Biso   1.000  O
  O65      1.0000 0.25880  0.08290  0.92948  Biso   1.000  O
  O66      1.0000 0.49480  0.20830  0.86470  Biso   1.000  O
  C127     1.0000 0.39760  0.06990  0.93230  Biso   1.000  C
  C128     1.0000 0.45050  0.03410  0.96719  Biso   1.000  C
  C129     1.0000 0.34660  0.01400  0.99520  Biso   1.000  C
  C130     1.0000 0.39740  0.98050  0.02770  Biso   1.000  C
  C131     1.0000 0.51060  0.34150  0.86830  Biso   1.000  C
  H85      1.0000 0.24000  0.02260  0.99170  Biso   1.000  H
  H86      1.0000 0.32310  0.96580  0.04690  Biso   1.000  H
  H87      1.0000 0.60490  0.31820  0.86400  Biso   1.000  H
  C132     1.0000 0.51060  0.40870  0.86850  Biso   1.000  C
  H88      1.0000 0.60540  0.43220  0.86500  Biso   1.000  H
  O67      1.0000 0.99490  0.58430  0.90710  Biso   1.000  O
  O68      1.0000 0.75880  0.58290  0.92948  Biso   1.000  O
  O69      1.0000 0.99480  0.70830  0.86470  Biso   1.000  O
  C133     1.0000 0.89760  0.56990  0.93230  Biso   1.000  C
  C134     1.0000 0.95050  0.53410  0.96719  Biso   1.000  C
  C135     1.0000 0.84660  0.51400  0.99520  Biso   1.000  C
  C136     1.0000 0.89740  0.48050  0.02770  Biso   1.000  C
  C137     1.0000 0.01060  0.84150  0.86830  Biso   1.000  C
  H89      1.0000 0.74000  0.52260  0.99170  Biso   1.000  H
  H90      1.0000 0.82310  0.46580  0.04690  Biso   1.000  H
  H91      1.0000 0.10490  0.81820  0.86400  Biso   1.000  H
  C138     1.0000 0.01060  0.90870  0.86850  Biso   1.000  C
  H92      1.0000 0.10540  0.93220  0.86500  Biso   1.000  H
  O70      1.0000 0.99490  0.08430  0.40710  Biso   1.000  O
  O71      1.0000 0.75880  0.08290  0.42948  Biso   1.000  O
  O72      1.0000 0.99480  0.20830  0.36470  Biso   1.000  O
  C139     1.0000 0.89760  0.06990  0.43230  Biso   1.000  C
  C140     1.0000 0.95050  0.03410  0.46719  Biso   1.000  C
  C141     1.0000 0.84660  0.01400  0.49520  Biso   1.000  C
  C142     1.0000 0.89740  0.98050  0.52770  Biso   1.000  C
  C143     1.0000 0.01060  0.34150  0.36830  Biso   1.000  C
  H93      1.0000 0.74000  0.02260  0.49170  Biso   1.000  H
  H94      1.0000 0.82310  0.96580  0.54690  Biso   1.000  H
  H95      1.0000 0.10490  0.31820  0.36400  Biso   1.000  H
  C144     1.0000 0.01060  0.40870  0.36850  Biso   1.000  C
  H96      1.0000 0.10540  0.43220  0.36500  Biso   1.000  H
  O73      1.0000 0.49490  0.66570  0.84290  Biso   1.000  O
  O74      1.0000 0.25880  0.66710  0.82052  Biso   1.000  O
  O75      1.0000 0.49480  0.54170  0.88530  Biso   1.000  O
  C145     1.0000 0.39760  0.68010  0.81770  Biso   1.000  C
  C146     1.0000 0.45050  0.71590  0.78281  Biso   1.000  C
  C147     1.0000 0.34660  0.73600  0.75480  Biso   1.000  C
  C148     1.0000 0.39740  0.76950  0.72230  Biso   1.000  C
  C149     1.0000 0.51060  0.40850  0.88170  Biso   1.000  C
  H97      1.0000 0.24000  0.72740  0.75830  Biso   1.000  H
  H98      1.0000 0.32310  0.78420  0.70310  Biso   1.000  H
  H99      1.0000 0.60490  0.43180  0.88600  Biso   1.000  H
  C150     1.0000 0.51060  0.34130  0.88150  Biso   1.000  C
  H100     1.0000 0.60540  0.31780  0.88500  Biso   1.000  H
  O76      1.0000 0.49490  0.16570  0.34290  Biso   1.000  O
  O77      1.0000 0.25880  0.16710  0.32052  Biso   1.000  O
  O78      1.0000 0.49480  0.04170  0.38530  Biso   1.000  O
  C151     1.0000 0.39760  0.18010  0.31770  Biso   1.000  C
  C152     1.0000 0.45050  0.21590  0.28281  Biso   1.000  C
  C153     1.0000 0.34660  0.23600  0.25480  Biso   1.000  C
  C154     1.0000 0.39740  0.26950  0.22230  Biso   1.000  C
  C155     1.0000 0.51060  0.90850  0.38170  Biso   1.000  C
  H101     1.0000 0.24000  0.22740  0.25830  Biso   1.000  H
  H102     1.0000 0.32310  0.28420  0.20310  Biso   1.000  H
  H103     1.0000 0.60490  0.93180  0.38600  Biso   1.000  H
  C156     1.0000 0.51060  0.84130  0.38150  Biso   1.000  C
  H104     1.0000 0.60540  0.81780  0.38500  Biso   1.000  H
  O79      1.0000 0.99490  0.66570  0.34290  Biso   1.000  O
  O80      1.0000 0.75880  0.66710  0.32052  Biso   1.000  O
  O81      1.0000 0.99480  0.54170  0.38530  Biso   1.000  O
  C157     1.0000 0.89760  0.68010  0.31770  Biso   1.000  C
  C158     1.0000 0.95050  0.71590  0.28281  Biso   1.000  C
  C159     1.0000 0.84660  0.73600  0.25480  Biso   1.000  C
  C160     1.0000 0.89740  0.76950  0.22230  Biso   1.000  C
  C161     1.0000 0.01060  0.40850  0.38170  Biso   1.000  C
  H105     1.0000 0.74000  0.72740  0.25830  Biso   1.000  H
  H106     1.0000 0.82310  0.78420  0.20310  Biso   1.000  H
  H107     1.0000 0.10490  0.43180  0.38600  Biso   1.000  H
  C162     1.0000 0.01060  0.34130  0.38150  Biso   1.000  C
  H108     1.0000 0.10540  0.31780  0.38500  Biso   1.000  H
  O82      1.0000 0.99490  0.16570  0.84290  Biso   1.000  O
  O83      1.0000 0.75880  0.16710  0.82052  Biso   1.000  O
  O84      1.0000 0.99480  0.04170  0.88530  Biso   1.000  O
  C163     1.0000 0.89760  0.18010  0.81770  Biso   1.000  C
  C164     1.0000 0.95050  0.21590  0.78281  Biso   1.000  C
  C165     1.0000 0.84660  0.23600  0.75480  Biso   1.000  C
  C166     1.0000 0.89740  0.26950  0.72230  Biso   1.000  C
  C167     1.0000 0.01060  0.90850  0.88170  Biso   1.000  C
  H109     1.0000 0.74000  0.22740  0.75830  Biso   1.000  H
  H110     1.0000 0.82310  0.28420  0.70310  Biso   1.000  H
  H111     1.0000 0.10490  0.93180  0.88600  Biso   1.000  H
  C168     1.0000 0.01060  0.84130  0.88150  Biso   1.000  C
  H112     1.0000 0.10540  0.81780  0.88500  Biso   1.000  H
  O85      1.0000 0.75510  0.58430  0.84290  Biso   1.000  O
  O86      1.0000 0.99120  0.58290  0.82052  Biso   1.000  O
  O87      1.0000 0.75520  0.70830  0.88530  Biso   1.000  O
  C169     1.0000 0.85240  0.56990  0.81770  Biso   1.000  C
  C170     1.0000 0.79950  0.53410  0.78281  Biso   1.000  C
  C171     1.0000 0.90340  0.51400  0.75480  Biso   1.000  C
  C172     1.0000 0.85260  0.48050  0.72230  Biso   1.000  C
  C173     1.0000 0.73940  0.84150  0.88170  Biso   1.000  C
  H113     1.0000 0.01000  0.52260  0.75830  Biso   1.000  H
  H114     1.0000 0.92690  0.46580  0.70310  Biso   1.000  H
  H115     1.0000 0.64510  0.81820  0.88600  Biso   1.000  H
  C174     1.0000 0.73940  0.90870  0.88150  Biso   1.000  C
  H116     1.0000 0.64460  0.93220  0.88500  Biso   1.000  H
  O88      1.0000 0.75510  0.08430  0.34290  Biso   1.000  O
  O89      1.0000 0.99120  0.08290  0.32052  Biso   1.000  O
  O90      1.0000 0.75520  0.20830  0.38530  Biso   1.000  O
  C175     1.0000 0.85240  0.06990  0.31770  Biso   1.000  C
  C176     1.0000 0.79950  0.03410  0.28281  Biso   1.000  C
  C177     1.0000 0.90340  0.01400  0.25480  Biso   1.000  C
  C178     1.0000 0.85260  0.98050  0.22230  Biso   1.000  C
  C179     1.0000 0.73940  0.34150  0.38170  Biso   1.000  C
  H117     1.0000 0.01000  0.02260  0.25830  Biso   1.000  H
  H118     1.0000 0.92690  0.96580  0.20310  Biso   1.000  H
  H119     1.0000 0.64510  0.31820  0.38600  Biso   1.000  H
  C180     1.0000 0.73940  0.40870  0.38150  Biso   1.000  C
  H120     1.0000 0.64460  0.43220  0.38500  Biso   1.000  H
  O91      1.0000 0.25510  0.58430  0.34290  Biso   1.000  O
  O92      1.0000 0.49120  0.58290  0.32052  Biso   1.000  O
  O93      1.0000 0.25520  0.70830  0.38530  Biso   1.000  O
  C181     1.0000 0.35240  0.56990  0.31770  Biso   1.000  C
  C182     1.0000 0.29950  0.53410  0.28281  Biso   1.000  C
  C183     1.0000 0.40340  0.51400  0.25480  Biso   1.000  C
  C184     1.0000 0.35260  0.48050  0.22230  Biso   1.000  C
  C185     1.0000 0.23940  0.84150  0.38170  Biso   1.000  C
  H121     1.0000 0.51000  0.52260  0.25830  Biso   1.000  H
  H122     1.0000 0.42690  0.46580  0.20310  Biso   1.000  H
  H123     1.0000 0.14510  0.81820  0.38600  Biso   1.000  H
  C186     1.0000 0.23940  0.90870  0.38150  Biso   1.000  C
  H124     1.0000 0.14460  0.93220  0.38500  Biso   1.000  H
  O94      1.0000 0.25510  0.08430  0.84290  Biso   1.000  O
  O95      1.0000 0.49120  0.08290  0.82052  Biso   1.000  O
  O96      1.0000 0.25520  0.20830  0.88530  Biso   1.000  O
  C187     1.0000 0.35240  0.06990  0.81770  Biso   1.000  C
  C188     1.0000 0.29950  0.03410  0.78281  Biso   1.000  C
  C189     1.0000 0.40340  0.01400  0.75480  Biso   1.000  C
  C190     1.0000 0.35260  0.98050  0.72230  Biso   1.000  C
  C191     1.0000 0.23940  0.34150  0.88170  Biso   1.000  C
  H125     1.0000 0.51000  0.02260  0.75830  Biso   1.000  H
  H126     1.0000 0.42690  0.96580  0.70310  Biso   1.000  H
  H127     1.0000 0.14510  0.31820  0.88600  Biso   1.000  H
  C192     1.0000 0.23940  0.40870  0.88150  Biso   1.000  C
  H128     1.0000 0.14460  0.43220  0.88500  Biso   1.000  H
  Sc1      1.0000 0.37500  0.37500  0.63568  Biso   1.000  Sc
  Sc2      1.0000 0.37500  0.87500  0.13568  Biso   1.000  Sc
  Sc3      1.0000 0.87500  0.37500  0.13568  Biso   1.000  Sc
  Sc4      1.0000 0.87500  0.87500  0.63568  Biso   1.000  Sc
  Sc5      1.0000 0.37500  0.37500  0.11432  Biso   1.000  Sc
  Sc6      1.0000 0.37500  0.87500  0.61432  Biso   1.000  Sc
  Sc7      1.0000 0.87500  0.37500  0.61432  Biso   1.000  Sc
  Sc8      1.0000 0.87500  0.87500  0.11432  Biso   1.000  Sc
  Sc9      1.0000 0.62500  0.62500  0.36432  Biso   1.000  Sc
  Sc10     1.0000 0.62500  0.12500  0.86432  Biso   1.000  Sc
  Sc11     1.0000 0.12500  0.62500  0.86432  Biso   1.000  Sc
  Sc12     1.0000 0.12500  0.12500  0.36432  Biso   1.000  Sc
  Sc13     1.0000 0.62500  0.62500  0.88568  Biso   1.000  Sc
  Sc14     1.0000 0.62500  0.12500  0.38568  Biso   1.000  Sc
  Sc15     1.0000 0.12500  0.62500  0.38568  Biso   1.000  Sc
  Sc16     1.0000 0.12500  0.12500  0.88568  Biso   1.000  Sc
  C193     1.0000 0.12500  0.48590  0.62500  Biso   1.000  C
  C194     1.0000 0.12500  0.55820  0.62500  Biso   1.000  C
  C195     1.0000 0.12500  0.98590  0.12500  Biso   1.000  C
  C196     1.0000 0.12500  0.05820  0.12500  Biso   1.000  C
  C197     1.0000 0.62500  0.98590  0.62500  Biso   1.000  C
  C198     1.0000 0.62500  0.05820  0.62500  Biso   1.000  C
  C199     1.0000 0.62500  0.26410  0.62500  Biso   1.000  C
  C200     1.0000 0.62500  0.19180  0.62500  Biso   1.000  C
  C201     1.0000 0.62500  0.76410  0.12500  Biso   1.000  C
  C202     1.0000 0.62500  0.69180  0.12500  Biso   1.000  C
  C203     1.0000 0.62500  0.48590  0.12500  Biso   1.000  C
  C204     1.0000 0.62500  0.55820  0.12500  Biso   1.000  C
  C205     1.0000 0.12500  0.26410  0.12500  Biso   1.000  C
  C206     1.0000 0.12500  0.19180  0.12500  Biso   1.000  C
  C207     1.0000 0.12500  0.76410  0.62500  Biso   1.000  C
  C208     1.0000 0.12500  0.69180  0.62500  Biso   1.000  C
  C209     1.0000 0.87500  0.51410  0.37500  Biso   1.000  C
  C210     1.0000 0.87500  0.44180  0.37500  Biso   1.000  C
  C211     1.0000 0.87500  0.01410  0.87500  Biso   1.000  C
  C212     1.0000 0.87500  0.94180  0.87500  Biso   1.000  C
  C213     1.0000 0.37500  0.73590  0.37500  Biso   1.000  C
  C214     1.0000 0.37500  0.80820  0.37500  Biso   1.000  C
  C215     1.0000 0.37500  0.23590  0.87500  Biso   1.000  C
  C216     1.0000 0.37500  0.30820  0.87500  Biso   1.000  C
  C217     1.0000 0.37500  0.51410  0.87500  Biso   1.000  C
  C218     1.0000 0.37500  0.44180  0.87500  Biso   1.000  C
  C219     1.0000 0.37500  0.01410  0.37500  Biso   1.000  C
  C220     1.0000 0.37500  0.94180  0.37500  Biso   1.000  C
  C221     1.0000 0.87500  0.73590  0.87500  Biso   1.000  C
  C222     1.0000 0.87500  0.80820  0.87500  Biso   1.000  C
  C223     1.0000 0.87500  0.23590  0.37500  Biso   1.000  C
  C224     1.0000 0.87500  0.30820  0.37500  Biso   1.000  C
