data_image0
_cell_length_a       8.7373
_cell_length_b       20.691
_cell_length_c       34.124
_cell_angle_alpha    90
_cell_angle_beta     90
_cell_angle_gamma    90

_symmetry_space_group_name_H-M    "P 1"
_symmetry_int_tables_number       1

loop_
  _symmetry_equiv_pos_as_xyz
  'x, y, z'

loop_
  _atom_site_label
  _atom_site_occupancy
  _atom_site_fract_x
  _atom_site_fract_y
  _atom_site_fract_z
  _atom_site_thermal_displace_type
  _atom_site_B_iso_or_equiv
  _atom_site_type_symbol
  O1       1.0000 0.24420  0.33520  0.59300  Biso   1.000  O
  O2       1.0000 0.00700  0.33340  0.57040  Biso   1.000  O
  O3       1.0000 0.24690  0.45740  0.63630  Biso   1.000  O
  C1       1.0000 0.14800  0.31980  0.56730  Biso   1.000  C
  C2       1.0000 0.20010  0.28450  0.53280  Biso   1.000  C
  C3       1.0000 0.09560  0.26360  0.50510  Biso   1.000  C
  C4       1.0000 0.14610  0.22910  0.47260  Biso   1.000  C
  C5       1.0000 0.25040  0.59130  0.63960  Biso   1.000  C
  C6       1.0000 0.25030  0.65860  0.63960  Biso   1.000  C
  H1       1.0000 0.98970  0.27270  0.50830  Biso   1.000  H
  H2       1.0000 0.07380  0.21460  0.45370  Biso   1.000  H
  H3       1.0000 0.32800  0.56860  0.65340  Biso   1.000  H
  H4       1.0000 0.32790  0.68120  0.65340  Biso   1.000  H
  O4       1.0000 0.24420  0.83520  0.09300  Biso   1.000  O
  O5       1.0000 0.00700  0.83340  0.07040  Biso   1.000  O
  O6       1.0000 0.24690  0.95740  0.13630  Biso   1.000  O
  C7       1.0000 0.14800  0.81980  0.06730  Biso   1.000  C
  C8       1.0000 0.20010  0.78450  0.03280  Biso   1.000  C
  C9       1.0000 0.09560  0.76360  0.00510  Biso   1.000  C
  C10      1.0000 0.14610  0.72910  0.97260  Biso   1.000  C
  C11      1.0000 0.25040  0.09130  0.13960  Biso   1.000  C
  C12      1.0000 0.25030  0.15860  0.13960  Biso   1.000  C
  H5       1.0000 0.98970  0.77270  0.00830  Biso   1.000  H
  H6       1.0000 0.07380  0.71460  0.95370  Biso   1.000  H
  H7       1.0000 0.32800  0.06860  0.15340  Biso   1.000  H
  H8       1.0000 0.32790  0.18120  0.15340  Biso   1.000  H
  O7       1.0000 0.74420  0.33520  0.09300  Biso   1.000  O
  O8       1.0000 0.50700  0.33340  0.07040  Biso   1.000  O
  O9       1.0000 0.74690  0.45740  0.13630  Biso   1.000  O
  C13      1.0000 0.64800  0.31980  0.06730  Biso   1.000  C
  C14      1.0000 0.70010  0.28450  0.03280  Biso   1.000  C
  C15      1.0000 0.59560  0.26360  0.00510  Biso   1.000  C
  C16      1.0000 0.64610  0.22910  0.97260  Biso   1.000  C
  C17      1.0000 0.75040  0.59130  0.13960  Biso   1.000  C
  C18      1.0000 0.75030  0.65860  0.13960  Biso   1.000  C
  H9       1.0000 0.48970  0.27270  0.00830  Biso   1.000  H
  H10      1.0000 0.57380  0.21460  0.95370  Biso   1.000  H
  H11      1.0000 0.82800  0.56860  0.15340  Biso   1.000  H
  H12      1.0000 0.82790  0.68120  0.15340  Biso   1.000  H
  O10      1.0000 0.74420  0.83520  0.59300  Biso   1.000  O
  O11      1.0000 0.50700  0.83340  0.57040  Biso   1.000  O
  O12      1.0000 0.74690  0.95740  0.63630  Biso   1.000  O
  C19      1.0000 0.64800  0.81980  0.56730  Biso   1.000  C
  C20      1.0000 0.70010  0.78450  0.53280  Biso   1.000  C
  C21      1.0000 0.59560  0.76360  0.50510  Biso   1.000  C
  C22      1.0000 0.64610  0.72910  0.47260  Biso   1.000  C
  C23      1.0000 0.75040  0.09130  0.63960  Biso   1.000  C
  C24      1.0000 0.75030  0.15860  0.63960  Biso   1.000  C
  H13      1.0000 0.48970  0.77270  0.50830  Biso   1.000  H
  H14      1.0000 0.57380  0.71460  0.45370  Biso   1.000  H
  H15      1.0000 0.82800  0.06860  0.65340  Biso   1.000  H
  H16      1.0000 0.82790  0.18120  0.65340  Biso   1.000  H
  O13      1.0000 0.50580  0.41480  0.59300  Biso   1.000  O
  O14      1.0000 0.74300  0.41660  0.57040  Biso   1.000  O
  O15      1.0000 0.50310  0.29260  0.63630  Biso   1.000  O
  C25      1.0000 0.60200  0.43020  0.56730  Biso   1.000  C
  C26      1.0000 0.54990  0.46550  0.53280  Biso   1.000  C
  C27      1.0000 0.65440  0.48640  0.50510  Biso   1.000  C
  C28      1.0000 0.60390  0.52090  0.47260  Biso   1.000  C
  C29      1.0000 0.49960  0.15870  0.63960  Biso   1.000  C
  C30      1.0000 0.49970  0.09140  0.63960  Biso   1.000  C
  H17      1.0000 0.76030  0.47730  0.50830  Biso   1.000  H
  H18      1.0000 0.67620  0.53540  0.45370  Biso   1.000  H
  H19      1.0000 0.42200  0.18140  0.65340  Biso   1.000  H
  H20      1.0000 0.42210  0.06880  0.65340  Biso   1.000  H
  O16      1.0000 0.50580  0.91480  0.09300  Biso   1.000  O
  O17      1.0000 0.74300  0.91660  0.07040  Biso   1.000  O
  O18      1.0000 0.50310  0.79260  0.13630  Biso   1.000  O
  C31      1.0000 0.60200  0.93020  0.06730  Biso   1.000  C
  C32      1.0000 0.54990  0.96550  0.03280  Biso   1.000  C
  C33      1.0000 0.65440  0.98640  0.00510  Biso   1.000  C
  C34      1.0000 0.60390  0.02090  0.97260  Biso   1.000  C
  C35      1.0000 0.49960  0.65870  0.13960  Biso   1.000  C
  C36      1.0000 0.49970  0.59140  0.13960  Biso   1.000  C
  H21      1.0000 0.76030  0.97730  0.00830  Biso   1.000  H
  H22      1.0000 0.67620  0.03540  0.95370  Biso   1.000  H
  H23      1.0000 0.42200  0.68140  0.15340  Biso   1.000  H
  H24      1.0000 0.42210  0.56880  0.15340  Biso   1.000  H
  O19      1.0000 0.00580  0.41480  0.09300  Biso   1.000  O
  O20      1.0000 0.24300  0.41660  0.07040  Biso   1.000  O
  O21      1.0000 0.00310  0.29260  0.13630  Biso   1.000  O
  C37      1.0000 0.10200  0.43020  0.06730  Biso   1.000  C
  C38      1.0000 0.04990  0.46550  0.03280  Biso   1.000  C
  C39      1.0000 0.15440  0.48640  0.00510  Biso   1.000  C
  C40      1.0000 0.10390  0.52090  0.97260  Biso   1.000  C
  C41      1.0000 0.99960  0.15870  0.13960  Biso   1.000  C
  C42      1.0000 0.99970  0.09140  0.13960  Biso   1.000  C
  H25      1.0000 0.26030  0.47730  0.00830  Biso   1.000  H
  H26      1.0000 0.17620  0.53540  0.95370  Biso   1.000  H
  H27      1.0000 0.92200  0.18140  0.15340  Biso   1.000  H
  H28      1.0000 0.92210  0.06880  0.15340  Biso   1.000  H
  O22      1.0000 0.00580  0.91480  0.59300  Biso   1.000  O
  O23      1.0000 0.24300  0.91660  0.57040  Biso   1.000  O
  O24      1.0000 0.00310  0.79260  0.63630  Biso   1.000  O
  C43      1.0000 0.10200  0.93020  0.56730  Biso   1.000  C
  C44      1.0000 0.04990  0.96550  0.53280  Biso   1.000  C
  C45      1.0000 0.15440  0.98640  0.50510  Biso   1.000  C
  C46      1.0000 0.10390  0.02090  0.47260  Biso   1.000  C
  C47      1.0000 0.99960  0.65870  0.63960  Biso   1.000  C
  C48      1.0000 0.99970  0.59140  0.63960  Biso   1.000  C
  H29      1.0000 0.26030  0.97730  0.50830  Biso   1.000  H
  H30      1.0000 0.17620  0.03540  0.45370  Biso   1.000  H
  H31      1.0000 0.92200  0.68140  0.65340  Biso   1.000  H
  H32      1.0000 0.92210  0.56880  0.65340  Biso   1.000  H
  O25      1.0000 0.50580  0.33520  0.15700  Biso   1.000  O
  O26      1.0000 0.74300  0.33340  0.17960  Biso   1.000  O
  O27      1.0000 0.50310  0.45740  0.11370  Biso   1.000  O
  C49      1.0000 0.60200  0.31980  0.18270  Biso   1.000  C
  C50      1.0000 0.54990  0.28450  0.21720  Biso   1.000  C
  C51      1.0000 0.65440  0.26360  0.24490  Biso   1.000  C
  C52      1.0000 0.60390  0.22910  0.27740  Biso   1.000  C
  C53      1.0000 0.49960  0.59130  0.11040  Biso   1.000  C
  C54      1.0000 0.49970  0.65860  0.11040  Biso   1.000  C
  H33      1.0000 0.76030  0.27270  0.24170  Biso   1.000  H
  H34      1.0000 0.67620  0.21460  0.29630  Biso   1.000  H
  H35      1.0000 0.42200  0.56860  0.09660  Biso   1.000  H
  H36      1.0000 0.42210  0.68120  0.09660  Biso   1.000  H
  O28      1.0000 0.50580  0.83520  0.65700  Biso   1.000  O
  O29      1.0000 0.74300  0.83340  0.67960  Biso   1.000  O
  O30      1.0000 0.50310  0.95740  0.61370  Biso   1.000  O
  C55      1.0000 0.60200  0.81980  0.68270  Biso   1.000  C
  C56      1.0000 0.54990  0.78450  0.71720  Biso   1.000  C
  C57      1.0000 0.65440  0.76360  0.74490  Biso   1.000  C
  C58      1.0000 0.60390  0.72910  0.77740  Biso   1.000  C
  C59      1.0000 0.49960  0.09130  0.61040  Biso   1.000  C
  C60      1.0000 0.49970  0.15860  0.61040  Biso   1.000  C
  H37      1.0000 0.76030  0.77270  0.74170  Biso   1.000  H
  H38      1.0000 0.67620  0.71460  0.79630  Biso   1.000  H
  H39      1.0000 0.42200  0.06860  0.59660  Biso   1.000  H
  H40      1.0000 0.42210  0.18120  0.59660  Biso   1.000  H
  O31      1.0000 0.00580  0.33520  0.65700  Biso   1.000  O
  O32      1.0000 0.24300  0.33340  0.67960  Biso   1.000  O
  O33      1.0000 0.00310  0.45740  0.61370  Biso   1.000  O
  C61      1.0000 0.10200  0.31980  0.68270  Biso   1.000  C
  C62      1.0000 0.04990  0.28450  0.71720  Biso   1.000  C
  C63      1.0000 0.15440  0.26360  0.74490  Biso   1.000  C
  C64      1.0000 0.10390  0.22910  0.77740  Biso   1.000  C
  C65      1.0000 0.99960  0.59130  0.61040  Biso   1.000  C
  C66      1.0000 0.99970  0.65860  0.61040  Biso   1.000  C
  H41      1.0000 0.26030  0.27270  0.74170  Biso   1.000  H
  H42      1.0000 0.17620  0.21460  0.79630  Biso   1.000  H
  H43      1.0000 0.92200  0.56860  0.59660  Biso   1.000  H
  H44      1.0000 0.92210  0.68120  0.59660  Biso   1.000  H
  O34      1.0000 0.00580  0.83520  0.15700  Biso   1.000  O
  O35      1.0000 0.24300  0.83340  0.17960  Biso   1.000  O
  O36      1.0000 0.00310  0.95740  0.11370  Biso   1.000  O
  C67      1.0000 0.10200  0.81980  0.18270  Biso   1.000  C
  C68      1.0000 0.04990  0.78450  0.21720  Biso   1.000  C
  C69      1.0000 0.15440  0.76360  0.24490  Biso   1.000  C
  C70      1.0000 0.10390  0.72910  0.27740  Biso   1.000  C
  C71      1.0000 0.99960  0.09130  0.11040  Biso   1.000  C
  C72      1.0000 0.99970  0.15860  0.11040  Biso   1.000  C
  H45      1.0000 0.26030  0.77270  0.24170  Biso   1.000  H
  H46      1.0000 0.17620  0.71460  0.29630  Biso   1.000  H
  H47      1.0000 0.92200  0.06860  0.09660  Biso   1.000  H
  H48      1.0000 0.92210  0.18120  0.09660  Biso   1.000  H
  O37      1.0000 0.24420  0.41480  0.15700  Biso   1.000  O
  O38      1.0000 0.00700  0.41660  0.17960  Biso   1.000  O
  O39      1.0000 0.24690  0.29260  0.11370  Biso   1.000  O
  C73      1.0000 0.14800  0.43020  0.18270  Biso   1.000  C
  C74      1.0000 0.20010  0.46550  0.21720  Biso   1.000  C
  C75      1.0000 0.09560  0.48640  0.24490  Biso   1.000  C
  C76      1.0000 0.14610  0.52090  0.27740  Biso   1.000  C
  C77      1.0000 0.25040  0.15870  0.11040  Biso   1.000  C
  C78      1.0000 0.25030  0.09140  0.11040  Biso   1.000  C
  H49      1.0000 0.98970  0.47730  0.24170  Biso   1.000  H
  H50      1.0000 0.07380  0.53540  0.29630  Biso   1.000  H
  H51      1.0000 0.32800  0.18140  0.09660  Biso   1.000  H
  H52      1.0000 0.32790  0.06880  0.09660  Biso   1.000  H
  O40      1.0000 0.24420  0.91480  0.65700  Biso   1.000  O
  O41      1.0000 0.00700  0.91660  0.67960  Biso   1.000  O
  O42      1.0000 0.24690  0.79260  0.61370  Biso   1.000  O
  C79      1.0000 0.14800  0.93020  0.68270  Biso   1.000  C
  C80      1.0000 0.20010  0.96550  0.71720  Biso   1.000  C
  C81      1.0000 0.09560  0.98640  0.74490  Biso   1.000  C
  C82      1.0000 0.14610  0.02090  0.77740  Biso   1.000  C
  C83      1.0000 0.25040  0.65870  0.61040  Biso   1.000  C
  C84      1.0000 0.25030  0.59140  0.61040  Biso   1.000  C
  H53      1.0000 0.98970  0.97730  0.74170  Biso   1.000  H
  H54      1.0000 0.07380  0.03540  0.79630  Biso   1.000  H
  H55      1.0000 0.32800  0.68140  0.59660  Biso   1.000  H
  H56      1.0000 0.32790  0.56880  0.59660  Biso   1.000  H
  O43      1.0000 0.74420  0.41480  0.65700  Biso   1.000  O
  O44      1.0000 0.50700  0.41660  0.67960  Biso   1.000  O
  O45      1.0000 0.74690  0.29260  0.61370  Biso   1.000  O
  C85      1.0000 0.64800  0.43020  0.68270  Biso   1.000  C
  C86      1.0000 0.70010  0.46550  0.71720  Biso   1.000  C
  C87      1.0000 0.59560  0.48640  0.74490  Biso   1.000  C
  C88      1.0000 0.64610  0.52090  0.77740  Biso   1.000  C
  C89      1.0000 0.75040  0.15870  0.61040  Biso   1.000  C
  C90      1.0000 0.75030  0.09140  0.61040  Biso   1.000  C
  H57      1.0000 0.48970  0.47730  0.74170  Biso   1.000  H
  H58      1.0000 0.57380  0.53540  0.79630  Biso   1.000  H
  H59      1.0000 0.82800  0.18140  0.59660  Biso   1.000  H
  H60      1.0000 0.82790  0.06880  0.59660  Biso   1.000  H
  O46      1.0000 0.74420  0.91480  0.15700  Biso   1.000  O
  O47      1.0000 0.50700  0.91660  0.17960  Biso   1.000  O
  O48      1.0000 0.74690  0.79260  0.11370  Biso   1.000  O
  C91      1.0000 0.64800  0.93020  0.18270  Biso   1.000  C
  C92      1.0000 0.70010  0.96550  0.21720  Biso   1.000  C
  C93      1.0000 0.59560  0.98640  0.24490  Biso   1.000  C
  C94      1.0000 0.64610  0.02090  0.27740  Biso   1.000  C
  C95      1.0000 0.75040  0.65870  0.11040  Biso   1.000  C
  C96      1.0000 0.75030  0.59140  0.11040  Biso   1.000  C
  H61      1.0000 0.48970  0.97730  0.24170  Biso   1.000  H
  H62      1.0000 0.57380  0.03540  0.29630  Biso   1.000  H
  H63      1.0000 0.82800  0.68140  0.09660  Biso   1.000  H
  H64      1.0000 0.82790  0.56880  0.09660  Biso   1.000  H
  O49      1.0000 0.75580  0.66480  0.40700  Biso   1.000  O
  O50      1.0000 0.99300  0.66660  0.42960  Biso   1.000  O
  O51      1.0000 0.75310  0.54260  0.36370  Biso   1.000  O
  C97      1.0000 0.85200  0.68020  0.43270  Biso   1.000  C
  C98      1.0000 0.79990  0.71550  0.46720  Biso   1.000  C
  C99      1.0000 0.90440  0.73640  0.49490  Biso   1.000  C
  C100     1.0000 0.85390  0.77090  0.52740  Biso   1.000  C
  C101     1.0000 0.74960  0.40870  0.36040  Biso   1.000  C
  C102     1.0000 0.74970  0.34140  0.36040  Biso   1.000  C
  H65      1.0000 0.01030  0.72730  0.49170  Biso   1.000  H
  H66      1.0000 0.92620  0.78540  0.54630  Biso   1.000  H
  H67      1.0000 0.67200  0.43140  0.34660  Biso   1.000  H
  H68      1.0000 0.67210  0.31880  0.34660  Biso   1.000  H
  O52      1.0000 0.75580  0.16480  0.90700  Biso   1.000  O
  O53      1.0000 0.99300  0.16660  0.92960  Biso   1.000  O
  O54      1.0000 0.75310  0.04260  0.86370  Biso   1.000  O
  C103     1.0000 0.85200  0.18020  0.93270  Biso   1.000  C
  C104     1.0000 0.79990  0.21550  0.96720  Biso   1.000  C
  C105     1.0000 0.90440  0.23640  0.99490  Biso   1.000  C
  C106     1.0000 0.85390  0.27090  0.02740  Biso   1.000  C
  C107     1.0000 0.74960  0.90870  0.86040  Biso   1.000  C
  C108     1.0000 0.74970  0.84140  0.86040  Biso   1.000  C
  H69      1.0000 0.01030  0.22730  0.99170  Biso   1.000  H
  H70      1.0000 0.92620  0.28540  0.04630  Biso   1.000  H
  H71      1.0000 0.67200  0.93140  0.84660  Biso   1.000  H
  H72      1.0000 0.67210  0.81880  0.84660  Biso   1.000  H
  O55      1.0000 0.25580  0.66480  0.90700  Biso   1.000  O
  O56      1.0000 0.49300  0.66660  0.92960  Biso   1.000  O
  O57      1.0000 0.25310  0.54260  0.86370  Biso   1.000  O
  C109     1.0000 0.35200  0.68020  0.93270  Biso   1.000  C
  C110     1.0000 0.29990  0.71550  0.96720  Biso   1.000  C
  C111     1.0000 0.40440  0.73640  0.99490  Biso   1.000  C
  C112     1.0000 0.35390  0.77090  0.02740  Biso   1.000  C
  C113     1.0000 0.24960  0.40870  0.86040  Biso   1.000  C
  C114     1.0000 0.24970  0.34140  0.86040  Biso   1.000  C
  H73      1.0000 0.51030  0.72730  0.99170  Biso   1.000  H
  H74      1.0000 0.42620  0.78540  0.04630  Biso   1.000  H
  H75      1.0000 0.17200  0.43140  0.84660  Biso   1.000  H
  H76      1.0000 0.17210  0.31880  0.84660  Biso   1.000  H
  O58      1.0000 0.25580  0.16480  0.40700  Biso   1.000  O
  O59      1.0000 0.49300  0.16660  0.42960  Biso   1.000  O
  O60      1.0000 0.25310  0.04260  0.36370  Biso   1.000  O
  C115     1.0000 0.35200  0.18020  0.43270  Biso   1.000  C
  C116     1.0000 0.29990  0.21550  0.46720  Biso   1.000  C
  C117     1.0000 0.40440  0.23640  0.49490  Biso   1.000  C
  C118     1.0000 0.35390  0.27090  0.52740  Biso   1.000  C
  C119     1.0000 0.24960  0.90870  0.36040  Biso   1.000  C
  C120     1.0000 0.24970  0.84140  0.36040  Biso   1.000  C
  H77      1.0000 0.51030  0.22730  0.49170  Biso   1.000  H
  H78      1.0000 0.42620  0.28540  0.54630  Biso   1.000  H
  H79      1.0000 0.17200  0.93140  0.34660  Biso   1.000  H
  H80      1.0000 0.17210  0.81880  0.34660  Biso   1.000  H
  O61      1.0000 0.49420  0.58520  0.40700  Biso   1.000  O
  O62      1.0000 0.25700  0.58340  0.42960  Biso   1.000  O
  O63      1.0000 0.49690  0.70740  0.36370  Biso   1.000  O
  C121     1.0000 0.39800  0.56980  0.43270  Biso   1.000  C
  C122     1.0000 0.45010  0.53450  0.46720  Biso   1.000  C
  C123     1.0000 0.34560  0.51360  0.49490  Biso   1.000  C
  C124     1.0000 0.39610  0.47910  0.52740  Biso   1.000  C
  C125     1.0000 0.50040  0.84130  0.36040  Biso   1.000  C
  C126     1.0000 0.50030  0.90860  0.36040  Biso   1.000  C
  H81      1.0000 0.23970  0.52270  0.49170  Biso   1.000  H
  H82      1.0000 0.32380  0.46460  0.54630  Biso   1.000  H
  H83      1.0000 0.57800  0.81860  0.34660  Biso   1.000  H
  H84      1.0000 0.57790  0.93120  0.34660  Biso   1.000  H
  O64      1.0000 0.49420  0.08520  0.90700  Biso   1.000  O
  O65      1.0000 0.25700  0.08340  0.92960  Biso   1.000  O
  O66      1.0000 0.49690  0.20740  0.86370  Biso   1.000  O
  C127     1.0000 0.39800  0.06980  0.93270  Biso   1.000  C
  C128     1.0000 0.45010  0.03450  0.96720  Biso   1.000  C
  C129     1.0000 0.34560  0.01360  0.99490  Biso   1.000  C
  C130     1.0000 0.39610  0.97910  0.02740  Biso   1.000  C
  C131     1.0000 0.50040  0.34130  0.86040  Biso   1.000  C
  C132     1.0000 0.50030  0.40860  0.86040  Biso   1.000  C
  H85      1.0000 0.23970  0.02270  0.99170  Biso   1.000  H
  H86      1.0000 0.32380  0.96460  0.04630  Biso   1.000  H
  H87      1.0000 0.57800  0.31860  0.84660  Biso   1.000  H
  H88      1.0000 0.57790  0.43120  0.84660  Biso   1.000  H
  O67      1.0000 0.99420  0.58520  0.90700  Biso   1.000  O
  O68      1.0000 0.75700  0.58340  0.92960  Biso   1.000  O
  O69      1.0000 0.99690  0.70740  0.86370  Biso   1.000  O
  C133     1.0000 0.89800  0.56980  0.93270  Biso   1.000  C
  C134     1.0000 0.95010  0.53450  0.96720  Biso   1.000  C
  C135     1.0000 0.84560  0.51360  0.99490  Biso   1.000  C
  C136     1.0000 0.89610  0.47910  0.02740  Biso   1.000  C
  C137     1.0000 0.00040  0.84130  0.86040  Biso   1.000  C
  C138     1.0000 0.00030  0.90860  0.86040  Biso   1.000  C
  H89      1.0000 0.73970  0.52270  0.99170  Biso   1.000  H
  H90      1.0000 0.82380  0.46460  0.04630  Biso   1.000  H
  H91      1.0000 0.07800  0.81860  0.84660  Biso   1.000  H
  H92      1.0000 0.07790  0.93120  0.84660  Biso   1.000  H
  O70      1.0000 0.99420  0.08520  0.40700  Biso   1.000  O
  O71      1.0000 0.75700  0.08340  0.42960  Biso   1.000  O
  O72      1.0000 0.99690  0.20740  0.36370  Biso   1.000  O
  C139     1.0000 0.89800  0.06980  0.43270  Biso   1.000  C
  C140     1.0000 0.95010  0.03450  0.46720  Biso   1.000  C
  C141     1.0000 0.84560  0.01360  0.49490  Biso   1.000  C
  C142     1.0000 0.89610  0.97910  0.52740  Biso   1.000  C
  C143     1.0000 0.00040  0.34130  0.36040  Biso   1.000  C
  C144     1.0000 0.00030  0.40860  0.36040  Biso   1.000  C
  H93      1.0000 0.73970  0.02270  0.49170  Biso   1.000  H
  H94      1.0000 0.82380  0.96460  0.54630  Biso   1.000  H
  H95      1.0000 0.07800  0.31860  0.34660  Biso   1.000  H
  H96      1.0000 0.07790  0.43120  0.34660  Biso   1.000  H
  O73      1.0000 0.49420  0.66480  0.84300  Biso   1.000  O
  O74      1.0000 0.25700  0.66660  0.82040  Biso   1.000  O
  O75      1.0000 0.49690  0.54260  0.88630  Biso   1.000  O
  C145     1.0000 0.39800  0.68020  0.81730  Biso   1.000  C
  C146     1.0000 0.45010  0.71550  0.78280  Biso   1.000  C
  C147     1.0000 0.34560  0.73640  0.75510  Biso   1.000  C
  C148     1.0000 0.39610  0.77090  0.72260  Biso   1.000  C
  C149     1.0000 0.50040  0.40870  0.88960  Biso   1.000  C
  C150     1.0000 0.50030  0.34140  0.88960  Biso   1.000  C
  H97      1.0000 0.23970  0.72730  0.75830  Biso   1.000  H
  H98      1.0000 0.32380  0.78540  0.70370  Biso   1.000  H
  H99      1.0000 0.57800  0.43140  0.90340  Biso   1.000  H
  H100     1.0000 0.57790  0.31880  0.90340  Biso   1.000  H
  O76      1.0000 0.49420  0.16480  0.34300  Biso   1.000  O
  O77      1.0000 0.25700  0.16660  0.32040  Biso   1.000  O
  O78      1.0000 0.49690  0.04260  0.38630  Biso   1.000  O
  C151     1.0000 0.39800  0.18020  0.31730  Biso   1.000  C
  C152     1.0000 0.45010  0.21550  0.28280  Biso   1.000  C
  C153     1.0000 0.34560  0.23640  0.25510  Biso   1.000  C
  C154     1.0000 0.39610  0.27090  0.22260  Biso   1.000  C
  C155     1.0000 0.50040  0.90870  0.38960  Biso   1.000  C
  C156     1.0000 0.50030  0.84140  0.38960  Biso   1.000  C
  H101     1.0000 0.23970  0.22730  0.25830  Biso   1.000  H
  H102     1.0000 0.32380  0.28540  0.20370  Biso   1.000  H
  H103     1.0000 0.57800  0.93140  0.40340  Biso   1.000  H
  H104     1.0000 0.57790  0.81880  0.40340  Biso   1.000  H
  O79      1.0000 0.99420  0.66480  0.34300  Biso   1.000  O
  O80      1.0000 0.75700  0.66660  0.32040  Biso   1.000  O
  O81      1.0000 0.99690  0.54260  0.38630  Biso   1.000  O
  C157     1.0000 0.89800  0.68020  0.31730  Biso   1.000  C
  C158     1.0000 0.95010  0.71550  0.28280  Biso   1.000  C
  C159     1.0000 0.84560  0.73640  0.25510  Biso   1.000  C
  C160     1.0000 0.89610  0.77090  0.22260  Biso   1.000  C
  C161     1.0000 0.00040  0.40870  0.38960  Biso   1.000  C
  C162     1.0000 0.00030  0.34140  0.38960  Biso   1.000  C
  H105     1.0000 0.73970  0.72730  0.25830  Biso   1.000  H
  H106     1.0000 0.82380  0.78540  0.20370  Biso   1.000  H
  H107     1.0000 0.07800  0.43140  0.40340  Biso   1.000  H
  H108     1.0000 0.07790  0.31880  0.40340  Biso   1.000  H
  O82      1.0000 0.99420  0.16480  0.84300  Biso   1.000  O
  O83      1.0000 0.75700  0.16660  0.82040  Biso   1.000  O
  O84      1.0000 0.99690  0.04260  0.88630  Biso   1.000  O
  C163     1.0000 0.89800  0.18020  0.81730  Biso   1.000  C
  C164     1.0000 0.95010  0.21550  0.78280  Biso   1.000  C
  C165     1.0000 0.84560  0.23640  0.75510  Biso   1.000  C
  C166     1.0000 0.89610  0.27090  0.72260  Biso   1.000  C
  C167     1.0000 0.00040  0.90870  0.88960  Biso   1.000  C
  C168     1.0000 0.00030  0.84140  0.88960  Biso   1.000  C
  H109     1.0000 0.73970  0.22730  0.75830  Biso   1.000  H
  H110     1.0000 0.82380  0.28540  0.70370  Biso   1.000  H
  H111     1.0000 0.07800  0.93140  0.90340  Biso   1.000  H
  H112     1.0000 0.07790  0.81880  0.90340  Biso   1.000  H
  O85      1.0000 0.75580  0.58520  0.84300  Biso   1.000  O
  O86      1.0000 0.99300  0.58340  0.82040  Biso   1.000  O
  O87      1.0000 0.75310  0.70740  0.88630  Biso   1.000  O
  C169     1.0000 0.85200  0.56980  0.81730  Biso   1.000  C
  C170     1.0000 0.79990  0.53450  0.78280  Biso   1.000  C
  C171     1.0000 0.90440  0.51360  0.75510  Biso   1.000  C
  C172     1.0000 0.85390  0.47910  0.72260  Biso   1.000  C
  C173     1.0000 0.74960  0.84130  0.88960  Biso   1.000  C
  C174     1.0000 0.74970  0.90860  0.88960  Biso   1.000  C
  H113     1.0000 0.01030  0.52270  0.75830  Biso   1.000  H
  H114     1.0000 0.92620  0.46460  0.70370  Biso   1.000  H
  H115     1.0000 0.67200  0.81860  0.90340  Biso   1.000  H
  H116     1.0000 0.67210  0.93120  0.90340  Biso   1.000  H
  O88      1.0000 0.75580  0.08520  0.34300  Biso   1.000  O
  O89      1.0000 0.99300  0.08340  0.32040  Biso   1.000  O
  O90      1.0000 0.75310  0.20740  0.38630  Biso   1.000  O
  C175     1.0000 0.85200  0.06980  0.31730  Biso   1.000  C
  C176     1.0000 0.79990  0.03450  0.28280  Biso   1.000  C
  C177     1.0000 0.90440  0.01360  0.25510  Biso   1.000  C
  C178     1.0000 0.85390  0.97910  0.22260  Biso   1.000  C
  C179     1.0000 0.74960  0.34130  0.38960  Biso   1.000  C
  C180     1.0000 0.74970  0.40860  0.38960  Biso   1.000  C
  H117     1.0000 0.01030  0.02270  0.25830  Biso   1.000  H
  H118     1.0000 0.92620  0.96460  0.20370  Biso   1.000  H
  H119     1.0000 0.67200  0.31860  0.40340  Biso   1.000  H
  H120     1.0000 0.67210  0.43120  0.40340  Biso   1.000  H
  O91      1.0000 0.25580  0.58520  0.34300  Biso   1.000  O
  O92      1.0000 0.49300  0.58340  0.32040  Biso   1.000  O
  O93      1.0000 0.25310  0.70740  0.38630  Biso   1.000  O
  C181     1.0000 0.35200  0.56980  0.31730  Biso   1.000  C
  C182     1.0000 0.29990  0.53450  0.28280  Biso   1.000  C
  C183     1.0000 0.40440  0.51360  0.25510  Biso   1.000  C
  C184     1.0000 0.35390  0.47910  0.22260  Biso   1.000  C
  C185     1.0000 0.24960  0.84130  0.38960  Biso   1.000  C
  C186     1.0000 0.24970  0.90860  0.38960  Biso   1.000  C
  H121     1.0000 0.51030  0.52270  0.25830  Biso   1.000  H
  H122     1.0000 0.42620  0.46460  0.20370  Biso   1.000  H
  H123     1.0000 0.17200  0.81860  0.40340  Biso   1.000  H
  H124     1.0000 0.17210  0.93120  0.40340  Biso   1.000  H
  O94      1.0000 0.25580  0.08520  0.84300  Biso   1.000  O
  O95      1.0000 0.49300  0.08340  0.82040  Biso   1.000  O
  O96      1.0000 0.25310  0.20740  0.88630  Biso   1.000  O
  C187     1.0000 0.35200  0.06980  0.81730  Biso   1.000  C
  C188     1.0000 0.29990  0.03450  0.78280  Biso   1.000  C
  C189     1.0000 0.40440  0.01360  0.75510  Biso   1.000  C
  C190     1.0000 0.35390  0.97910  0.72260  Biso   1.000  C
  C191     1.0000 0.24960  0.34130  0.88960  Biso   1.000  C
  C192     1.0000 0.24970  0.40860  0.88960  Biso   1.000  C
  H125     1.0000 0.51030  0.02270  0.75830  Biso   1.000  H
  H126     1.0000 0.42620  0.96460  0.70370  Biso   1.000  H
  H127     1.0000 0.17200  0.31860  0.90340  Biso   1.000  H
  H128     1.0000 0.17210  0.43120  0.90340  Biso   1.000  H
  Sc1      1.0000 0.37500  0.37500  0.63578  Biso   1.000  Sc
  Sc2      1.0000 0.37500  0.87500  0.13578  Biso   1.000  Sc
  Sc3      1.0000 0.87500  0.37500  0.13578  Biso   1.000  Sc
  Sc4      1.0000 0.87500  0.87500  0.63578  Biso   1.000  Sc
  Sc5      1.0000 0.37500  0.37500  0.11422  Biso   1.000  Sc
  Sc6      1.0000 0.37500  0.87500  0.61422  Biso   1.000  Sc
  Sc7      1.0000 0.87500  0.37500  0.61422  Biso   1.000  Sc
  Sc8      1.0000 0.87500  0.87500  0.11422  Biso   1.000  Sc
  Sc9      1.0000 0.62500  0.62500  0.36422  Biso   1.000  Sc
  Sc10     1.0000 0.62500  0.12500  0.86422  Biso   1.000  Sc
  Sc11     1.0000 0.12500  0.62500  0.86422  Biso   1.000  Sc
  Sc12     1.0000 0.12500  0.12500  0.36422  Biso   1.000  Sc
  Sc13     1.0000 0.62500  0.62500  0.88578  Biso   1.000  Sc
  Sc14     1.0000 0.62500  0.12500  0.38578  Biso   1.000  Sc
  Sc15     1.0000 0.12500  0.62500  0.38578  Biso   1.000  Sc
  Sc16     1.0000 0.12500  0.12500  0.88578  Biso   1.000  Sc
  C193     1.0000 0.12500  0.48330  0.62500  Biso   1.000  C
  C194     1.0000 0.12500  0.55780  0.62500  Biso   1.000  C
  C195     1.0000 0.12500  0.98330  0.12500  Biso   1.000  C
  C196     1.0000 0.12500  0.05780  0.12500  Biso   1.000  C
  C197     1.0000 0.62500  0.98330  0.62500  Biso   1.000  C
  C198     1.0000 0.62500  0.05780  0.62500  Biso   1.000  C
  C199     1.0000 0.62500  0.26670  0.62500  Biso   1.000  C
  C200     1.0000 0.62500  0.19220  0.62500  Biso   1.000  C
  C201     1.0000 0.62500  0.76670  0.12500  Biso   1.000  C
  C202     1.0000 0.62500  0.69220  0.12500  Biso   1.000  C
  C203     1.0000 0.62500  0.48330  0.12500  Biso   1.000  C
  C204     1.0000 0.62500  0.55780  0.12500  Biso   1.000  C
  C205     1.0000 0.12500  0.26670  0.12500  Biso   1.000  C
  C206     1.0000 0.12500  0.19220  0.12500  Biso   1.000  C
  C207     1.0000 0.12500  0.76670  0.62500  Biso   1.000  C
  C208     1.0000 0.12500  0.69220  0.62500  Biso   1.000  C
  C209     1.0000 0.87500  0.51670  0.37500  Biso   1.000  C
  C210     1.0000 0.87500  0.44220  0.37500  Biso   1.000  C
  C211     1.0000 0.87500  0.01670  0.87500  Biso   1.000  C
  C212     1.0000 0.87500  0.94220  0.87500  Biso   1.000  C
  C213     1.0000 0.37500  0.73330  0.37500  Biso   1.000  C
  C214     1.0000 0.37500  0.80780  0.37500  Biso   1.000  C
  C215     1.0000 0.37500  0.23330  0.87500  Biso   1.000  C
  C216     1.0000 0.37500  0.30780  0.87500  Biso   1.000  C
  C217     1.0000 0.37500  0.51670  0.87500  Biso   1.000  C
  C218     1.0000 0.37500  0.44220  0.87500  Biso   1.000  C
  C219     1.0000 0.37500  0.01670  0.37500  Biso   1.000  C
  C220     1.0000 0.37500  0.94220  0.37500  Biso   1.000  C
  C221     1.0000 0.87500  0.73330  0.87500  Biso   1.000  C
  C222     1.0000 0.87500  0.80780  0.87500  Biso   1.000  C
  C223     1.0000 0.87500  0.23330  0.37500  Biso   1.000  C
  C224     1.0000 0.87500  0.30780  0.37500  Biso   1.000  C
