data_image0
_cell_length_a       8.6945
_cell_length_b       20.808
_cell_length_c       34.079
_cell_angle_alpha    90
_cell_angle_beta     90
_cell_angle_gamma    90

_symmetry_space_group_name_H-M    "P 1"
_symmetry_int_tables_number       1

loop_
  _symmetry_equiv_pos_as_xyz
  'x, y, z'

loop_
  _atom_site_label
  _atom_site_occupancy
  _atom_site_fract_x
  _atom_site_fract_y
  _atom_site_fract_z
  _atom_site_thermal_displace_type
  _atom_site_B_iso_or_equiv
  _atom_site_type_symbol
  O1       1.0000 0.24710  0.33360  0.59275  Biso   1.000  O
  O2       1.0000 0.00980  0.33310  0.57062  Biso   1.000  O
  O3       1.0000 0.24100  0.45810  0.63600  Biso   1.000  O
  C1       1.0000 0.14950  0.32010  0.56770  Biso   1.000  C
  C2       1.0000 0.20110  0.28410  0.53210  Biso   1.000  C
  C3       1.0000 0.09930  0.26530  0.50440  Biso   1.000  C
  C4       1.0000 0.15100  0.23160  0.47150  Biso   1.000  C
  C5       1.0000 0.22230  0.59020  0.64980  Biso   1.000  C
  C6       1.0000 0.21960  0.65700  0.64920  Biso   1.000  C
  H1       1.0000 0.99450  0.27520  0.50770  Biso   1.000  H
  H2       1.0000 0.07860  0.21940  0.45170  Biso   1.000  H
  H3       1.0000 0.29280  0.56780  0.66630  Biso   1.000  H
  H4       1.0000 0.29050  0.67940  0.66570  Biso   1.000  H
  O4       1.0000 0.24710  0.83360  0.09275  Biso   1.000  O
  O5       1.0000 0.00980  0.83310  0.07062  Biso   1.000  O
  O6       1.0000 0.24100  0.95810  0.13600  Biso   1.000  O
  C7       1.0000 0.14950  0.82010  0.06770  Biso   1.000  C
  C8       1.0000 0.20110  0.78410  0.03210  Biso   1.000  C
  C9       1.0000 0.09930  0.76530  0.00440  Biso   1.000  C
  C10      1.0000 0.15100  0.73160  0.97150  Biso   1.000  C
  C11      1.0000 0.22230  0.09020  0.14980  Biso   1.000  C
  C12      1.0000 0.21960  0.15700  0.14920  Biso   1.000  C
  H5       1.0000 0.99450  0.77520  0.00770  Biso   1.000  H
  H6       1.0000 0.07860  0.71940  0.95170  Biso   1.000  H
  H7       1.0000 0.29280  0.06780  0.16630  Biso   1.000  H
  H8       1.0000 0.29050  0.17940  0.16570  Biso   1.000  H
  O7       1.0000 0.74710  0.33360  0.09275  Biso   1.000  O
  O8       1.0000 0.50980  0.33310  0.07062  Biso   1.000  O
  O9       1.0000 0.74100  0.45810  0.13600  Biso   1.000  O
  C13      1.0000 0.64950  0.32010  0.06770  Biso   1.000  C
  C14      1.0000 0.70110  0.28410  0.03210  Biso   1.000  C
  C15      1.0000 0.59930  0.26530  0.00440  Biso   1.000  C
  C16      1.0000 0.65100  0.23160  0.97150  Biso   1.000  C
  C17      1.0000 0.72230  0.59020  0.14980  Biso   1.000  C
  C18      1.0000 0.71960  0.65700  0.14920  Biso   1.000  C
  H9       1.0000 0.49450  0.27520  0.00770  Biso   1.000  H
  H10      1.0000 0.57860  0.21940  0.95170  Biso   1.000  H
  H11      1.0000 0.79280  0.56780  0.16630  Biso   1.000  H
  H12      1.0000 0.79050  0.67940  0.16570  Biso   1.000  H
  O10      1.0000 0.74710  0.83360  0.59275  Biso   1.000  O
  O11      1.0000 0.50980  0.83310  0.57062  Biso   1.000  O
  O12      1.0000 0.74100  0.95810  0.63600  Biso   1.000  O
  C19      1.0000 0.64950  0.82010  0.56770  Biso   1.000  C
  C20      1.0000 0.70110  0.78410  0.53210  Biso   1.000  C
  C21      1.0000 0.59930  0.76530  0.50440  Biso   1.000  C
  C22      1.0000 0.65100  0.73160  0.47150  Biso   1.000  C
  C23      1.0000 0.72230  0.09020  0.64980  Biso   1.000  C
  C24      1.0000 0.71960  0.15700  0.64920  Biso   1.000  C
  H13      1.0000 0.49450  0.77520  0.50770  Biso   1.000  H
  H14      1.0000 0.57860  0.71940  0.45170  Biso   1.000  H
  H15      1.0000 0.79280  0.06780  0.66630  Biso   1.000  H
  H16      1.0000 0.79050  0.17940  0.66570  Biso   1.000  H
  O13      1.0000 0.50290  0.41640  0.59275  Biso   1.000  O
  O14      1.0000 0.74020  0.41690  0.57062  Biso   1.000  O
  O15      1.0000 0.50900  0.29190  0.63600  Biso   1.000  O
  C25      1.0000 0.60050  0.42990  0.56770  Biso   1.000  C
  C26      1.0000 0.54890  0.46590  0.53210  Biso   1.000  C
  C27      1.0000 0.65070  0.48470  0.50440  Biso   1.000  C
  C28      1.0000 0.59900  0.51840  0.47150  Biso   1.000  C
  C29      1.0000 0.52770  0.15980  0.64980  Biso   1.000  C
  C30      1.0000 0.53040  0.09300  0.64920  Biso   1.000  C
  H17      1.0000 0.75550  0.47480  0.50770  Biso   1.000  H
  H18      1.0000 0.67140  0.53060  0.45170  Biso   1.000  H
  H19      1.0000 0.45720  0.18220  0.66630  Biso   1.000  H
  H20      1.0000 0.45950  0.07060  0.66570  Biso   1.000  H
  O16      1.0000 0.50290  0.91640  0.09275  Biso   1.000  O
  O17      1.0000 0.74020  0.91690  0.07062  Biso   1.000  O
  O18      1.0000 0.50900  0.79190  0.13600  Biso   1.000  O
  C31      1.0000 0.60050  0.92990  0.06770  Biso   1.000  C
  C32      1.0000 0.54890  0.96590  0.03210  Biso   1.000  C
  C33      1.0000 0.65070  0.98470  0.00440  Biso   1.000  C
  C34      1.0000 0.59900  0.01840  0.97150  Biso   1.000  C
  C35      1.0000 0.52770  0.65980  0.14980  Biso   1.000  C
  C36      1.0000 0.53040  0.59300  0.14920  Biso   1.000  C
  H21      1.0000 0.75550  0.97480  0.00770  Biso   1.000  H
  H22      1.0000 0.67140  0.03060  0.95170  Biso   1.000  H
  H23      1.0000 0.45720  0.68220  0.16630  Biso   1.000  H
  H24      1.0000 0.45950  0.57060  0.16570  Biso   1.000  H
  O19      1.0000 0.00290  0.41640  0.09275  Biso   1.000  O
  O20      1.0000 0.24020  0.41690  0.07062  Biso   1.000  O
  O21      1.0000 0.00900  0.29190  0.13600  Biso   1.000  O
  C37      1.0000 0.10050  0.42990  0.06770  Biso   1.000  C
  C38      1.0000 0.04890  0.46590  0.03210  Biso   1.000  C
  C39      1.0000 0.15070  0.48470  0.00440  Biso   1.000  C
  C40      1.0000 0.09900  0.51840  0.97150  Biso   1.000  C
  C41      1.0000 0.02770  0.15980  0.14980  Biso   1.000  C
  C42      1.0000 0.03040  0.09300  0.14920  Biso   1.000  C
  H25      1.0000 0.25550  0.47480  0.00770  Biso   1.000  H
  H26      1.0000 0.17140  0.53060  0.95170  Biso   1.000  H
  H27      1.0000 0.95720  0.18220  0.16630  Biso   1.000  H
  H28      1.0000 0.95950  0.07060  0.16570  Biso   1.000  H
  O22      1.0000 0.00290  0.91640  0.59275  Biso   1.000  O
  O23      1.0000 0.24020  0.91690  0.57062  Biso   1.000  O
  O24      1.0000 0.00900  0.79190  0.63600  Biso   1.000  O
  C43      1.0000 0.10050  0.92990  0.56770  Biso   1.000  C
  C44      1.0000 0.04890  0.96590  0.53210  Biso   1.000  C
  C45      1.0000 0.15070  0.98470  0.50440  Biso   1.000  C
  C46      1.0000 0.09900  0.01840  0.47150  Biso   1.000  C
  C47      1.0000 0.02770  0.65980  0.64980  Biso   1.000  C
  C48      1.0000 0.03040  0.59300  0.64920  Biso   1.000  C
  H29      1.0000 0.25550  0.97480  0.50770  Biso   1.000  H
  H30      1.0000 0.17140  0.03060  0.45170  Biso   1.000  H
  H31      1.0000 0.95720  0.68220  0.66630  Biso   1.000  H
  H32      1.0000 0.95950  0.57060  0.66570  Biso   1.000  H
  O25      1.0000 0.50290  0.33360  0.15725  Biso   1.000  O
  O26      1.0000 0.74020  0.33310  0.17938  Biso   1.000  O
  O27      1.0000 0.50900  0.45810  0.11400  Biso   1.000  O
  C49      1.0000 0.60050  0.32010  0.18230  Biso   1.000  C
  C50      1.0000 0.54890  0.28410  0.21790  Biso   1.000  C
  C51      1.0000 0.65070  0.26530  0.24560  Biso   1.000  C
  C52      1.0000 0.59900  0.23160  0.27850  Biso   1.000  C
  C53      1.0000 0.52770  0.59020  0.10020  Biso   1.000  C
  C54      1.0000 0.53040  0.65700  0.10080  Biso   1.000  C
  H33      1.0000 0.75550  0.27520  0.24230  Biso   1.000  H
  H34      1.0000 0.67140  0.21940  0.29830  Biso   1.000  H
  H35      1.0000 0.45720  0.56780  0.08370  Biso   1.000  H
  H36      1.0000 0.45950  0.67940  0.08430  Biso   1.000  H
  O28      1.0000 0.50290  0.83360  0.65725  Biso   1.000  O
  O29      1.0000 0.74020  0.83310  0.67938  Biso   1.000  O
  O30      1.0000 0.50900  0.95810  0.61400  Biso   1.000  O
  C55      1.0000 0.60050  0.82010  0.68230  Biso   1.000  C
  C56      1.0000 0.54890  0.78410  0.71790  Biso   1.000  C
  C57      1.0000 0.65070  0.76530  0.74560  Biso   1.000  C
  C58      1.0000 0.59900  0.73160  0.77850  Biso   1.000  C
  C59      1.0000 0.52770  0.09020  0.60020  Biso   1.000  C
  C60      1.0000 0.53040  0.15700  0.60080  Biso   1.000  C
  H37      1.0000 0.75550  0.77520  0.74230  Biso   1.000  H
  H38      1.0000 0.67140  0.71940  0.79830  Biso   1.000  H
  H39      1.0000 0.45720  0.06780  0.58370  Biso   1.000  H
  H40      1.0000 0.45950  0.17940  0.58430  Biso   1.000  H
  O31      1.0000 0.00290  0.33360  0.65725  Biso   1.000  O
  O32      1.0000 0.24020  0.33310  0.67938  Biso   1.000  O
  O33      1.0000 0.00900  0.45810  0.61400  Biso   1.000  O
  C61      1.0000 0.10050  0.32010  0.68230  Biso   1.000  C
  C62      1.0000 0.04890  0.28410  0.71790  Biso   1.000  C
  C63      1.0000 0.15070  0.26530  0.74560  Biso   1.000  C
  C64      1.0000 0.09900  0.23160  0.77850  Biso   1.000  C
  C65      1.0000 0.02770  0.59020  0.60020  Biso   1.000  C
  C66      1.0000 0.03040  0.65700  0.60080  Biso   1.000  C
  H41      1.0000 0.25550  0.27520  0.74230  Biso   1.000  H
  H42      1.0000 0.17140  0.21940  0.79830  Biso   1.000  H
  H43      1.0000 0.95720  0.56780  0.58370  Biso   1.000  H
  H44      1.0000 0.95950  0.67940  0.58430  Biso   1.000  H
  O34      1.0000 0.00290  0.83360  0.15725  Biso   1.000  O
  O35      1.0000 0.24020  0.83310  0.17938  Biso   1.000  O
  O36      1.0000 0.00900  0.95810  0.11400  Biso   1.000  O
  C67      1.0000 0.10050  0.82010  0.18230  Biso   1.000  C
  C68      1.0000 0.04890  0.78410  0.21790  Biso   1.000  C
  C69      1.0000 0.15070  0.76530  0.24560  Biso   1.000  C
  C70      1.0000 0.09900  0.73160  0.27850  Biso   1.000  C
  C71      1.0000 0.02770  0.09020  0.10020  Biso   1.000  C
  C72      1.0000 0.03040  0.15700  0.10080  Biso   1.000  C
  H45      1.0000 0.25550  0.77520  0.24230  Biso   1.000  H
  H46      1.0000 0.17140  0.71940  0.29830  Biso   1.000  H
  H47      1.0000 0.95720  0.06780  0.08370  Biso   1.000  H
  H48      1.0000 0.95950  0.17940  0.08430  Biso   1.000  H
  O37      1.0000 0.24710  0.41640  0.15725  Biso   1.000  O
  O38      1.0000 0.00980  0.41690  0.17938  Biso   1.000  O
  O39      1.0000 0.24100  0.29190  0.11400  Biso   1.000  O
  C73      1.0000 0.14950  0.42990  0.18230  Biso   1.000  C
  C74      1.0000 0.20110  0.46590  0.21790  Biso   1.000  C
  C75      1.0000 0.09930  0.48470  0.24560  Biso   1.000  C
  C76      1.0000 0.15100  0.51840  0.27850  Biso   1.000  C
  C77      1.0000 0.22230  0.15980  0.10020  Biso   1.000  C
  C78      1.0000 0.21960  0.09300  0.10080  Biso   1.000  C
  H49      1.0000 0.99450  0.47480  0.24230  Biso   1.000  H
  H50      1.0000 0.07860  0.53060  0.29830  Biso   1.000  H
  H51      1.0000 0.29280  0.18220  0.08370  Biso   1.000  H
  H52      1.0000 0.29050  0.07060  0.08430  Biso   1.000  H
  O40      1.0000 0.24710  0.91640  0.65725  Biso   1.000  O
  O41      1.0000 0.00980  0.91690  0.67938  Biso   1.000  O
  O42      1.0000 0.24100  0.79190  0.61400  Biso   1.000  O
  C79      1.0000 0.14950  0.92990  0.68230  Biso   1.000  C
  C80      1.0000 0.20110  0.96590  0.71790  Biso   1.000  C
  C81      1.0000 0.09930  0.98470  0.74560  Biso   1.000  C
  C82      1.0000 0.15100  0.01840  0.77850  Biso   1.000  C
  C83      1.0000 0.22230  0.65980  0.60020  Biso   1.000  C
  C84      1.0000 0.21960  0.59300  0.60080  Biso   1.000  C
  H53      1.0000 0.99450  0.97480  0.74230  Biso   1.000  H
  H54      1.0000 0.07860  0.03060  0.79830  Biso   1.000  H
  H55      1.0000 0.29280  0.68220  0.58370  Biso   1.000  H
  H56      1.0000 0.29050  0.57060  0.58430  Biso   1.000  H
  O43      1.0000 0.74710  0.41640  0.65725  Biso   1.000  O
  O44      1.0000 0.50980  0.41690  0.67938  Biso   1.000  O
  O45      1.0000 0.74100  0.29190  0.61400  Biso   1.000  O
  C85      1.0000 0.64950  0.42990  0.68230  Biso   1.000  C
  C86      1.0000 0.70110  0.46590  0.71790  Biso   1.000  C
  C87      1.0000 0.59930  0.48470  0.74560  Biso   1.000  C
  C88      1.0000 0.65100  0.51840  0.77850  Biso   1.000  C
  C89      1.0000 0.72230  0.15980  0.60020  Biso   1.000  C
  C90      1.0000 0.71960  0.09300  0.60080  Biso   1.000  C
  H57      1.0000 0.49450  0.47480  0.74230  Biso   1.000  H
  H58      1.0000 0.57860  0.53060  0.79830  Biso   1.000  H
  H59      1.0000 0.79280  0.18220  0.58370  Biso   1.000  H
  H60      1.0000 0.79050  0.07060  0.58430  Biso   1.000  H
  O46      1.0000 0.74710  0.91640  0.15725  Biso   1.000  O
  O47      1.0000 0.50980  0.91690  0.17938  Biso   1.000  O
  O48      1.0000 0.74100  0.79190  0.11400  Biso   1.000  O
  C91      1.0000 0.64950  0.92990  0.18230  Biso   1.000  C
  C92      1.0000 0.70110  0.96590  0.21790  Biso   1.000  C
  C93      1.0000 0.59930  0.98470  0.24560  Biso   1.000  C
  C94      1.0000 0.65100  0.01840  0.27850  Biso   1.000  C
  C95      1.0000 0.72230  0.65980  0.10020  Biso   1.000  C
  C96      1.0000 0.71960  0.59300  0.10080  Biso   1.000  C
  H61      1.0000 0.49450  0.97480  0.24230  Biso   1.000  H
  H62      1.0000 0.57860  0.03060  0.29830  Biso   1.000  H
  H63      1.0000 0.79280  0.68220  0.08370  Biso   1.000  H
  H64      1.0000 0.79050  0.57060  0.08430  Biso   1.000  H
  O49      1.0000 0.75290  0.66640  0.40725  Biso   1.000  O
  O50      1.0000 0.99020  0.66690  0.42938  Biso   1.000  O
  O51      1.0000 0.75900  0.54190  0.36400  Biso   1.000  O
  C97      1.0000 0.85050  0.67990  0.43230  Biso   1.000  C
  C98      1.0000 0.79890  0.71590  0.46790  Biso   1.000  C
  C99      1.0000 0.90070  0.73470  0.49560  Biso   1.000  C
  C100     1.0000 0.84900  0.76840  0.52850  Biso   1.000  C
  C101     1.0000 0.77770  0.40980  0.35020  Biso   1.000  C
  C102     1.0000 0.78040  0.34300  0.35080  Biso   1.000  C
  H65      1.0000 0.00550  0.72480  0.49230  Biso   1.000  H
  H66      1.0000 0.92140  0.78060  0.54830  Biso   1.000  H
  H67      1.0000 0.70720  0.43220  0.33370  Biso   1.000  H
  H68      1.0000 0.70950  0.32060  0.33430  Biso   1.000  H
  O52      1.0000 0.75290  0.16640  0.90725  Biso   1.000  O
  O53      1.0000 0.99020  0.16690  0.92938  Biso   1.000  O
  O54      1.0000 0.75900  0.04190  0.86400  Biso   1.000  O
  C103     1.0000 0.85050  0.17990  0.93230  Biso   1.000  C
  C104     1.0000 0.79890  0.21590  0.96790  Biso   1.000  C
  C105     1.0000 0.90070  0.23470  0.99560  Biso   1.000  C
  C106     1.0000 0.84900  0.26840  0.02850  Biso   1.000  C
  C107     1.0000 0.77770  0.90980  0.85020  Biso   1.000  C
  C108     1.0000 0.78040  0.84300  0.85080  Biso   1.000  C
  H69      1.0000 0.00550  0.22480  0.99230  Biso   1.000  H
  H70      1.0000 0.92140  0.28060  0.04830  Biso   1.000  H
  H71      1.0000 0.70720  0.93220  0.83370  Biso   1.000  H
  H72      1.0000 0.70950  0.82060  0.83430  Biso   1.000  H
  O55      1.0000 0.25290  0.66640  0.90725  Biso   1.000  O
  O56      1.0000 0.49020  0.66690  0.92938  Biso   1.000  O
  O57      1.0000 0.25900  0.54190  0.86400  Biso   1.000  O
  C109     1.0000 0.35050  0.67990  0.93230  Biso   1.000  C
  C110     1.0000 0.29890  0.71590  0.96790  Biso   1.000  C
  C111     1.0000 0.40070  0.73470  0.99560  Biso   1.000  C
  C112     1.0000 0.34900  0.76840  0.02850  Biso   1.000  C
  C113     1.0000 0.27770  0.40980  0.85020  Biso   1.000  C
  C114     1.0000 0.28040  0.34300  0.85080  Biso   1.000  C
  H73      1.0000 0.50550  0.72480  0.99230  Biso   1.000  H
  H74      1.0000 0.42140  0.78060  0.04830  Biso   1.000  H
  H75      1.0000 0.20720  0.43220  0.83370  Biso   1.000  H
  H76      1.0000 0.20950  0.32060  0.83430  Biso   1.000  H
  O58      1.0000 0.25290  0.16640  0.40725  Biso   1.000  O
  O59      1.0000 0.49020  0.16690  0.42938  Biso   1.000  O
  O60      1.0000 0.25900  0.04190  0.36400  Biso   1.000  O
  C115     1.0000 0.35050  0.17990  0.43230  Biso   1.000  C
  C116     1.0000 0.29890  0.21590  0.46790  Biso   1.000  C
  C117     1.0000 0.40070  0.23470  0.49560  Biso   1.000  C
  C118     1.0000 0.34900  0.26840  0.52850  Biso   1.000  C
  C119     1.0000 0.27770  0.90980  0.35020  Biso   1.000  C
  C120     1.0000 0.28040  0.84300  0.35080  Biso   1.000  C
  H77      1.0000 0.50550  0.22480  0.49230  Biso   1.000  H
  H78      1.0000 0.42140  0.28060  0.54830  Biso   1.000  H
  H79      1.0000 0.20720  0.93220  0.33370  Biso   1.000  H
  H80      1.0000 0.20950  0.82060  0.33430  Biso   1.000  H
  O61      1.0000 0.49710  0.58360  0.40725  Biso   1.000  O
  O62      1.0000 0.25980  0.58310  0.42938  Biso   1.000  O
  O63      1.0000 0.49100  0.70810  0.36400  Biso   1.000  O
  C121     1.0000 0.39950  0.57010  0.43230  Biso   1.000  C
  C122     1.0000 0.45110  0.53410  0.46790  Biso   1.000  C
  C123     1.0000 0.34930  0.51530  0.49560  Biso   1.000  C
  C124     1.0000 0.40100  0.48160  0.52850  Biso   1.000  C
  C125     1.0000 0.47230  0.84020  0.35020  Biso   1.000  C
  C126     1.0000 0.46960  0.90700  0.35080  Biso   1.000  C
  H81      1.0000 0.24450  0.52520  0.49230  Biso   1.000  H
  H82      1.0000 0.32860  0.46940  0.54830  Biso   1.000  H
  H83      1.0000 0.54280  0.81780  0.33370  Biso   1.000  H
  H84      1.0000 0.54050  0.92940  0.33430  Biso   1.000  H
  O64      1.0000 0.49710  0.08360  0.90725  Biso   1.000  O
  O65      1.0000 0.25980  0.08310  0.92938  Biso   1.000  O
  O66      1.0000 0.49100  0.20810  0.86400  Biso   1.000  O
  C127     1.0000 0.39950  0.07010  0.93230  Biso   1.000  C
  C128     1.0000 0.45110  0.03410  0.96790  Biso   1.000  C
  C129     1.0000 0.34930  0.01530  0.99560  Biso   1.000  C
  C130     1.0000 0.40100  0.98160  0.02850  Biso   1.000  C
  C131     1.0000 0.47230  0.34020  0.85020  Biso   1.000  C
  C132     1.0000 0.46960  0.40700  0.85080  Biso   1.000  C
  H85      1.0000 0.24450  0.02520  0.99230  Biso   1.000  H
  H86      1.0000 0.32860  0.96940  0.04830  Biso   1.000  H
  H87      1.0000 0.54280  0.31780  0.83370  Biso   1.000  H
  H88      1.0000 0.54050  0.42940  0.83430  Biso   1.000  H
  O67      1.0000 0.99710  0.58360  0.90725  Biso   1.000  O
  O68      1.0000 0.75980  0.58310  0.92938  Biso   1.000  O
  O69      1.0000 0.99100  0.70810  0.86400  Biso   1.000  O
  C133     1.0000 0.89950  0.57010  0.93230  Biso   1.000  C
  C134     1.0000 0.95110  0.53410  0.96790  Biso   1.000  C
  C135     1.0000 0.84930  0.51530  0.99560  Biso   1.000  C
  C136     1.0000 0.90100  0.48160  0.02850  Biso   1.000  C
  C137     1.0000 0.97230  0.84020  0.85020  Biso   1.000  C
  C138     1.0000 0.96960  0.90700  0.85080  Biso   1.000  C
  H89      1.0000 0.74450  0.52520  0.99230  Biso   1.000  H
  H90      1.0000 0.82860  0.46940  0.04830  Biso   1.000  H
  H91      1.0000 0.04280  0.81780  0.83370  Biso   1.000  H
  H92      1.0000 0.04050  0.92940  0.83430  Biso   1.000  H
  O70      1.0000 0.99710  0.08360  0.40725  Biso   1.000  O
  O71      1.0000 0.75980  0.08310  0.42938  Biso   1.000  O
  O72      1.0000 0.99100  0.20810  0.36400  Biso   1.000  O
  C139     1.0000 0.89950  0.07010  0.43230  Biso   1.000  C
  C140     1.0000 0.95110  0.03410  0.46790  Biso   1.000  C
  C141     1.0000 0.84930  0.01530  0.49560  Biso   1.000  C
  C142     1.0000 0.90100  0.98160  0.52850  Biso   1.000  C
  C143     1.0000 0.97230  0.34020  0.35020  Biso   1.000  C
  C144     1.0000 0.96960  0.40700  0.35080  Biso   1.000  C
  H93      1.0000 0.74450  0.02520  0.49230  Biso   1.000  H
  H94      1.0000 0.82860  0.96940  0.54830  Biso   1.000  H
  H95      1.0000 0.04280  0.31780  0.33370  Biso   1.000  H
  H96      1.0000 0.04050  0.42940  0.33430  Biso   1.000  H
  O73      1.0000 0.49710  0.66640  0.84275  Biso   1.000  O
  O74      1.0000 0.25980  0.66690  0.82062  Biso   1.000  O
  O75      1.0000 0.49100  0.54190  0.88600  Biso   1.000  O
  C145     1.0000 0.39950  0.67990  0.81770  Biso   1.000  C
  C146     1.0000 0.45110  0.71590  0.78210  Biso   1.000  C
  C147     1.0000 0.34930  0.73470  0.75440  Biso   1.000  C
  C148     1.0000 0.40100  0.76840  0.72150  Biso   1.000  C
  C149     1.0000 0.47230  0.40980  0.89980  Biso   1.000  C
  C150     1.0000 0.46960  0.34300  0.89920  Biso   1.000  C
  H97      1.0000 0.24450  0.72480  0.75770  Biso   1.000  H
  H98      1.0000 0.32860  0.78060  0.70170  Biso   1.000  H
  H99      1.0000 0.54280  0.43220  0.91630  Biso   1.000  H
  H100     1.0000 0.54050  0.32060  0.91570  Biso   1.000  H
  O76      1.0000 0.49710  0.16640  0.34275  Biso   1.000  O
  O77      1.0000 0.25980  0.16690  0.32062  Biso   1.000  O
  O78      1.0000 0.49100  0.04190  0.38600  Biso   1.000  O
  C151     1.0000 0.39950  0.17990  0.31770  Biso   1.000  C
  C152     1.0000 0.45110  0.21590  0.28210  Biso   1.000  C
  C153     1.0000 0.34930  0.23470  0.25440  Biso   1.000  C
  C154     1.0000 0.40100  0.26840  0.22150  Biso   1.000  C
  C155     1.0000 0.47230  0.90980  0.39980  Biso   1.000  C
  C156     1.0000 0.46960  0.84300  0.39920  Biso   1.000  C
  H101     1.0000 0.24450  0.22480  0.25770  Biso   1.000  H
  H102     1.0000 0.32860  0.28060  0.20170  Biso   1.000  H
  H103     1.0000 0.54280  0.93220  0.41630  Biso   1.000  H
  H104     1.0000 0.54050  0.82060  0.41570  Biso   1.000  H
  O79      1.0000 0.99710  0.66640  0.34275  Biso   1.000  O
  O80      1.0000 0.75980  0.66690  0.32062  Biso   1.000  O
  O81      1.0000 0.99100  0.54190  0.38600  Biso   1.000  O
  C157     1.0000 0.89950  0.67990  0.31770  Biso   1.000  C
  C158     1.0000 0.95110  0.71590  0.28210  Biso   1.000  C
  C159     1.0000 0.84930  0.73470  0.25440  Biso   1.000  C
  C160     1.0000 0.90100  0.76840  0.22150  Biso   1.000  C
  C161     1.0000 0.97230  0.40980  0.39980  Biso   1.000  C
  C162     1.0000 0.96960  0.34300  0.39920  Biso   1.000  C
  H105     1.0000 0.74450  0.72480  0.25770  Biso   1.000  H
  H106     1.0000 0.82860  0.78060  0.20170  Biso   1.000  H
  H107     1.0000 0.04280  0.43220  0.41630  Biso   1.000  H
  H108     1.0000 0.04050  0.32060  0.41570  Biso   1.000  H
  O82      1.0000 0.99710  0.16640  0.84275  Biso   1.000  O
  O83      1.0000 0.75980  0.16690  0.82062  Biso   1.000  O
  O84      1.0000 0.99100  0.04190  0.88600  Biso   1.000  O
  C163     1.0000 0.89950  0.17990  0.81770  Biso   1.000  C
  C164     1.0000 0.95110  0.21590  0.78210  Biso   1.000  C
  C165     1.0000 0.84930  0.23470  0.75440  Biso   1.000  C
  C166     1.0000 0.90100  0.26840  0.72150  Biso   1.000  C
  C167     1.0000 0.97230  0.90980  0.89980  Biso   1.000  C
  C168     1.0000 0.96960  0.84300  0.89920  Biso   1.000  C
  H109     1.0000 0.74450  0.22480  0.75770  Biso   1.000  H
  H110     1.0000 0.82860  0.28060  0.70170  Biso   1.000  H
  H111     1.0000 0.04280  0.93220  0.91630  Biso   1.000  H
  H112     1.0000 0.04050  0.82060  0.91570  Biso   1.000  H
  O85      1.0000 0.75290  0.58360  0.84275  Biso   1.000  O
  O86      1.0000 0.99020  0.58310  0.82062  Biso   1.000  O
  O87      1.0000 0.75900  0.70810  0.88600  Biso   1.000  O
  C169     1.0000 0.85050  0.57010  0.81770  Biso   1.000  C
  C170     1.0000 0.79890  0.53410  0.78210  Biso   1.000  C
  C171     1.0000 0.90070  0.51530  0.75440  Biso   1.000  C
  C172     1.0000 0.84900  0.48160  0.72150  Biso   1.000  C
  C173     1.0000 0.77770  0.84020  0.89980  Biso   1.000  C
  C174     1.0000 0.78040  0.90700  0.89920  Biso   1.000  C
  H113     1.0000 0.00550  0.52520  0.75770  Biso   1.000  H
  H114     1.0000 0.92140  0.46940  0.70170  Biso   1.000  H
  H115     1.0000 0.70720  0.81780  0.91630  Biso   1.000  H
  H116     1.0000 0.70950  0.92940  0.91570  Biso   1.000  H
  O88      1.0000 0.75290  0.08360  0.34275  Biso   1.000  O
  O89      1.0000 0.99020  0.08310  0.32062  Biso   1.000  O
  O90      1.0000 0.75900  0.20810  0.38600  Biso   1.000  O
  C175     1.0000 0.85050  0.07010  0.31770  Biso   1.000  C
  C176     1.0000 0.79890  0.03410  0.28210  Biso   1.000  C
  C177     1.0000 0.90070  0.01530  0.25440  Biso   1.000  C
  C178     1.0000 0.84900  0.98160  0.22150  Biso   1.000  C
  C179     1.0000 0.77770  0.34020  0.39980  Biso   1.000  C
  C180     1.0000 0.78040  0.40700  0.39920  Biso   1.000  C
  H117     1.0000 0.00550  0.02520  0.25770  Biso   1.000  H
  H118     1.0000 0.92140  0.96940  0.20170  Biso   1.000  H
  H119     1.0000 0.70720  0.31780  0.41630  Biso   1.000  H
  H120     1.0000 0.70950  0.42940  0.41570  Biso   1.000  H
  O91      1.0000 0.25290  0.58360  0.34275  Biso   1.000  O
  O92      1.0000 0.49020  0.58310  0.32062  Biso   1.000  O
  O93      1.0000 0.25900  0.70810  0.38600  Biso   1.000  O
  C181     1.0000 0.35050  0.57010  0.31770  Biso   1.000  C
  C182     1.0000 0.29890  0.53410  0.28210  Biso   1.000  C
  C183     1.0000 0.40070  0.51530  0.25440  Biso   1.000  C
  C184     1.0000 0.34900  0.48160  0.22150  Biso   1.000  C
  C185     1.0000 0.27770  0.84020  0.39980  Biso   1.000  C
  C186     1.0000 0.28040  0.90700  0.39920  Biso   1.000  C
  H121     1.0000 0.50550  0.52520  0.25770  Biso   1.000  H
  H122     1.0000 0.42140  0.46940  0.20170  Biso   1.000  H
  H123     1.0000 0.20720  0.81780  0.41630  Biso   1.000  H
  H124     1.0000 0.20950  0.92940  0.41570  Biso   1.000  H
  O94      1.0000 0.25290  0.08360  0.84275  Biso   1.000  O
  O95      1.0000 0.49020  0.08310  0.82062  Biso   1.000  O
  O96      1.0000 0.25900  0.20810  0.88600  Biso   1.000  O
  C187     1.0000 0.35050  0.07010  0.81770  Biso   1.000  C
  C188     1.0000 0.29890  0.03410  0.78210  Biso   1.000  C
  C189     1.0000 0.40070  0.01530  0.75440  Biso   1.000  C
  C190     1.0000 0.34900  0.98160  0.72150  Biso   1.000  C
  C191     1.0000 0.27770  0.34020  0.89980  Biso   1.000  C
  C192     1.0000 0.28040  0.40700  0.89920  Biso   1.000  C
  H125     1.0000 0.50550  0.02520  0.75770  Biso   1.000  H
  H126     1.0000 0.42140  0.96940  0.70170  Biso   1.000  H
  H127     1.0000 0.20720  0.31780  0.91630  Biso   1.000  H
  H128     1.0000 0.20950  0.42940  0.91570  Biso   1.000  H
  Sc1      1.0000 0.37500  0.37500  0.63595  Biso   1.000  Sc
  Sc2      1.0000 0.37500  0.87500  0.13595  Biso   1.000  Sc
  Sc3      1.0000 0.87500  0.37500  0.13595  Biso   1.000  Sc
  Sc4      1.0000 0.87500  0.87500  0.63595  Biso   1.000  Sc
  Sc5      1.0000 0.37500  0.37500  0.11405  Biso   1.000  Sc
  Sc6      1.0000 0.37500  0.87500  0.61405  Biso   1.000  Sc
  Sc7      1.0000 0.87500  0.37500  0.61405  Biso   1.000  Sc
  Sc8      1.0000 0.87500  0.87500  0.11405  Biso   1.000  Sc
  Sc9      1.0000 0.62500  0.62500  0.36405  Biso   1.000  Sc
  Sc10     1.0000 0.62500  0.12500  0.86405  Biso   1.000  Sc
  Sc11     1.0000 0.12500  0.62500  0.86405  Biso   1.000  Sc
  Sc12     1.0000 0.12500  0.12500  0.36405  Biso   1.000  Sc
  Sc13     1.0000 0.62500  0.62500  0.88595  Biso   1.000  Sc
  Sc14     1.0000 0.62500  0.12500  0.38595  Biso   1.000  Sc
  Sc15     1.0000 0.12500  0.62500  0.38595  Biso   1.000  Sc
  Sc16     1.0000 0.12500  0.12500  0.88595  Biso   1.000  Sc
  C193     1.0000 0.12500  0.48550  0.62500  Biso   1.000  C
  C194     1.0000 0.12500  0.55740  0.62500  Biso   1.000  C
  C195     1.0000 0.12500  0.98550  0.12500  Biso   1.000  C
  C196     1.0000 0.12500  0.05740  0.12500  Biso   1.000  C
  C197     1.0000 0.62500  0.98550  0.62500  Biso   1.000  C
  C198     1.0000 0.62500  0.05740  0.62500  Biso   1.000  C
  C199     1.0000 0.62500  0.26450  0.62500  Biso   1.000  C
  C200     1.0000 0.62500  0.19260  0.62500  Biso   1.000  C
  C201     1.0000 0.62500  0.76450  0.12500  Biso   1.000  C
  C202     1.0000 0.62500  0.69260  0.12500  Biso   1.000  C
  C203     1.0000 0.62500  0.48550  0.12500  Biso   1.000  C
  C204     1.0000 0.62500  0.55740  0.12500  Biso   1.000  C
  C205     1.0000 0.12500  0.26450  0.12500  Biso   1.000  C
  C206     1.0000 0.12500  0.19260  0.12500  Biso   1.000  C
  C207     1.0000 0.12500  0.76450  0.62500  Biso   1.000  C
  C208     1.0000 0.12500  0.69260  0.62500  Biso   1.000  C
  C209     1.0000 0.87500  0.51450  0.37500  Biso   1.000  C
  C210     1.0000 0.87500  0.44260  0.37500  Biso   1.000  C
  C211     1.0000 0.87500  0.01450  0.87500  Biso   1.000  C
  C212     1.0000 0.87500  0.94260  0.87500  Biso   1.000  C
  C213     1.0000 0.37500  0.73550  0.37500  Biso   1.000  C
  C214     1.0000 0.37500  0.80740  0.37500  Biso   1.000  C
  C215     1.0000 0.37500  0.23550  0.87500  Biso   1.000  C
  C216     1.0000 0.37500  0.30740  0.87500  Biso   1.000  C
  C217     1.0000 0.37500  0.51450  0.87500  Biso   1.000  C
  C218     1.0000 0.37500  0.44260  0.87500  Biso   1.000  C
  C219     1.0000 0.37500  0.01450  0.37500  Biso   1.000  C
  C220     1.0000 0.37500  0.94260  0.37500  Biso   1.000  C
  C221     1.0000 0.87500  0.73550  0.87500  Biso   1.000  C
  C222     1.0000 0.87500  0.80740  0.87500  Biso   1.000  C
  C223     1.0000 0.87500  0.23550  0.37500  Biso   1.000  C
  C224     1.0000 0.87500  0.30740  0.37500  Biso   1.000  C
