data_image0
_cell_length_a       8.7185
_cell_length_b       20.7142
_cell_length_c       34.265
_cell_angle_alpha    90
_cell_angle_beta     90
_cell_angle_gamma    90

_symmetry_space_group_name_H-M    "P 1"
_symmetry_int_tables_number       1

loop_
  _symmetry_equiv_pos_as_xyz
  'x, y, z'

loop_
  _atom_site_label
  _atom_site_occupancy
  _atom_site_fract_x
  _atom_site_fract_y
  _atom_site_fract_z
  _atom_site_thermal_displace_type
  _atom_site_B_iso_or_equiv
  _atom_site_type_symbol
  O1       1.0000 0.24480  0.33500  0.59237  Biso   1.000  O
  O2       1.0000 0.00730  0.33390  0.57017  Biso   1.000  O
  O3       1.0000 0.24090  0.45820  0.63702  Biso   1.000  O
  C1       1.0000 0.14690  0.32060  0.56755  Biso   1.000  C
  C2       1.0000 0.20160  0.28420  0.53230  Biso   1.000  C
  C3       1.0000 0.09580  0.26330  0.50502  Biso   1.000  C
  C4       1.0000 0.14340  0.22890  0.47251  Biso   1.000  C
  C5       1.0000 0.20820  0.59110  0.65220  Biso   1.000  C
  C6       1.0000 0.20730  0.65790  0.65230  Biso   1.000  C
  H1       1.0000 0.99000  0.27250  0.50860  Biso   1.000  H
  H2       1.0000 0.07090  0.21460  0.45370  Biso   1.000  H
  H3       1.0000 0.26170  0.56830  0.67210  Biso   1.000  H
  H4       1.0000 0.26130  0.68040  0.67220  Biso   1.000  H
  O4       1.0000 0.24480  0.83500  0.09237  Biso   1.000  O
  O5       1.0000 0.00730  0.83390  0.07017  Biso   1.000  O
  O6       1.0000 0.24090  0.95820  0.13702  Biso   1.000  O
  C7       1.0000 0.14690  0.82060  0.06755  Biso   1.000  C
  C8       1.0000 0.20160  0.78420  0.03230  Biso   1.000  C
  C9       1.0000 0.09580  0.76330  0.00502  Biso   1.000  C
  C10      1.0000 0.14340  0.72890  0.97251  Biso   1.000  C
  C11      1.0000 0.20820  0.09110  0.15220  Biso   1.000  C
  C12      1.0000 0.20730  0.15790  0.15230  Biso   1.000  C
  H5       1.0000 0.99000  0.77250  0.00860  Biso   1.000  H
  H6       1.0000 0.07090  0.71460  0.95370  Biso   1.000  H
  H7       1.0000 0.26170  0.06830  0.17210  Biso   1.000  H
  H8       1.0000 0.26130  0.18040  0.17220  Biso   1.000  H
  O7       1.0000 0.74480  0.33500  0.09237  Biso   1.000  O
  O8       1.0000 0.50730  0.33390  0.07017  Biso   1.000  O
  O9       1.0000 0.74090  0.45820  0.13702  Biso   1.000  O
  C13      1.0000 0.64690  0.32060  0.06755  Biso   1.000  C
  C14      1.0000 0.70160  0.28420  0.03230  Biso   1.000  C
  C15      1.0000 0.59580  0.26330  0.00502  Biso   1.000  C
  C16      1.0000 0.64340  0.22890  0.97251  Biso   1.000  C
  C17      1.0000 0.70820  0.59110  0.15220  Biso   1.000  C
  C18      1.0000 0.70730  0.65790  0.15230  Biso   1.000  C
  H9       1.0000 0.49000  0.27250  0.00860  Biso   1.000  H
  H10      1.0000 0.57090  0.21460  0.95370  Biso   1.000  H
  H11      1.0000 0.76170  0.56830  0.17210  Biso   1.000  H
  H12      1.0000 0.76130  0.68040  0.17220  Biso   1.000  H
  O10      1.0000 0.74480  0.83500  0.59237  Biso   1.000  O
  O11      1.0000 0.50730  0.83390  0.57017  Biso   1.000  O
  O12      1.0000 0.74090  0.95820  0.63702  Biso   1.000  O
  C19      1.0000 0.64690  0.82060  0.56755  Biso   1.000  C
  C20      1.0000 0.70160  0.78420  0.53230  Biso   1.000  C
  C21      1.0000 0.59580  0.76330  0.50502  Biso   1.000  C
  C22      1.0000 0.64340  0.72890  0.47251  Biso   1.000  C
  C23      1.0000 0.70820  0.09110  0.65220  Biso   1.000  C
  C24      1.0000 0.70730  0.15790  0.65230  Biso   1.000  C
  H13      1.0000 0.49000  0.77250  0.50860  Biso   1.000  H
  H14      1.0000 0.57090  0.71460  0.45370  Biso   1.000  H
  H15      1.0000 0.76170  0.06830  0.67210  Biso   1.000  H
  H16      1.0000 0.76130  0.18040  0.67220  Biso   1.000  H
  O13      1.0000 0.50520  0.41500  0.59237  Biso   1.000  O
  O14      1.0000 0.74270  0.41610  0.57017  Biso   1.000  O
  O15      1.0000 0.50910  0.29180  0.63702  Biso   1.000  O
  C25      1.0000 0.60310  0.42940  0.56755  Biso   1.000  C
  C26      1.0000 0.54840  0.46580  0.53230  Biso   1.000  C
  C27      1.0000 0.65420  0.48670  0.50502  Biso   1.000  C
  C28      1.0000 0.60660  0.52110  0.47251  Biso   1.000  C
  C29      1.0000 0.54180  0.15890  0.65220  Biso   1.000  C
  C30      1.0000 0.54270  0.09210  0.65230  Biso   1.000  C
  H17      1.0000 0.76000  0.47750  0.50860  Biso   1.000  H
  H18      1.0000 0.67910  0.53540  0.45370  Biso   1.000  H
  H19      1.0000 0.48830  0.18170  0.67210  Biso   1.000  H
  H20      1.0000 0.48870  0.06960  0.67220  Biso   1.000  H
  O16      1.0000 0.50520  0.91500  0.09237  Biso   1.000  O
  O17      1.0000 0.74270  0.91610  0.07017  Biso   1.000  O
  O18      1.0000 0.50910  0.79180  0.13702  Biso   1.000  O
  C31      1.0000 0.60310  0.92940  0.06755  Biso   1.000  C
  C32      1.0000 0.54840  0.96580  0.03230  Biso   1.000  C
  C33      1.0000 0.65420  0.98670  0.00502  Biso   1.000  C
  C34      1.0000 0.60660  0.02110  0.97251  Biso   1.000  C
  C35      1.0000 0.54180  0.65890  0.15220  Biso   1.000  C
  C36      1.0000 0.54270  0.59210  0.15230  Biso   1.000  C
  H21      1.0000 0.76000  0.97750  0.00860  Biso   1.000  H
  H22      1.0000 0.67910  0.03540  0.95370  Biso   1.000  H
  H23      1.0000 0.48830  0.68170  0.17210  Biso   1.000  H
  H24      1.0000 0.48870  0.56960  0.17220  Biso   1.000  H
  O19      1.0000 0.00520  0.41500  0.09237  Biso   1.000  O
  O20      1.0000 0.24270  0.41610  0.07017  Biso   1.000  O
  O21      1.0000 0.00910  0.29180  0.13702  Biso   1.000  O
  C37      1.0000 0.10310  0.42940  0.06755  Biso   1.000  C
  C38      1.0000 0.04840  0.46580  0.03230  Biso   1.000  C
  C39      1.0000 0.15420  0.48670  0.00502  Biso   1.000  C
  C40      1.0000 0.10660  0.52110  0.97251  Biso   1.000  C
  C41      1.0000 0.04180  0.15890  0.15220  Biso   1.000  C
  C42      1.0000 0.04270  0.09210  0.15230  Biso   1.000  C
  H25      1.0000 0.26000  0.47750  0.00860  Biso   1.000  H
  H26      1.0000 0.17910  0.53540  0.95370  Biso   1.000  H
  H27      1.0000 0.98830  0.18170  0.17210  Biso   1.000  H
  H28      1.0000 0.98870  0.06960  0.17220  Biso   1.000  H
  O22      1.0000 0.00520  0.91500  0.59237  Biso   1.000  O
  O23      1.0000 0.24270  0.91610  0.57017  Biso   1.000  O
  O24      1.0000 0.00910  0.79180  0.63702  Biso   1.000  O
  C43      1.0000 0.10310  0.92940  0.56755  Biso   1.000  C
  C44      1.0000 0.04840  0.96580  0.53230  Biso   1.000  C
  C45      1.0000 0.15420  0.98670  0.50502  Biso   1.000  C
  C46      1.0000 0.10660  0.02110  0.47251  Biso   1.000  C
  C47      1.0000 0.04180  0.65890  0.65220  Biso   1.000  C
  C48      1.0000 0.04270  0.59210  0.65230  Biso   1.000  C
  H29      1.0000 0.26000  0.97750  0.50860  Biso   1.000  H
  H30      1.0000 0.17910  0.03540  0.45370  Biso   1.000  H
  H31      1.0000 0.98830  0.68170  0.67210  Biso   1.000  H
  H32      1.0000 0.98870  0.56960  0.67220  Biso   1.000  H
  O25      1.0000 0.50520  0.33500  0.15763  Biso   1.000  O
  O26      1.0000 0.74270  0.33390  0.17983  Biso   1.000  O
  O27      1.0000 0.50910  0.45820  0.11298  Biso   1.000  O
  C49      1.0000 0.60310  0.32060  0.18245  Biso   1.000  C
  C50      1.0000 0.54840  0.28420  0.21770  Biso   1.000  C
  C51      1.0000 0.65420  0.26330  0.24498  Biso   1.000  C
  C52      1.0000 0.60660  0.22890  0.27749  Biso   1.000  C
  C53      1.0000 0.54180  0.59110  0.09780  Biso   1.000  C
  C54      1.0000 0.54270  0.65790  0.09770  Biso   1.000  C
  H33      1.0000 0.76000  0.27250  0.24140  Biso   1.000  H
  H34      1.0000 0.67910  0.21460  0.29630  Biso   1.000  H
  H35      1.0000 0.48830  0.56830  0.07790  Biso   1.000  H
  H36      1.0000 0.48870  0.68040  0.07780  Biso   1.000  H
  O28      1.0000 0.50520  0.83500  0.65763  Biso   1.000  O
  O29      1.0000 0.74270  0.83390  0.67983  Biso   1.000  O
  O30      1.0000 0.50910  0.95820  0.61298  Biso   1.000  O
  C55      1.0000 0.60310  0.82060  0.68245  Biso   1.000  C
  C56      1.0000 0.54840  0.78420  0.71770  Biso   1.000  C
  C57      1.0000 0.65420  0.76330  0.74498  Biso   1.000  C
  C58      1.0000 0.60660  0.72890  0.77749  Biso   1.000  C
  C59      1.0000 0.54180  0.09110  0.59780  Biso   1.000  C
  C60      1.0000 0.54270  0.15790  0.59770  Biso   1.000  C
  H37      1.0000 0.76000  0.77250  0.74140  Biso   1.000  H
  H38      1.0000 0.67910  0.71460  0.79630  Biso   1.000  H
  H39      1.0000 0.48830  0.06830  0.57790  Biso   1.000  H
  H40      1.0000 0.48870  0.18040  0.57780  Biso   1.000  H
  O31      1.0000 0.00520  0.33500  0.65763  Biso   1.000  O
  O32      1.0000 0.24270  0.33390  0.67983  Biso   1.000  O
  O33      1.0000 0.00910  0.45820  0.61298  Biso   1.000  O
  C61      1.0000 0.10310  0.32060  0.68245  Biso   1.000  C
  C62      1.0000 0.04840  0.28420  0.71770  Biso   1.000  C
  C63      1.0000 0.15420  0.26330  0.74498  Biso   1.000  C
  C64      1.0000 0.10660  0.22890  0.77749  Biso   1.000  C
  C65      1.0000 0.04180  0.59110  0.59780  Biso   1.000  C
  C66      1.0000 0.04270  0.65790  0.59770  Biso   1.000  C
  H41      1.0000 0.26000  0.27250  0.74140  Biso   1.000  H
  H42      1.0000 0.17910  0.21460  0.79630  Biso   1.000  H
  H43      1.0000 0.98830  0.56830  0.57790  Biso   1.000  H
  H44      1.0000 0.98870  0.68040  0.57780  Biso   1.000  H
  O34      1.0000 0.00520  0.83500  0.15763  Biso   1.000  O
  O35      1.0000 0.24270  0.83390  0.17983  Biso   1.000  O
  O36      1.0000 0.00910  0.95820  0.11298  Biso   1.000  O
  C67      1.0000 0.10310  0.82060  0.18245  Biso   1.000  C
  C68      1.0000 0.04840  0.78420  0.21770  Biso   1.000  C
  C69      1.0000 0.15420  0.76330  0.24498  Biso   1.000  C
  C70      1.0000 0.10660  0.72890  0.27749  Biso   1.000  C
  C71      1.0000 0.04180  0.09110  0.09780  Biso   1.000  C
  C72      1.0000 0.04270  0.15790  0.09770  Biso   1.000  C
  H45      1.0000 0.26000  0.77250  0.24140  Biso   1.000  H
  H46      1.0000 0.17910  0.71460  0.29630  Biso   1.000  H
  H47      1.0000 0.98830  0.06830  0.07790  Biso   1.000  H
  H48      1.0000 0.98870  0.18040  0.07780  Biso   1.000  H
  O37      1.0000 0.24480  0.41500  0.15763  Biso   1.000  O
  O38      1.0000 0.00730  0.41610  0.17983  Biso   1.000  O
  O39      1.0000 0.24090  0.29180  0.11298  Biso   1.000  O
  C73      1.0000 0.14690  0.42940  0.18245  Biso   1.000  C
  C74      1.0000 0.20160  0.46580  0.21770  Biso   1.000  C
  C75      1.0000 0.09580  0.48670  0.24498  Biso   1.000  C
  C76      1.0000 0.14340  0.52110  0.27749  Biso   1.000  C
  C77      1.0000 0.20820  0.15890  0.09780  Biso   1.000  C
  C78      1.0000 0.20730  0.09210  0.09770  Biso   1.000  C
  H49      1.0000 0.99000  0.47750  0.24140  Biso   1.000  H
  H50      1.0000 0.07090  0.53540  0.29630  Biso   1.000  H
  H51      1.0000 0.26170  0.18170  0.07790  Biso   1.000  H
  H52      1.0000 0.26130  0.06960  0.07780  Biso   1.000  H
  O40      1.0000 0.24480  0.91500  0.65763  Biso   1.000  O
  O41      1.0000 0.00730  0.91610  0.67983  Biso   1.000  O
  O42      1.0000 0.24090  0.79180  0.61298  Biso   1.000  O
  C79      1.0000 0.14690  0.92940  0.68245  Biso   1.000  C
  C80      1.0000 0.20160  0.96580  0.71770  Biso   1.000  C
  C81      1.0000 0.09580  0.98670  0.74498  Biso   1.000  C
  C82      1.0000 0.14340  0.02110  0.77749  Biso   1.000  C
  C83      1.0000 0.20820  0.65890  0.59780  Biso   1.000  C
  C84      1.0000 0.20730  0.59210  0.59770  Biso   1.000  C
  H53      1.0000 0.99000  0.97750  0.74140  Biso   1.000  H
  H54      1.0000 0.07090  0.03540  0.79630  Biso   1.000  H
  H55      1.0000 0.26170  0.68170  0.57790  Biso   1.000  H
  H56      1.0000 0.26130  0.56960  0.57780  Biso   1.000  H
  O43      1.0000 0.74480  0.41500  0.65763  Biso   1.000  O
  O44      1.0000 0.50730  0.41610  0.67983  Biso   1.000  O
  O45      1.0000 0.74090  0.29180  0.61298  Biso   1.000  O
  C85      1.0000 0.64690  0.42940  0.68245  Biso   1.000  C
  C86      1.0000 0.70160  0.46580  0.71770  Biso   1.000  C
  C87      1.0000 0.59580  0.48670  0.74498  Biso   1.000  C
  C88      1.0000 0.64340  0.52110  0.77749  Biso   1.000  C
  C89      1.0000 0.70820  0.15890  0.59780  Biso   1.000  C
  C90      1.0000 0.70730  0.09210  0.59770  Biso   1.000  C
  H57      1.0000 0.49000  0.47750  0.74140  Biso   1.000  H
  H58      1.0000 0.57090  0.53540  0.79630  Biso   1.000  H
  H59      1.0000 0.76170  0.18170  0.57790  Biso   1.000  H
  H60      1.0000 0.76130  0.06960  0.57780  Biso   1.000  H
  O46      1.0000 0.74480  0.91500  0.15763  Biso   1.000  O
  O47      1.0000 0.50730  0.91610  0.17983  Biso   1.000  O
  O48      1.0000 0.74090  0.79180  0.11298  Biso   1.000  O
  C91      1.0000 0.64690  0.92940  0.18245  Biso   1.000  C
  C92      1.0000 0.70160  0.96580  0.21770  Biso   1.000  C
  C93      1.0000 0.59580  0.98670  0.24498  Biso   1.000  C
  C94      1.0000 0.64340  0.02110  0.27749  Biso   1.000  C
  C95      1.0000 0.70820  0.65890  0.09780  Biso   1.000  C
  C96      1.0000 0.70730  0.59210  0.09770  Biso   1.000  C
  H61      1.0000 0.49000  0.97750  0.24140  Biso   1.000  H
  H62      1.0000 0.57090  0.03540  0.29630  Biso   1.000  H
  H63      1.0000 0.76170  0.68170  0.07790  Biso   1.000  H
  H64      1.0000 0.76130  0.56960  0.07780  Biso   1.000  H
  O49      1.0000 0.75520  0.66500  0.40763  Biso   1.000  O
  O50      1.0000 0.99270  0.66610  0.42983  Biso   1.000  O
  O51      1.0000 0.75910  0.54180  0.36298  Biso   1.000  O
  C97      1.0000 0.85310  0.67940  0.43245  Biso   1.000  C
  C98      1.0000 0.79840  0.71580  0.46770  Biso   1.000  C
  C99      1.0000 0.90420  0.73670  0.49498  Biso   1.000  C
  C100     1.0000 0.85660  0.77110  0.52749  Biso   1.000  C
  C101     1.0000 0.79180  0.40890  0.34780  Biso   1.000  C
  C102     1.0000 0.79270  0.34210  0.34770  Biso   1.000  C
  H65      1.0000 0.01000  0.72750  0.49140  Biso   1.000  H
  H66      1.0000 0.92910  0.78540  0.54630  Biso   1.000  H
  H67      1.0000 0.73830  0.43170  0.32790  Biso   1.000  H
  H68      1.0000 0.73870  0.31960  0.32780  Biso   1.000  H
  O52      1.0000 0.75520  0.16500  0.90763  Biso   1.000  O
  O53      1.0000 0.99270  0.16610  0.92983  Biso   1.000  O
  O54      1.0000 0.75910  0.04180  0.86298  Biso   1.000  O
  C103     1.0000 0.85310  0.17940  0.93245  Biso   1.000  C
  C104     1.0000 0.79840  0.21580  0.96770  Biso   1.000  C
  C105     1.0000 0.90420  0.23670  0.99498  Biso   1.000  C
  C106     1.0000 0.85660  0.27110  0.02749  Biso   1.000  C
  C107     1.0000 0.79180  0.90890  0.84780  Biso   1.000  C
  C108     1.0000 0.79270  0.84210  0.84770  Biso   1.000  C
  H69      1.0000 0.01000  0.22750  0.99140  Biso   1.000  H
  H70      1.0000 0.92910  0.28540  0.04630  Biso   1.000  H
  H71      1.0000 0.73830  0.93170  0.82790  Biso   1.000  H
  H72      1.0000 0.73870  0.81960  0.82780  Biso   1.000  H
  O55      1.0000 0.25520  0.66500  0.90763  Biso   1.000  O
  O56      1.0000 0.49270  0.66610  0.92983  Biso   1.000  O
  O57      1.0000 0.25910  0.54180  0.86298  Biso   1.000  O
  C109     1.0000 0.35310  0.67940  0.93245  Biso   1.000  C
  C110     1.0000 0.29840  0.71580  0.96770  Biso   1.000  C
  C111     1.0000 0.40420  0.73670  0.99498  Biso   1.000  C
  C112     1.0000 0.35660  0.77110  0.02749  Biso   1.000  C
  C113     1.0000 0.29180  0.40890  0.84780  Biso   1.000  C
  C114     1.0000 0.29270  0.34210  0.84770  Biso   1.000  C
  H73      1.0000 0.51000  0.72750  0.99140  Biso   1.000  H
  H74      1.0000 0.42910  0.78540  0.04630  Biso   1.000  H
  H75      1.0000 0.23830  0.43170  0.82790  Biso   1.000  H
  H76      1.0000 0.23870  0.31960  0.82780  Biso   1.000  H
  O58      1.0000 0.25520  0.16500  0.40763  Biso   1.000  O
  O59      1.0000 0.49270  0.16610  0.42983  Biso   1.000  O
  O60      1.0000 0.25910  0.04180  0.36298  Biso   1.000  O
  C115     1.0000 0.35310  0.17940  0.43245  Biso   1.000  C
  C116     1.0000 0.29840  0.21580  0.46770  Biso   1.000  C
  C117     1.0000 0.40420  0.23670  0.49498  Biso   1.000  C
  C118     1.0000 0.35660  0.27110  0.52749  Biso   1.000  C
  C119     1.0000 0.29180  0.90890  0.34780  Biso   1.000  C
  C120     1.0000 0.29270  0.84210  0.34770  Biso   1.000  C
  H77      1.0000 0.51000  0.22750  0.49140  Biso   1.000  H
  H78      1.0000 0.42910  0.28540  0.54630  Biso   1.000  H
  H79      1.0000 0.23830  0.93170  0.32790  Biso   1.000  H
  H80      1.0000 0.23870  0.81960  0.32780  Biso   1.000  H
  O61      1.0000 0.49480  0.58500  0.40763  Biso   1.000  O
  O62      1.0000 0.25730  0.58390  0.42983  Biso   1.000  O
  O63      1.0000 0.49090  0.70820  0.36298  Biso   1.000  O
  C121     1.0000 0.39690  0.57060  0.43245  Biso   1.000  C
  C122     1.0000 0.45160  0.53420  0.46770  Biso   1.000  C
  C123     1.0000 0.34580  0.51330  0.49498  Biso   1.000  C
  C124     1.0000 0.39340  0.47890  0.52749  Biso   1.000  C
  C125     1.0000 0.45820  0.84110  0.34780  Biso   1.000  C
  C126     1.0000 0.45730  0.90790  0.34770  Biso   1.000  C
  H81      1.0000 0.24000  0.52250  0.49140  Biso   1.000  H
  H82      1.0000 0.32090  0.46460  0.54630  Biso   1.000  H
  H83      1.0000 0.51170  0.81830  0.32790  Biso   1.000  H
  H84      1.0000 0.51130  0.93040  0.32780  Biso   1.000  H
  O64      1.0000 0.49480  0.08500  0.90763  Biso   1.000  O
  O65      1.0000 0.25730  0.08390  0.92983  Biso   1.000  O
  O66      1.0000 0.49090  0.20820  0.86298  Biso   1.000  O
  C127     1.0000 0.39690  0.07060  0.93245  Biso   1.000  C
  C128     1.0000 0.45160  0.03420  0.96770  Biso   1.000  C
  C129     1.0000 0.34580  0.01330  0.99498  Biso   1.000  C
  C130     1.0000 0.39340  0.97890  0.02749  Biso   1.000  C
  C131     1.0000 0.45820  0.34110  0.84780  Biso   1.000  C
  C132     1.0000 0.45730  0.40790  0.84770  Biso   1.000  C
  H85      1.0000 0.24000  0.02250  0.99140  Biso   1.000  H
  H86      1.0000 0.32090  0.96460  0.04630  Biso   1.000  H
  H87      1.0000 0.51170  0.31830  0.82790  Biso   1.000  H
  H88      1.0000 0.51130  0.43040  0.82780  Biso   1.000  H
  O67      1.0000 0.99480  0.58500  0.90763  Biso   1.000  O
  O68      1.0000 0.75730  0.58390  0.92983  Biso   1.000  O
  O69      1.0000 0.99090  0.70820  0.86298  Biso   1.000  O
  C133     1.0000 0.89690  0.57060  0.93245  Biso   1.000  C
  C134     1.0000 0.95160  0.53420  0.96770  Biso   1.000  C
  C135     1.0000 0.84580  0.51330  0.99498  Biso   1.000  C
  C136     1.0000 0.89340  0.47890  0.02749  Biso   1.000  C
  C137     1.0000 0.95820  0.84110  0.84780  Biso   1.000  C
  C138     1.0000 0.95730  0.90790  0.84770  Biso   1.000  C
  H89      1.0000 0.74000  0.52250  0.99140  Biso   1.000  H
  H90      1.0000 0.82090  0.46460  0.04630  Biso   1.000  H
  H91      1.0000 0.01170  0.81830  0.82790  Biso   1.000  H
  H92      1.0000 0.01130  0.93040  0.82780  Biso   1.000  H
  O70      1.0000 0.99480  0.08500  0.40763  Biso   1.000  O
  O71      1.0000 0.75730  0.08390  0.42983  Biso   1.000  O
  O72      1.0000 0.99090  0.20820  0.36298  Biso   1.000  O
  C139     1.0000 0.89690  0.07060  0.43245  Biso   1.000  C
  C140     1.0000 0.95160  0.03420  0.46770  Biso   1.000  C
  C141     1.0000 0.84580  0.01330  0.49498  Biso   1.000  C
  C142     1.0000 0.89340  0.97890  0.52749  Biso   1.000  C
  C143     1.0000 0.95820  0.34110  0.34780  Biso   1.000  C
  C144     1.0000 0.95730  0.40790  0.34770  Biso   1.000  C
  H93      1.0000 0.74000  0.02250  0.49140  Biso   1.000  H
  H94      1.0000 0.82090  0.96460  0.54630  Biso   1.000  H
  H95      1.0000 0.01170  0.31830  0.32790  Biso   1.000  H
  H96      1.0000 0.01130  0.43040  0.32780  Biso   1.000  H
  O73      1.0000 0.49480  0.66500  0.84237  Biso   1.000  O
  O74      1.0000 0.25730  0.66610  0.82017  Biso   1.000  O
  O75      1.0000 0.49090  0.54180  0.88702  Biso   1.000  O
  C145     1.0000 0.39690  0.67940  0.81755  Biso   1.000  C
  C146     1.0000 0.45160  0.71580  0.78230  Biso   1.000  C
  C147     1.0000 0.34580  0.73670  0.75502  Biso   1.000  C
  C148     1.0000 0.39340  0.77110  0.72251  Biso   1.000  C
  C149     1.0000 0.45820  0.40890  0.90220  Biso   1.000  C
  C150     1.0000 0.45730  0.34210  0.90230  Biso   1.000  C
  H97      1.0000 0.24000  0.72750  0.75860  Biso   1.000  H
  H98      1.0000 0.32090  0.78540  0.70370  Biso   1.000  H
  H99      1.0000 0.51170  0.43170  0.92210  Biso   1.000  H
  H100     1.0000 0.51130  0.31960  0.92220  Biso   1.000  H
  O76      1.0000 0.49480  0.16500  0.34237  Biso   1.000  O
  O77      1.0000 0.25730  0.16610  0.32017  Biso   1.000  O
  O78      1.0000 0.49090  0.04180  0.38702  Biso   1.000  O
  C151     1.0000 0.39690  0.17940  0.31755  Biso   1.000  C
  C152     1.0000 0.45160  0.21580  0.28230  Biso   1.000  C
  C153     1.0000 0.34580  0.23670  0.25502  Biso   1.000  C
  C154     1.0000 0.39340  0.27110  0.22251  Biso   1.000  C
  C155     1.0000 0.45820  0.90890  0.40220  Biso   1.000  C
  C156     1.0000 0.45730  0.84210  0.40230  Biso   1.000  C
  H101     1.0000 0.24000  0.22750  0.25860  Biso   1.000  H
  H102     1.0000 0.32090  0.28540  0.20370  Biso   1.000  H
  H103     1.0000 0.51170  0.93170  0.42210  Biso   1.000  H
  H104     1.0000 0.51130  0.81960  0.42220  Biso   1.000  H
  O79      1.0000 0.99480  0.66500  0.34237  Biso   1.000  O
  O80      1.0000 0.75730  0.66610  0.32017  Biso   1.000  O
  O81      1.0000 0.99090  0.54180  0.38702  Biso   1.000  O
  C157     1.0000 0.89690  0.67940  0.31755  Biso   1.000  C
  C158     1.0000 0.95160  0.71580  0.28230  Biso   1.000  C
  C159     1.0000 0.84580  0.73670  0.25502  Biso   1.000  C
  C160     1.0000 0.89340  0.77110  0.22251  Biso   1.000  C
  C161     1.0000 0.95820  0.40890  0.40220  Biso   1.000  C
  C162     1.0000 0.95730  0.34210  0.40230  Biso   1.000  C
  H105     1.0000 0.74000  0.72750  0.25860  Biso   1.000  H
  H106     1.0000 0.82090  0.78540  0.20370  Biso   1.000  H
  H107     1.0000 0.01170  0.43170  0.42210  Biso   1.000  H
  H108     1.0000 0.01130  0.31960  0.42220  Biso   1.000  H
  O82      1.0000 0.99480  0.16500  0.84237  Biso   1.000  O
  O83      1.0000 0.75730  0.16610  0.82017  Biso   1.000  O
  O84      1.0000 0.99090  0.04180  0.88702  Biso   1.000  O
  C163     1.0000 0.89690  0.17940  0.81755  Biso   1.000  C
  C164     1.0000 0.95160  0.21580  0.78230  Biso   1.000  C
  C165     1.0000 0.84580  0.23670  0.75502  Biso   1.000  C
  C166     1.0000 0.89340  0.27110  0.72251  Biso   1.000  C
  C167     1.0000 0.95820  0.90890  0.90220  Biso   1.000  C
  C168     1.0000 0.95730  0.84210  0.90230  Biso   1.000  C
  H109     1.0000 0.74000  0.22750  0.75860  Biso   1.000  H
  H110     1.0000 0.82090  0.28540  0.70370  Biso   1.000  H
  H111     1.0000 0.01170  0.93170  0.92210  Biso   1.000  H
  H112     1.0000 0.01130  0.81960  0.92220  Biso   1.000  H
  O85      1.0000 0.75520  0.58500  0.84237  Biso   1.000  O
  O86      1.0000 0.99270  0.58390  0.82017  Biso   1.000  O
  O87      1.0000 0.75910  0.70820  0.88702  Biso   1.000  O
  C169     1.0000 0.85310  0.57060  0.81755  Biso   1.000  C
  C170     1.0000 0.79840  0.53420  0.78230  Biso   1.000  C
  C171     1.0000 0.90420  0.51330  0.75502  Biso   1.000  C
  C172     1.0000 0.85660  0.47890  0.72251  Biso   1.000  C
  C173     1.0000 0.79180  0.84110  0.90220  Biso   1.000  C
  C174     1.0000 0.79270  0.90790  0.90230  Biso   1.000  C
  H113     1.0000 0.01000  0.52250  0.75860  Biso   1.000  H
  H114     1.0000 0.92910  0.46460  0.70370  Biso   1.000  H
  H115     1.0000 0.73830  0.81830  0.92210  Biso   1.000  H
  H116     1.0000 0.73870  0.93040  0.92220  Biso   1.000  H
  O88      1.0000 0.75520  0.08500  0.34237  Biso   1.000  O
  O89      1.0000 0.99270  0.08390  0.32017  Biso   1.000  O
  O90      1.0000 0.75910  0.20820  0.38702  Biso   1.000  O
  C175     1.0000 0.85310  0.07060  0.31755  Biso   1.000  C
  C176     1.0000 0.79840  0.03420  0.28230  Biso   1.000  C
  C177     1.0000 0.90420  0.01330  0.25502  Biso   1.000  C
  C178     1.0000 0.85660  0.97890  0.22251  Biso   1.000  C
  C179     1.0000 0.79180  0.34110  0.40220  Biso   1.000  C
  C180     1.0000 0.79270  0.40790  0.40230  Biso   1.000  C
  H117     1.0000 0.01000  0.02250  0.25860  Biso   1.000  H
  H118     1.0000 0.92910  0.96460  0.20370  Biso   1.000  H
  H119     1.0000 0.73830  0.31830  0.42210  Biso   1.000  H
  H120     1.0000 0.73870  0.43040  0.42220  Biso   1.000  H
  O91      1.0000 0.25520  0.58500  0.34237  Biso   1.000  O
  O92      1.0000 0.49270  0.58390  0.32017  Biso   1.000  O
  O93      1.0000 0.25910  0.70820  0.38702  Biso   1.000  O
  C181     1.0000 0.35310  0.57060  0.31755  Biso   1.000  C
  C182     1.0000 0.29840  0.53420  0.28230  Biso   1.000  C
  C183     1.0000 0.40420  0.51330  0.25502  Biso   1.000  C
  C184     1.0000 0.35660  0.47890  0.22251  Biso   1.000  C
  C185     1.0000 0.29180  0.84110  0.40220  Biso   1.000  C
  C186     1.0000 0.29270  0.90790  0.40230  Biso   1.000  C
  H121     1.0000 0.51000  0.52250  0.25860  Biso   1.000  H
  H122     1.0000 0.42910  0.46460  0.20370  Biso   1.000  H
  H123     1.0000 0.23830  0.81830  0.42210  Biso   1.000  H
  H124     1.0000 0.23870  0.93040  0.42220  Biso   1.000  H
  O94      1.0000 0.25520  0.08500  0.84237  Biso   1.000  O
  O95      1.0000 0.49270  0.08390  0.82017  Biso   1.000  O
  O96      1.0000 0.25910  0.20820  0.88702  Biso   1.000  O
  C187     1.0000 0.35310  0.07060  0.81755  Biso   1.000  C
  C188     1.0000 0.29840  0.03420  0.78230  Biso   1.000  C
  C189     1.0000 0.40420  0.01330  0.75502  Biso   1.000  C
  C190     1.0000 0.35660  0.97890  0.72251  Biso   1.000  C
  C191     1.0000 0.29180  0.34110  0.90220  Biso   1.000  C
  C192     1.0000 0.29270  0.40790  0.90230  Biso   1.000  C
  H125     1.0000 0.51000  0.02250  0.75860  Biso   1.000  H
  H126     1.0000 0.42910  0.96460  0.70370  Biso   1.000  H
  H127     1.0000 0.23830  0.31830  0.92210  Biso   1.000  H
  H128     1.0000 0.23870  0.43040  0.92220  Biso   1.000  H
  Sc1      1.0000 0.37500  0.37500  0.63596  Biso   1.000  Sc
  Sc2      1.0000 0.37500  0.87500  0.13596  Biso   1.000  Sc
  Sc3      1.0000 0.87500  0.37500  0.13596  Biso   1.000  Sc
  Sc4      1.0000 0.87500  0.87500  0.63596  Biso   1.000  Sc
  Sc5      1.0000 0.37500  0.37500  0.11404  Biso   1.000  Sc
  Sc6      1.0000 0.37500  0.87500  0.61404  Biso   1.000  Sc
  Sc7      1.0000 0.87500  0.37500  0.61404  Biso   1.000  Sc
  Sc8      1.0000 0.87500  0.87500  0.11404  Biso   1.000  Sc
  Sc9      1.0000 0.62500  0.62500  0.36404  Biso   1.000  Sc
  Sc10     1.0000 0.62500  0.12500  0.86404  Biso   1.000  Sc
  Sc11     1.0000 0.12500  0.62500  0.86404  Biso   1.000  Sc
  Sc12     1.0000 0.12500  0.12500  0.36404  Biso   1.000  Sc
  Sc13     1.0000 0.62500  0.62500  0.88596  Biso   1.000  Sc
  Sc14     1.0000 0.62500  0.12500  0.38596  Biso   1.000  Sc
  Sc15     1.0000 0.12500  0.62500  0.38596  Biso   1.000  Sc
  Sc16     1.0000 0.12500  0.12500  0.88596  Biso   1.000  Sc
  C193     1.0000 0.12500  0.48660  0.62500  Biso   1.000  C
  C194     1.0000 0.12500  0.55780  0.62500  Biso   1.000  C
  C195     1.0000 0.12500  0.98660  0.12500  Biso   1.000  C
  C196     1.0000 0.12500  0.05780  0.12500  Biso   1.000  C
  C197     1.0000 0.62500  0.98660  0.62500  Biso   1.000  C
  C198     1.0000 0.62500  0.05780  0.62500  Biso   1.000  C
  C199     1.0000 0.62500  0.26340  0.62500  Biso   1.000  C
  C200     1.0000 0.62500  0.19220  0.62500  Biso   1.000  C
  C201     1.0000 0.62500  0.76340  0.12500  Biso   1.000  C
  C202     1.0000 0.62500  0.69220  0.12500  Biso   1.000  C
  C203     1.0000 0.62500  0.48660  0.12500  Biso   1.000  C
  C204     1.0000 0.62500  0.55780  0.12500  Biso   1.000  C
  C205     1.0000 0.12500  0.26340  0.12500  Biso   1.000  C
  C206     1.0000 0.12500  0.19220  0.12500  Biso   1.000  C
  C207     1.0000 0.12500  0.76340  0.62500  Biso   1.000  C
  C208     1.0000 0.12500  0.69220  0.62500  Biso   1.000  C
  C209     1.0000 0.87500  0.51340  0.37500  Biso   1.000  C
  C210     1.0000 0.87500  0.44220  0.37500  Biso   1.000  C
  C211     1.0000 0.87500  0.01340  0.87500  Biso   1.000  C
  C212     1.0000 0.87500  0.94220  0.87500  Biso   1.000  C
  C213     1.0000 0.37500  0.73660  0.37500  Biso   1.000  C
  C214     1.0000 0.37500  0.80780  0.37500  Biso   1.000  C
  C215     1.0000 0.37500  0.23660  0.87500  Biso   1.000  C
  C216     1.0000 0.37500  0.30780  0.87500  Biso   1.000  C
  C217     1.0000 0.37500  0.51340  0.87500  Biso   1.000  C
  C218     1.0000 0.37500  0.44220  0.87500  Biso   1.000  C
  C219     1.0000 0.37500  0.01340  0.37500  Biso   1.000  C
  C220     1.0000 0.37500  0.94220  0.37500  Biso   1.000  C
  C221     1.0000 0.87500  0.73660  0.87500  Biso   1.000  C
  C222     1.0000 0.87500  0.80780  0.87500  Biso   1.000  C
  C223     1.0000 0.87500  0.23660  0.37500  Biso   1.000  C
  C224     1.0000 0.87500  0.30780  0.37500  Biso   1.000  C
