data_image0
_cell_length_a       8.779
_cell_length_b       20.742
_cell_length_c       34.287
_cell_angle_alpha    90
_cell_angle_beta     90
_cell_angle_gamma    90

_symmetry_space_group_name_H-M    "P 1"
_symmetry_int_tables_number       1

loop_
  _symmetry_equiv_pos_as_xyz
  'x, y, z'

loop_
  _atom_site_label
  _atom_site_occupancy
  _atom_site_fract_x
  _atom_site_fract_y
  _atom_site_fract_z
  _atom_site_thermal_displace_type
  _atom_site_B_iso_or_equiv
  _atom_site_type_symbol
  O1       1.0000 0.24590  0.33440  0.59262  Biso   1.000  O
  O2       1.0000 0.00910  0.33320  0.57028  Biso   1.000  O
  O3       1.0000 0.24300  0.45820  0.63522  Biso   1.000  O
  C1       1.0000 0.14840  0.32030  0.56770  Biso   1.000  C
  C2       1.0000 0.20210  0.28370  0.53240  Biso   1.000  C
  C3       1.0000 0.09630  0.26420  0.50450  Biso   1.000  C
  C4       1.0000 0.14780  0.23060  0.47220  Biso   1.000  C
  C5       1.0000 0.25550  0.58950  0.63740  Biso   1.000  C
  C6       1.0000 0.25140  0.65650  0.63700  Biso   1.000  C
  H1       1.0000 0.99100  0.27360  0.50770  Biso   1.000  H
  H2       1.0000 0.07700  0.21730  0.45290  Biso   1.000  H
  H3       1.0000 0.34310  0.56650  0.64580  Biso   1.000  H
  H4       1.0000 0.33930  0.67940  0.64540  Biso   1.000  H
  O4       1.0000 0.24590  0.83440  0.09262  Biso   1.000  O
  O5       1.0000 0.00910  0.83320  0.07028  Biso   1.000  O
  O6       1.0000 0.24300  0.95820  0.13522  Biso   1.000  O
  C7       1.0000 0.14840  0.82030  0.06770  Biso   1.000  C
  C8       1.0000 0.20210  0.78370  0.03240  Biso   1.000  C
  C9       1.0000 0.09630  0.76420  0.00450  Biso   1.000  C
  C10      1.0000 0.14780  0.73060  0.97220  Biso   1.000  C
  C11      1.0000 0.25550  0.08950  0.13740  Biso   1.000  C
  C12      1.0000 0.25140  0.15650  0.13700  Biso   1.000  C
  H5       1.0000 0.99100  0.77360  0.00770  Biso   1.000  H
  H6       1.0000 0.07700  0.71730  0.95290  Biso   1.000  H
  H7       1.0000 0.34310  0.06650  0.14580  Biso   1.000  H
  H8       1.0000 0.33930  0.17940  0.14540  Biso   1.000  H
  O7       1.0000 0.74590  0.33440  0.09262  Biso   1.000  O
  O8       1.0000 0.50910  0.33320  0.07028  Biso   1.000  O
  O9       1.0000 0.74300  0.45820  0.13522  Biso   1.000  O
  C13      1.0000 0.64840  0.32030  0.06770  Biso   1.000  C
  C14      1.0000 0.70210  0.28370  0.03240  Biso   1.000  C
  C15      1.0000 0.59630  0.26420  0.00450  Biso   1.000  C
  C16      1.0000 0.64780  0.23060  0.97220  Biso   1.000  C
  C17      1.0000 0.75550  0.58950  0.13740  Biso   1.000  C
  C18      1.0000 0.75140  0.65650  0.13700  Biso   1.000  C
  H9       1.0000 0.49100  0.27360  0.00770  Biso   1.000  H
  H10      1.0000 0.57700  0.21730  0.95290  Biso   1.000  H
  H11      1.0000 0.84310  0.56650  0.14580  Biso   1.000  H
  H12      1.0000 0.83930  0.67940  0.14540  Biso   1.000  H
  O10      1.0000 0.74590  0.83440  0.59262  Biso   1.000  O
  O11      1.0000 0.50910  0.83320  0.57028  Biso   1.000  O
  O12      1.0000 0.74300  0.95820  0.63522  Biso   1.000  O
  C19      1.0000 0.64840  0.82030  0.56770  Biso   1.000  C
  C20      1.0000 0.70210  0.78370  0.53240  Biso   1.000  C
  C21      1.0000 0.59630  0.76420  0.50450  Biso   1.000  C
  C22      1.0000 0.64780  0.73060  0.47220  Biso   1.000  C
  C23      1.0000 0.75550  0.08950  0.63740  Biso   1.000  C
  C24      1.0000 0.75140  0.15650  0.63700  Biso   1.000  C
  H13      1.0000 0.49100  0.77360  0.50770  Biso   1.000  H
  H14      1.0000 0.57700  0.71730  0.45290  Biso   1.000  H
  H15      1.0000 0.84310  0.06650  0.64580  Biso   1.000  H
  H16      1.0000 0.83930  0.17940  0.64540  Biso   1.000  H
  O13      1.0000 0.50410  0.41560  0.59262  Biso   1.000  O
  O14      1.0000 0.74090  0.41680  0.57028  Biso   1.000  O
  O15      1.0000 0.50700  0.29180  0.63522  Biso   1.000  O
  C25      1.0000 0.60160  0.42970  0.56770  Biso   1.000  C
  C26      1.0000 0.54790  0.46630  0.53240  Biso   1.000  C
  C27      1.0000 0.65370  0.48580  0.50450  Biso   1.000  C
  C28      1.0000 0.60220  0.51940  0.47220  Biso   1.000  C
  C29      1.0000 0.49450  0.16050  0.63740  Biso   1.000  C
  C30      1.0000 0.49860  0.09350  0.63700  Biso   1.000  C
  H17      1.0000 0.75900  0.47640  0.50770  Biso   1.000  H
  H18      1.0000 0.67300  0.53270  0.45290  Biso   1.000  H
  H19      1.0000 0.40690  0.18350  0.64580  Biso   1.000  H
  H20      1.0000 0.41070  0.07060  0.64540  Biso   1.000  H
  O16      1.0000 0.50410  0.91560  0.09262  Biso   1.000  O
  O17      1.0000 0.74090  0.91680  0.07028  Biso   1.000  O
  O18      1.0000 0.50700  0.79180  0.13522  Biso   1.000  O
  C31      1.0000 0.60160  0.92970  0.06770  Biso   1.000  C
  C32      1.0000 0.54790  0.96630  0.03240  Biso   1.000  C
  C33      1.0000 0.65370  0.98580  0.00450  Biso   1.000  C
  C34      1.0000 0.60220  0.01940  0.97220  Biso   1.000  C
  C35      1.0000 0.49450  0.66050  0.13740  Biso   1.000  C
  C36      1.0000 0.49860  0.59350  0.13700  Biso   1.000  C
  H21      1.0000 0.75900  0.97640  0.00770  Biso   1.000  H
  H22      1.0000 0.67300  0.03270  0.95290  Biso   1.000  H
  H23      1.0000 0.40690  0.68350  0.14580  Biso   1.000  H
  H24      1.0000 0.41070  0.57060  0.14540  Biso   1.000  H
  O19      1.0000 0.00410  0.41560  0.09262  Biso   1.000  O
  O20      1.0000 0.24090  0.41680  0.07028  Biso   1.000  O
  O21      1.0000 0.00700  0.29180  0.13522  Biso   1.000  O
  C37      1.0000 0.10160  0.42970  0.06770  Biso   1.000  C
  C38      1.0000 0.04790  0.46630  0.03240  Biso   1.000  C
  C39      1.0000 0.15370  0.48580  0.00450  Biso   1.000  C
  C40      1.0000 0.10220  0.51940  0.97220  Biso   1.000  C
  C41      1.0000 0.99450  0.16050  0.13740  Biso   1.000  C
  C42      1.0000 0.99860  0.09350  0.13700  Biso   1.000  C
  H25      1.0000 0.25900  0.47640  0.00770  Biso   1.000  H
  H26      1.0000 0.17300  0.53270  0.95290  Biso   1.000  H
  H27      1.0000 0.90690  0.18350  0.14580  Biso   1.000  H
  H28      1.0000 0.91070  0.07060  0.14540  Biso   1.000  H
  O22      1.0000 0.00410  0.91560  0.59262  Biso   1.000  O
  O23      1.0000 0.24090  0.91680  0.57028  Biso   1.000  O
  O24      1.0000 0.00700  0.79180  0.63522  Biso   1.000  O
  C43      1.0000 0.10160  0.92970  0.56770  Biso   1.000  C
  C44      1.0000 0.04790  0.96630  0.53240  Biso   1.000  C
  C45      1.0000 0.15370  0.98580  0.50450  Biso   1.000  C
  C46      1.0000 0.10220  0.01940  0.47220  Biso   1.000  C
  C47      1.0000 0.99450  0.66050  0.63740  Biso   1.000  C
  C48      1.0000 0.99860  0.59350  0.63700  Biso   1.000  C
  H29      1.0000 0.25900  0.97640  0.50770  Biso   1.000  H
  H30      1.0000 0.17300  0.03270  0.45290  Biso   1.000  H
  H31      1.0000 0.90690  0.68350  0.64580  Biso   1.000  H
  H32      1.0000 0.91070  0.57060  0.64540  Biso   1.000  H
  O25      1.0000 0.50410  0.33440  0.15738  Biso   1.000  O
  O26      1.0000 0.74090  0.33320  0.17972  Biso   1.000  O
  O27      1.0000 0.50700  0.45820  0.11478  Biso   1.000  O
  C49      1.0000 0.60160  0.32030  0.18230  Biso   1.000  C
  C50      1.0000 0.54790  0.28370  0.21760  Biso   1.000  C
  C51      1.0000 0.65370  0.26420  0.24550  Biso   1.000  C
  C52      1.0000 0.60220  0.23060  0.27780  Biso   1.000  C
  C53      1.0000 0.49450  0.58950  0.11260  Biso   1.000  C
  C54      1.0000 0.49860  0.65650  0.11300  Biso   1.000  C
  H33      1.0000 0.75900  0.27360  0.24230  Biso   1.000  H
  H34      1.0000 0.67300  0.21730  0.29710  Biso   1.000  H
  H35      1.0000 0.40690  0.56650  0.10420  Biso   1.000  H
  H36      1.0000 0.41070  0.67940  0.10460  Biso   1.000  H
  O28      1.0000 0.50410  0.83440  0.65738  Biso   1.000  O
  O29      1.0000 0.74090  0.83320  0.67972  Biso   1.000  O
  O30      1.0000 0.50700  0.95820  0.61478  Biso   1.000  O
  C55      1.0000 0.60160  0.82030  0.68230  Biso   1.000  C
  C56      1.0000 0.54790  0.78370  0.71760  Biso   1.000  C
  C57      1.0000 0.65370  0.76420  0.74550  Biso   1.000  C
  C58      1.0000 0.60220  0.73060  0.77780  Biso   1.000  C
  C59      1.0000 0.49450  0.08950  0.61260  Biso   1.000  C
  C60      1.0000 0.49860  0.15650  0.61300  Biso   1.000  C
  H37      1.0000 0.75900  0.77360  0.74230  Biso   1.000  H
  H38      1.0000 0.67300  0.71730  0.79710  Biso   1.000  H
  H39      1.0000 0.40690  0.06650  0.60420  Biso   1.000  H
  H40      1.0000 0.41070  0.17940  0.60460  Biso   1.000  H
  O31      1.0000 0.00410  0.33440  0.65738  Biso   1.000  O
  O32      1.0000 0.24090  0.33320  0.67972  Biso   1.000  O
  O33      1.0000 0.00700  0.45820  0.61478  Biso   1.000  O
  C61      1.0000 0.10160  0.32030  0.68230  Biso   1.000  C
  C62      1.0000 0.04790  0.28370  0.71760  Biso   1.000  C
  C63      1.0000 0.15370  0.26420  0.74550  Biso   1.000  C
  C64      1.0000 0.10220  0.23060  0.77780  Biso   1.000  C
  C65      1.0000 0.99450  0.58950  0.61260  Biso   1.000  C
  C66      1.0000 0.99860  0.65650  0.61300  Biso   1.000  C
  H41      1.0000 0.25900  0.27360  0.74230  Biso   1.000  H
  H42      1.0000 0.17300  0.21730  0.79710  Biso   1.000  H
  H43      1.0000 0.90690  0.56650  0.60420  Biso   1.000  H
  H44      1.0000 0.91070  0.67940  0.60460  Biso   1.000  H
  O34      1.0000 0.00410  0.83440  0.15738  Biso   1.000  O
  O35      1.0000 0.24090  0.83320  0.17972  Biso   1.000  O
  O36      1.0000 0.00700  0.95820  0.11478  Biso   1.000  O
  C67      1.0000 0.10160  0.82030  0.18230  Biso   1.000  C
  C68      1.0000 0.04790  0.78370  0.21760  Biso   1.000  C
  C69      1.0000 0.15370  0.76420  0.24550  Biso   1.000  C
  C70      1.0000 0.10220  0.73060  0.27780  Biso   1.000  C
  C71      1.0000 0.99450  0.08950  0.11260  Biso   1.000  C
  C72      1.0000 0.99860  0.15650  0.11300  Biso   1.000  C
  H45      1.0000 0.25900  0.77360  0.24230  Biso   1.000  H
  H46      1.0000 0.17300  0.71730  0.29710  Biso   1.000  H
  H47      1.0000 0.90690  0.06650  0.10420  Biso   1.000  H
  H48      1.0000 0.91070  0.17940  0.10460  Biso   1.000  H
  O37      1.0000 0.24590  0.41560  0.15738  Biso   1.000  O
  O38      1.0000 0.00910  0.41680  0.17972  Biso   1.000  O
  O39      1.0000 0.24300  0.29180  0.11478  Biso   1.000  O
  C73      1.0000 0.14840  0.42970  0.18230  Biso   1.000  C
  C74      1.0000 0.20210  0.46630  0.21760  Biso   1.000  C
  C75      1.0000 0.09630  0.48580  0.24550  Biso   1.000  C
  C76      1.0000 0.14780  0.51940  0.27780  Biso   1.000  C
  C77      1.0000 0.25550  0.16050  0.11260  Biso   1.000  C
  C78      1.0000 0.25140  0.09350  0.11300  Biso   1.000  C
  H49      1.0000 0.99100  0.47640  0.24230  Biso   1.000  H
  H50      1.0000 0.07700  0.53270  0.29710  Biso   1.000  H
  H51      1.0000 0.34310  0.18350  0.10420  Biso   1.000  H
  H52      1.0000 0.33930  0.07060  0.10460  Biso   1.000  H
  O40      1.0000 0.24590  0.91560  0.65738  Biso   1.000  O
  O41      1.0000 0.00910  0.91680  0.67972  Biso   1.000  O
  O42      1.0000 0.24300  0.79180  0.61478  Biso   1.000  O
  C79      1.0000 0.14840  0.92970  0.68230  Biso   1.000  C
  C80      1.0000 0.20210  0.96630  0.71760  Biso   1.000  C
  C81      1.0000 0.09630  0.98580  0.74550  Biso   1.000  C
  C82      1.0000 0.14780  0.01940  0.77780  Biso   1.000  C
  C83      1.0000 0.25550  0.66050  0.61260  Biso   1.000  C
  C84      1.0000 0.25140  0.59350  0.61300  Biso   1.000  C
  H53      1.0000 0.99100  0.97640  0.74230  Biso   1.000  H
  H54      1.0000 0.07700  0.03270  0.79710  Biso   1.000  H
  H55      1.0000 0.34310  0.68350  0.60420  Biso   1.000  H
  H56      1.0000 0.33930  0.57060  0.60460  Biso   1.000  H
  O43      1.0000 0.74590  0.41560  0.65738  Biso   1.000  O
  O44      1.0000 0.50910  0.41680  0.67972  Biso   1.000  O
  O45      1.0000 0.74300  0.29180  0.61478  Biso   1.000  O
  C85      1.0000 0.64840  0.42970  0.68230  Biso   1.000  C
  C86      1.0000 0.70210  0.46630  0.71760  Biso   1.000  C
  C87      1.0000 0.59630  0.48580  0.74550  Biso   1.000  C
  C88      1.0000 0.64780  0.51940  0.77780  Biso   1.000  C
  C89      1.0000 0.75550  0.16050  0.61260  Biso   1.000  C
  C90      1.0000 0.75140  0.09350  0.61300  Biso   1.000  C
  H57      1.0000 0.49100  0.47640  0.74230  Biso   1.000  H
  H58      1.0000 0.57700  0.53270  0.79710  Biso   1.000  H
  H59      1.0000 0.84310  0.18350  0.60420  Biso   1.000  H
  H60      1.0000 0.83930  0.07060  0.60460  Biso   1.000  H
  O46      1.0000 0.74590  0.91560  0.15738  Biso   1.000  O
  O47      1.0000 0.50910  0.91680  0.17972  Biso   1.000  O
  O48      1.0000 0.74300  0.79180  0.11478  Biso   1.000  O
  C91      1.0000 0.64840  0.92970  0.18230  Biso   1.000  C
  C92      1.0000 0.70210  0.96630  0.21760  Biso   1.000  C
  C93      1.0000 0.59630  0.98580  0.24550  Biso   1.000  C
  C94      1.0000 0.64780  0.01940  0.27780  Biso   1.000  C
  C95      1.0000 0.75550  0.66050  0.11260  Biso   1.000  C
  C96      1.0000 0.75140  0.59350  0.11300  Biso   1.000  C
  H61      1.0000 0.49100  0.97640  0.24230  Biso   1.000  H
  H62      1.0000 0.57700  0.03270  0.29710  Biso   1.000  H
  H63      1.0000 0.84310  0.68350  0.10420  Biso   1.000  H
  H64      1.0000 0.83930  0.57060  0.10460  Biso   1.000  H
  O49      1.0000 0.75410  0.66560  0.40738  Biso   1.000  O
  O50      1.0000 0.99090  0.66680  0.42972  Biso   1.000  O
  O51      1.0000 0.75700  0.54180  0.36478  Biso   1.000  O
  C97      1.0000 0.85160  0.67970  0.43230  Biso   1.000  C
  C98      1.0000 0.79790  0.71630  0.46760  Biso   1.000  C
  C99      1.0000 0.90370  0.73580  0.49550  Biso   1.000  C
  C100     1.0000 0.85220  0.76940  0.52780  Biso   1.000  C
  C101     1.0000 0.74450  0.41050  0.36260  Biso   1.000  C
  C102     1.0000 0.74860  0.34350  0.36300  Biso   1.000  C
  H65      1.0000 0.00900  0.72640  0.49230  Biso   1.000  H
  H66      1.0000 0.92300  0.78270  0.54710  Biso   1.000  H
  H67      1.0000 0.65690  0.43350  0.35420  Biso   1.000  H
  H68      1.0000 0.66070  0.32060  0.35460  Biso   1.000  H
  O52      1.0000 0.75410  0.16560  0.90738  Biso   1.000  O
  O53      1.0000 0.99090  0.16680  0.92972  Biso   1.000  O
  O54      1.0000 0.75700  0.04180  0.86478  Biso   1.000  O
  C103     1.0000 0.85160  0.17970  0.93230  Biso   1.000  C
  C104     1.0000 0.79790  0.21630  0.96760  Biso   1.000  C
  C105     1.0000 0.90370  0.23580  0.99550  Biso   1.000  C
  C106     1.0000 0.85220  0.26940  0.02780  Biso   1.000  C
  C107     1.0000 0.74450  0.91050  0.86260  Biso   1.000  C
  C108     1.0000 0.74860  0.84350  0.86300  Biso   1.000  C
  H69      1.0000 0.00900  0.22640  0.99230  Biso   1.000  H
  H70      1.0000 0.92300  0.28270  0.04710  Biso   1.000  H
  H71      1.0000 0.65690  0.93350  0.85420  Biso   1.000  H
  H72      1.0000 0.66070  0.82060  0.85460  Biso   1.000  H
  O55      1.0000 0.25410  0.66560  0.90738  Biso   1.000  O
  O56      1.0000 0.49090  0.66680  0.92972  Biso   1.000  O
  O57      1.0000 0.25700  0.54180  0.86478  Biso   1.000  O
  C109     1.0000 0.35160  0.67970  0.93230  Biso   1.000  C
  C110     1.0000 0.29790  0.71630  0.96760  Biso   1.000  C
  C111     1.0000 0.40370  0.73580  0.99550  Biso   1.000  C
  C112     1.0000 0.35220  0.76940  0.02780  Biso   1.000  C
  C113     1.0000 0.24450  0.41050  0.86260  Biso   1.000  C
  C114     1.0000 0.24860  0.34350  0.86300  Biso   1.000  C
  H73      1.0000 0.50900  0.72640  0.99230  Biso   1.000  H
  H74      1.0000 0.42300  0.78270  0.04710  Biso   1.000  H
  H75      1.0000 0.15690  0.43350  0.85420  Biso   1.000  H
  H76      1.0000 0.16070  0.32060  0.85460  Biso   1.000  H
  O58      1.0000 0.25410  0.16560  0.40738  Biso   1.000  O
  O59      1.0000 0.49090  0.16680  0.42972  Biso   1.000  O
  O60      1.0000 0.25700  0.04180  0.36478  Biso   1.000  O
  C115     1.0000 0.35160  0.17970  0.43230  Biso   1.000  C
  C116     1.0000 0.29790  0.21630  0.46760  Biso   1.000  C
  C117     1.0000 0.40370  0.23580  0.49550  Biso   1.000  C
  C118     1.0000 0.35220  0.26940  0.52780  Biso   1.000  C
  C119     1.0000 0.24450  0.91050  0.36260  Biso   1.000  C
  C120     1.0000 0.24860  0.84350  0.36300  Biso   1.000  C
  H77      1.0000 0.50900  0.22640  0.49230  Biso   1.000  H
  H78      1.0000 0.42300  0.28270  0.54710  Biso   1.000  H
  H79      1.0000 0.15690  0.93350  0.35420  Biso   1.000  H
  H80      1.0000 0.16070  0.82060  0.35460  Biso   1.000  H
  O61      1.0000 0.49590  0.58440  0.40738  Biso   1.000  O
  O62      1.0000 0.25910  0.58320  0.42972  Biso   1.000  O
  O63      1.0000 0.49300  0.70820  0.36478  Biso   1.000  O
  C121     1.0000 0.39840  0.57030  0.43230  Biso   1.000  C
  C122     1.0000 0.45210  0.53370  0.46760  Biso   1.000  C
  C123     1.0000 0.34630  0.51420  0.49550  Biso   1.000  C
  C124     1.0000 0.39780  0.48060  0.52780  Biso   1.000  C
  C125     1.0000 0.50550  0.83950  0.36260  Biso   1.000  C
  C126     1.0000 0.50140  0.90650  0.36300  Biso   1.000  C
  H81      1.0000 0.24100  0.52360  0.49230  Biso   1.000  H
  H82      1.0000 0.32700  0.46730  0.54710  Biso   1.000  H
  H83      1.0000 0.59310  0.81650  0.35420  Biso   1.000  H
  H84      1.0000 0.58930  0.92940  0.35460  Biso   1.000  H
  O64      1.0000 0.49590  0.08440  0.90738  Biso   1.000  O
  O65      1.0000 0.25910  0.08320  0.92972  Biso   1.000  O
  O66      1.0000 0.49300  0.20820  0.86478  Biso   1.000  O
  C127     1.0000 0.39840  0.07030  0.93230  Biso   1.000  C
  C128     1.0000 0.45210  0.03370  0.96760  Biso   1.000  C
  C129     1.0000 0.34630  0.01420  0.99550  Biso   1.000  C
  C130     1.0000 0.39780  0.98060  0.02780  Biso   1.000  C
  C131     1.0000 0.50550  0.33950  0.86260  Biso   1.000  C
  C132     1.0000 0.50140  0.40650  0.86300  Biso   1.000  C
  H85      1.0000 0.24100  0.02360  0.99230  Biso   1.000  H
  H86      1.0000 0.32700  0.96730  0.04710  Biso   1.000  H
  H87      1.0000 0.59310  0.31650  0.85420  Biso   1.000  H
  H88      1.0000 0.58930  0.42940  0.85460  Biso   1.000  H
  O67      1.0000 0.99590  0.58440  0.90738  Biso   1.000  O
  O68      1.0000 0.75910  0.58320  0.92972  Biso   1.000  O
  O69      1.0000 0.99300  0.70820  0.86478  Biso   1.000  O
  C133     1.0000 0.89840  0.57030  0.93230  Biso   1.000  C
  C134     1.0000 0.95210  0.53370  0.96760  Biso   1.000  C
  C135     1.0000 0.84630  0.51420  0.99550  Biso   1.000  C
  C136     1.0000 0.89780  0.48060  0.02780  Biso   1.000  C
  C137     1.0000 0.00550  0.83950  0.86260  Biso   1.000  C
  C138     1.0000 0.00140  0.90650  0.86300  Biso   1.000  C
  H89      1.0000 0.74100  0.52360  0.99230  Biso   1.000  H
  H90      1.0000 0.82700  0.46730  0.04710  Biso   1.000  H
  H91      1.0000 0.09310  0.81650  0.85420  Biso   1.000  H
  H92      1.0000 0.08930  0.92940  0.85460  Biso   1.000  H
  O70      1.0000 0.99590  0.08440  0.40738  Biso   1.000  O
  O71      1.0000 0.75910  0.08320  0.42972  Biso   1.000  O
  O72      1.0000 0.99300  0.20820  0.36478  Biso   1.000  O
  C139     1.0000 0.89840  0.07030  0.43230  Biso   1.000  C
  C140     1.0000 0.95210  0.03370  0.46760  Biso   1.000  C
  C141     1.0000 0.84630  0.01420  0.49550  Biso   1.000  C
  C142     1.0000 0.89780  0.98060  0.52780  Biso   1.000  C
  C143     1.0000 0.00550  0.33950  0.36260  Biso   1.000  C
  C144     1.0000 0.00140  0.40650  0.36300  Biso   1.000  C
  H93      1.0000 0.74100  0.02360  0.49230  Biso   1.000  H
  H94      1.0000 0.82700  0.96730  0.54710  Biso   1.000  H
  H95      1.0000 0.09310  0.31650  0.35420  Biso   1.000  H
  H96      1.0000 0.08930  0.42940  0.35460  Biso   1.000  H
  O73      1.0000 0.49590  0.66560  0.84262  Biso   1.000  O
  O74      1.0000 0.25910  0.66680  0.82028  Biso   1.000  O
  O75      1.0000 0.49300  0.54180  0.88522  Biso   1.000  O
  C145     1.0000 0.39840  0.67970  0.81770  Biso   1.000  C
  C146     1.0000 0.45210  0.71630  0.78240  Biso   1.000  C
  C147     1.0000 0.34630  0.73580  0.75450  Biso   1.000  C
  C148     1.0000 0.39780  0.76940  0.72220  Biso   1.000  C
  C149     1.0000 0.50550  0.41050  0.88740  Biso   1.000  C
  C150     1.0000 0.50140  0.34350  0.88700  Biso   1.000  C
  H97      1.0000 0.24100  0.72640  0.75770  Biso   1.000  H
  H98      1.0000 0.32700  0.78270  0.70290  Biso   1.000  H
  H99      1.0000 0.59310  0.43350  0.89580  Biso   1.000  H
  H100     1.0000 0.58930  0.32060  0.89540  Biso   1.000  H
  O76      1.0000 0.49590  0.16560  0.34262  Biso   1.000  O
  O77      1.0000 0.25910  0.16680  0.32028  Biso   1.000  O
  O78      1.0000 0.49300  0.04180  0.38522  Biso   1.000  O
  C151     1.0000 0.39840  0.17970  0.31770  Biso   1.000  C
  C152     1.0000 0.45210  0.21630  0.28240  Biso   1.000  C
  C153     1.0000 0.34630  0.23580  0.25450  Biso   1.000  C
  C154     1.0000 0.39780  0.26940  0.22220  Biso   1.000  C
  C155     1.0000 0.50550  0.91050  0.38740  Biso   1.000  C
  C156     1.0000 0.50140  0.84350  0.38700  Biso   1.000  C
  H101     1.0000 0.24100  0.22640  0.25770  Biso   1.000  H
  H102     1.0000 0.32700  0.28270  0.20290  Biso   1.000  H
  H103     1.0000 0.59310  0.93350  0.39580  Biso   1.000  H
  H104     1.0000 0.58930  0.82060  0.39540  Biso   1.000  H
  O79      1.0000 0.99590  0.66560  0.34262  Biso   1.000  O
  O80      1.0000 0.75910  0.66680  0.32028  Biso   1.000  O
  O81      1.0000 0.99300  0.54180  0.38522  Biso   1.000  O
  C157     1.0000 0.89840  0.67970  0.31770  Biso   1.000  C
  C158     1.0000 0.95210  0.71630  0.28240  Biso   1.000  C
  C159     1.0000 0.84630  0.73580  0.25450  Biso   1.000  C
  C160     1.0000 0.89780  0.76940  0.22220  Biso   1.000  C
  C161     1.0000 0.00550  0.41050  0.38740  Biso   1.000  C
  C162     1.0000 0.00140  0.34350  0.38700  Biso   1.000  C
  H105     1.0000 0.74100  0.72640  0.25770  Biso   1.000  H
  H106     1.0000 0.82700  0.78270  0.20290  Biso   1.000  H
  H107     1.0000 0.09310  0.43350  0.39580  Biso   1.000  H
  H108     1.0000 0.08930  0.32060  0.39540  Biso   1.000  H
  O82      1.0000 0.99590  0.16560  0.84262  Biso   1.000  O
  O83      1.0000 0.75910  0.16680  0.82028  Biso   1.000  O
  O84      1.0000 0.99300  0.04180  0.88522  Biso   1.000  O
  C163     1.0000 0.89840  0.17970  0.81770  Biso   1.000  C
  C164     1.0000 0.95210  0.21630  0.78240  Biso   1.000  C
  C165     1.0000 0.84630  0.23580  0.75450  Biso   1.000  C
  C166     1.0000 0.89780  0.26940  0.72220  Biso   1.000  C
  C167     1.0000 0.00550  0.91050  0.88740  Biso   1.000  C
  C168     1.0000 0.00140  0.84350  0.88700  Biso   1.000  C
  H109     1.0000 0.74100  0.22640  0.75770  Biso   1.000  H
  H110     1.0000 0.82700  0.28270  0.70290  Biso   1.000  H
  H111     1.0000 0.09310  0.93350  0.89580  Biso   1.000  H
  H112     1.0000 0.08930  0.82060  0.89540  Biso   1.000  H
  O85      1.0000 0.75410  0.58440  0.84262  Biso   1.000  O
  O86      1.0000 0.99090  0.58320  0.82028  Biso   1.000  O
  O87      1.0000 0.75700  0.70820  0.88522  Biso   1.000  O
  C169     1.0000 0.85160  0.57030  0.81770  Biso   1.000  C
  C170     1.0000 0.79790  0.53370  0.78240  Biso   1.000  C
  C171     1.0000 0.90370  0.51420  0.75450  Biso   1.000  C
  C172     1.0000 0.85220  0.48060  0.72220  Biso   1.000  C
  C173     1.0000 0.74450  0.83950  0.88740  Biso   1.000  C
  C174     1.0000 0.74860  0.90650  0.88700  Biso   1.000  C
  H113     1.0000 0.00900  0.52360  0.75770  Biso   1.000  H
  H114     1.0000 0.92300  0.46730  0.70290  Biso   1.000  H
  H115     1.0000 0.65690  0.81650  0.89580  Biso   1.000  H
  H116     1.0000 0.66070  0.92940  0.89540  Biso   1.000  H
  O88      1.0000 0.75410  0.08440  0.34262  Biso   1.000  O
  O89      1.0000 0.99090  0.08320  0.32028  Biso   1.000  O
  O90      1.0000 0.75700  0.20820  0.38522  Biso   1.000  O
  C175     1.0000 0.85160  0.07030  0.31770  Biso   1.000  C
  C176     1.0000 0.79790  0.03370  0.28240  Biso   1.000  C
  C177     1.0000 0.90370  0.01420  0.25450  Biso   1.000  C
  C178     1.0000 0.85220  0.98060  0.22220  Biso   1.000  C
  C179     1.0000 0.74450  0.33950  0.38740  Biso   1.000  C
  C180     1.0000 0.74860  0.40650  0.38700  Biso   1.000  C
  H117     1.0000 0.00900  0.02360  0.25770  Biso   1.000  H
  H118     1.0000 0.92300  0.96730  0.20290  Biso   1.000  H
  H119     1.0000 0.65690  0.31650  0.39580  Biso   1.000  H
  H120     1.0000 0.66070  0.42940  0.39540  Biso   1.000  H
  O91      1.0000 0.25410  0.58440  0.34262  Biso   1.000  O
  O92      1.0000 0.49090  0.58320  0.32028  Biso   1.000  O
  O93      1.0000 0.25700  0.70820  0.38522  Biso   1.000  O
  C181     1.0000 0.35160  0.57030  0.31770  Biso   1.000  C
  C182     1.0000 0.29790  0.53370  0.28240  Biso   1.000  C
  C183     1.0000 0.40370  0.51420  0.25450  Biso   1.000  C
  C184     1.0000 0.35220  0.48060  0.22220  Biso   1.000  C
  C185     1.0000 0.24450  0.83950  0.38740  Biso   1.000  C
  C186     1.0000 0.24860  0.90650  0.38700  Biso   1.000  C
  H121     1.0000 0.50900  0.52360  0.25770  Biso   1.000  H
  H122     1.0000 0.42300  0.46730  0.20290  Biso   1.000  H
  H123     1.0000 0.15690  0.81650  0.39580  Biso   1.000  H
  H124     1.0000 0.16070  0.92940  0.39540  Biso   1.000  H
  O94      1.0000 0.25410  0.08440  0.84262  Biso   1.000  O
  O95      1.0000 0.49090  0.08320  0.82028  Biso   1.000  O
  O96      1.0000 0.25700  0.20820  0.88522  Biso   1.000  O
  C187     1.0000 0.35160  0.07030  0.81770  Biso   1.000  C
  C188     1.0000 0.29790  0.03370  0.78240  Biso   1.000  C
  C189     1.0000 0.40370  0.01420  0.75450  Biso   1.000  C
  C190     1.0000 0.35220  0.98060  0.72220  Biso   1.000  C
  C191     1.0000 0.24450  0.33950  0.88740  Biso   1.000  C
  C192     1.0000 0.24860  0.40650  0.88700  Biso   1.000  C
  H125     1.0000 0.50900  0.02360  0.75770  Biso   1.000  H
  H126     1.0000 0.42300  0.96730  0.70290  Biso   1.000  H
  H127     1.0000 0.15690  0.31650  0.89580  Biso   1.000  H
  H128     1.0000 0.16070  0.42940  0.89540  Biso   1.000  H
  Sc1      1.0000 0.37500  0.37500  0.63577  Biso   1.000  Sc
  Sc2      1.0000 0.37500  0.87500  0.13577  Biso   1.000  Sc
  Sc3      1.0000 0.87500  0.37500  0.13577  Biso   1.000  Sc
  Sc4      1.0000 0.87500  0.87500  0.63577  Biso   1.000  Sc
  Sc5      1.0000 0.37500  0.37500  0.11423  Biso   1.000  Sc
  Sc6      1.0000 0.37500  0.87500  0.61423  Biso   1.000  Sc
  Sc7      1.0000 0.87500  0.37500  0.61423  Biso   1.000  Sc
  Sc8      1.0000 0.87500  0.87500  0.11423  Biso   1.000  Sc
  Sc9      1.0000 0.62500  0.62500  0.36423  Biso   1.000  Sc
  Sc10     1.0000 0.62500  0.12500  0.86423  Biso   1.000  Sc
  Sc11     1.0000 0.12500  0.62500  0.86423  Biso   1.000  Sc
  Sc12     1.0000 0.12500  0.12500  0.36423  Biso   1.000  Sc
  Sc13     1.0000 0.62500  0.62500  0.88577  Biso   1.000  Sc
  Sc14     1.0000 0.62500  0.12500  0.38577  Biso   1.000  Sc
  Sc15     1.0000 0.12500  0.62500  0.38577  Biso   1.000  Sc
  Sc16     1.0000 0.12500  0.12500  0.88577  Biso   1.000  Sc
  C193     1.0000 0.12500  0.48620  0.62500  Biso   1.000  C
  C194     1.0000 0.12500  0.55810  0.62500  Biso   1.000  C
  C195     1.0000 0.12500  0.98620  0.12500  Biso   1.000  C
  C196     1.0000 0.12500  0.05810  0.12500  Biso   1.000  C
  C197     1.0000 0.62500  0.98620  0.62500  Biso   1.000  C
  C198     1.0000 0.62500  0.05810  0.62500  Biso   1.000  C
  C199     1.0000 0.62500  0.26380  0.62500  Biso   1.000  C
  C200     1.0000 0.62500  0.19190  0.62500  Biso   1.000  C
  C201     1.0000 0.62500  0.76380  0.12500  Biso   1.000  C
  C202     1.0000 0.62500  0.69190  0.12500  Biso   1.000  C
  C203     1.0000 0.62500  0.48620  0.12500  Biso   1.000  C
  C204     1.0000 0.62500  0.55810  0.12500  Biso   1.000  C
  C205     1.0000 0.12500  0.26380  0.12500  Biso   1.000  C
  C206     1.0000 0.12500  0.19190  0.12500  Biso   1.000  C
  C207     1.0000 0.12500  0.76380  0.62500  Biso   1.000  C
  C208     1.0000 0.12500  0.69190  0.62500  Biso   1.000  C
  C209     1.0000 0.87500  0.51380  0.37500  Biso   1.000  C
  C210     1.0000 0.87500  0.44190  0.37500  Biso   1.000  C
  C211     1.0000 0.87500  0.01380  0.87500  Biso   1.000  C
  C212     1.0000 0.87500  0.94190  0.87500  Biso   1.000  C
  C213     1.0000 0.37500  0.73620  0.37500  Biso   1.000  C
  C214     1.0000 0.37500  0.80810  0.37500  Biso   1.000  C
  C215     1.0000 0.37500  0.23620  0.87500  Biso   1.000  C
  C216     1.0000 0.37500  0.30810  0.87500  Biso   1.000  C
  C217     1.0000 0.37500  0.51380  0.87500  Biso   1.000  C
  C218     1.0000 0.37500  0.44190  0.87500  Biso   1.000  C
  C219     1.0000 0.37500  0.01380  0.37500  Biso   1.000  C
  C220     1.0000 0.37500  0.94190  0.37500  Biso   1.000  C
  C221     1.0000 0.87500  0.73620  0.87500  Biso   1.000  C
  C222     1.0000 0.87500  0.80810  0.87500  Biso   1.000  C
  C223     1.0000 0.87500  0.23620  0.37500  Biso   1.000  C
  C224     1.0000 0.87500  0.30810  0.37500  Biso   1.000  C
