data_image0
_cell_length_a       8.779
_cell_length_b       20.742
_cell_length_c       34.287
_cell_angle_alpha    90
_cell_angle_beta     90
_cell_angle_gamma    90

_symmetry_space_group_name_H-M    "P 1"
_symmetry_int_tables_number       1

loop_
  _symmetry_equiv_pos_as_xyz
  'x, y, z'

loop_
  _atom_site_label
  _atom_site_occupancy
  _atom_site_fract_x
  _atom_site_fract_y
  _atom_site_fract_z
  _atom_site_thermal_displace_type
  _atom_site_B_iso_or_equiv
  _atom_site_type_symbol
  O1       1.0000 0.24470  0.33510  0.59290  Biso   1.000  O
  O2       1.0000 0.00540  0.33210  0.57090  Biso   1.000  O
  O3       1.0000 0.24120  0.45730  0.63650  Biso   1.000  O
  C1       1.0000 0.14500  0.32150  0.56850  Biso   1.000  C
  C2       1.0000 0.20000  0.28600  0.53310  Biso   1.000  C
  C3       1.0000 0.10300  0.26560  0.50480  Biso   1.000  C
  C4       1.0000 0.15800  0.23080  0.47130  Biso   1.000  C
  C5       1.0000 0.24040  0.58860  0.64530  Biso   1.000  C
  C6       1.0000 0.23400  0.65550  0.64410  Biso   1.000  C
  H1       1.0000 0.99710  0.27540  0.50680  Biso   1.000  H
  H2       1.0000 0.08630  0.21870  0.45180  Biso   1.000  H
  H3       1.0000 0.31670  0.56610  0.65920  Biso   1.000  H
  H4       1.0000 0.31120  0.67860  0.65810  Biso   1.000  H
  O4       1.0000 0.24470  0.83510  0.09290  Biso   1.000  O
  O5       1.0000 0.00540  0.83210  0.07090  Biso   1.000  O
  O6       1.0000 0.24120  0.95730  0.13650  Biso   1.000  O
  C7       1.0000 0.14500  0.82150  0.06850  Biso   1.000  C
  C8       1.0000 0.20000  0.78600  0.03310  Biso   1.000  C
  C9       1.0000 0.10300  0.76560  0.00480  Biso   1.000  C
  C10      1.0000 0.15800  0.73080  0.97130  Biso   1.000  C
  C11      1.0000 0.24040  0.08860  0.14530  Biso   1.000  C
  C12      1.0000 0.23400  0.15550  0.14410  Biso   1.000  C
  H5       1.0000 0.99710  0.77540  0.00680  Biso   1.000  H
  H6       1.0000 0.08630  0.71870  0.95180  Biso   1.000  H
  H7       1.0000 0.31670  0.06610  0.15920  Biso   1.000  H
  H8       1.0000 0.31120  0.17860  0.15810  Biso   1.000  H
  O7       1.0000 0.74470  0.33510  0.09290  Biso   1.000  O
  O8       1.0000 0.50540  0.33210  0.07090  Biso   1.000  O
  O9       1.0000 0.74120  0.45730  0.13650  Biso   1.000  O
  C13      1.0000 0.64500  0.32150  0.06850  Biso   1.000  C
  C14      1.0000 0.70000  0.28600  0.03310  Biso   1.000  C
  C15      1.0000 0.60300  0.26560  0.00480  Biso   1.000  C
  C16      1.0000 0.65800  0.23080  0.97130  Biso   1.000  C
  C17      1.0000 0.74040  0.58860  0.14530  Biso   1.000  C
  C18      1.0000 0.73400  0.65550  0.14410  Biso   1.000  C
  H9       1.0000 0.49710  0.27540  0.00680  Biso   1.000  H
  H10      1.0000 0.58630  0.21870  0.95180  Biso   1.000  H
  H11      1.0000 0.81670  0.56610  0.15920  Biso   1.000  H
  H12      1.0000 0.81120  0.67860  0.15810  Biso   1.000  H
  O10      1.0000 0.74470  0.83510  0.59290  Biso   1.000  O
  O11      1.0000 0.50540  0.83210  0.57090  Biso   1.000  O
  O12      1.0000 0.74120  0.95730  0.63650  Biso   1.000  O
  C19      1.0000 0.64500  0.82150  0.56850  Biso   1.000  C
  C20      1.0000 0.70000  0.78600  0.53310  Biso   1.000  C
  C21      1.0000 0.60300  0.76560  0.50480  Biso   1.000  C
  C22      1.0000 0.65800  0.73080  0.47130  Biso   1.000  C
  C23      1.0000 0.74040  0.08860  0.64530  Biso   1.000  C
  C24      1.0000 0.73400  0.15550  0.64410  Biso   1.000  C
  H13      1.0000 0.49710  0.77540  0.50680  Biso   1.000  H
  H14      1.0000 0.58630  0.71870  0.45180  Biso   1.000  H
  H15      1.0000 0.81670  0.06610  0.65920  Biso   1.000  H
  H16      1.0000 0.81120  0.17860  0.65810  Biso   1.000  H
  O13      1.0000 0.50530  0.41490  0.59290  Biso   1.000  O
  O14      1.0000 0.74460  0.41790  0.57090  Biso   1.000  O
  O15      1.0000 0.50880  0.29270  0.63650  Biso   1.000  O
  C25      1.0000 0.60500  0.42850  0.56850  Biso   1.000  C
  C26      1.0000 0.55000  0.46400  0.53310  Biso   1.000  C
  C27      1.0000 0.64700  0.48440  0.50480  Biso   1.000  C
  C28      1.0000 0.59200  0.51920  0.47130  Biso   1.000  C
  C29      1.0000 0.50960  0.16140  0.64530  Biso   1.000  C
  C30      1.0000 0.51600  0.09450  0.64410  Biso   1.000  C
  H17      1.0000 0.75290  0.47460  0.50680  Biso   1.000  H
  H18      1.0000 0.66370  0.53130  0.45180  Biso   1.000  H
  H19      1.0000 0.43330  0.18390  0.65920  Biso   1.000  H
  H20      1.0000 0.43880  0.07140  0.65810  Biso   1.000  H
  O16      1.0000 0.50530  0.91490  0.09290  Biso   1.000  O
  O17      1.0000 0.74460  0.91790  0.07090  Biso   1.000  O
  O18      1.0000 0.50880  0.79270  0.13650  Biso   1.000  O
  C31      1.0000 0.60500  0.92850  0.06850  Biso   1.000  C
  C32      1.0000 0.55000  0.96400  0.03310  Biso   1.000  C
  C33      1.0000 0.64700  0.98440  0.00480  Biso   1.000  C
  C34      1.0000 0.59200  0.01920  0.97130  Biso   1.000  C
  C35      1.0000 0.50960  0.66140  0.14530  Biso   1.000  C
  C36      1.0000 0.51600  0.59450  0.14410  Biso   1.000  C
  H21      1.0000 0.75290  0.97460  0.00680  Biso   1.000  H
  H22      1.0000 0.66370  0.03130  0.95180  Biso   1.000  H
  H23      1.0000 0.43330  0.68390  0.15920  Biso   1.000  H
  H24      1.0000 0.43880  0.57140  0.15810  Biso   1.000  H
  O19      1.0000 0.00530  0.41490  0.09290  Biso   1.000  O
  O20      1.0000 0.24460  0.41790  0.07090  Biso   1.000  O
  O21      1.0000 0.00880  0.29270  0.13650  Biso   1.000  O
  C37      1.0000 0.10500  0.42850  0.06850  Biso   1.000  C
  C38      1.0000 0.05000  0.46400  0.03310  Biso   1.000  C
  C39      1.0000 0.14700  0.48440  0.00480  Biso   1.000  C
  C40      1.0000 0.09200  0.51920  0.97130  Biso   1.000  C
  C41      1.0000 0.00960  0.16140  0.14530  Biso   1.000  C
  C42      1.0000 0.01600  0.09450  0.14410  Biso   1.000  C
  H25      1.0000 0.25290  0.47460  0.00680  Biso   1.000  H
  H26      1.0000 0.16370  0.53130  0.95180  Biso   1.000  H
  H27      1.0000 0.93330  0.18390  0.15920  Biso   1.000  H
  H28      1.0000 0.93880  0.07140  0.15810  Biso   1.000  H
  O22      1.0000 0.00530  0.91490  0.59290  Biso   1.000  O
  O23      1.0000 0.24460  0.91790  0.57090  Biso   1.000  O
  O24      1.0000 0.00880  0.79270  0.63650  Biso   1.000  O
  C43      1.0000 0.10500  0.92850  0.56850  Biso   1.000  C
  C44      1.0000 0.05000  0.96400  0.53310  Biso   1.000  C
  C45      1.0000 0.14700  0.98440  0.50480  Biso   1.000  C
  C46      1.0000 0.09200  0.01920  0.47130  Biso   1.000  C
  C47      1.0000 0.00960  0.66140  0.64530  Biso   1.000  C
  C48      1.0000 0.01600  0.59450  0.64410  Biso   1.000  C
  H29      1.0000 0.25290  0.97460  0.50680  Biso   1.000  H
  H30      1.0000 0.16370  0.03130  0.45180  Biso   1.000  H
  H31      1.0000 0.93330  0.68390  0.65920  Biso   1.000  H
  H32      1.0000 0.93880  0.57140  0.65810  Biso   1.000  H
  O25      1.0000 0.50530  0.33510  0.15710  Biso   1.000  O
  O26      1.0000 0.74460  0.33210  0.17910  Biso   1.000  O
  O27      1.0000 0.50880  0.45730  0.11350  Biso   1.000  O
  C49      1.0000 0.60500  0.32150  0.18150  Biso   1.000  C
  C50      1.0000 0.55000  0.28600  0.21690  Biso   1.000  C
  C51      1.0000 0.64700  0.26560  0.24520  Biso   1.000  C
  C52      1.0000 0.59200  0.23080  0.27870  Biso   1.000  C
  C53      1.0000 0.50960  0.58860  0.10470  Biso   1.000  C
  C54      1.0000 0.51600  0.65550  0.10590  Biso   1.000  C
  H33      1.0000 0.75290  0.27540  0.24320  Biso   1.000  H
  H34      1.0000 0.66370  0.21870  0.29820  Biso   1.000  H
  H35      1.0000 0.43330  0.56610  0.09080  Biso   1.000  H
  H36      1.0000 0.43880  0.67860  0.09190  Biso   1.000  H
  O28      1.0000 0.50530  0.83510  0.65710  Biso   1.000  O
  O29      1.0000 0.74460  0.83210  0.67910  Biso   1.000  O
  O30      1.0000 0.50880  0.95730  0.61350  Biso   1.000  O
  C55      1.0000 0.60500  0.82150  0.68150  Biso   1.000  C
  C56      1.0000 0.55000  0.78600  0.71690  Biso   1.000  C
  C57      1.0000 0.64700  0.76560  0.74520  Biso   1.000  C
  C58      1.0000 0.59200  0.73080  0.77870  Biso   1.000  C
  C59      1.0000 0.50960  0.08860  0.60470  Biso   1.000  C
  C60      1.0000 0.51600  0.15550  0.60590  Biso   1.000  C
  H37      1.0000 0.75290  0.77540  0.74320  Biso   1.000  H
  H38      1.0000 0.66370  0.71870  0.79820  Biso   1.000  H
  H39      1.0000 0.43330  0.06610  0.59080  Biso   1.000  H
  H40      1.0000 0.43880  0.17860  0.59190  Biso   1.000  H
  O31      1.0000 0.00530  0.33510  0.65710  Biso   1.000  O
  O32      1.0000 0.24460  0.33210  0.67910  Biso   1.000  O
  O33      1.0000 0.00880  0.45730  0.61350  Biso   1.000  O
  C61      1.0000 0.10500  0.32150  0.68150  Biso   1.000  C
  C62      1.0000 0.05000  0.28600  0.71690  Biso   1.000  C
  C63      1.0000 0.14700  0.26560  0.74520  Biso   1.000  C
  C64      1.0000 0.09200  0.23080  0.77870  Biso   1.000  C
  C65      1.0000 0.00960  0.58860  0.60470  Biso   1.000  C
  C66      1.0000 0.01600  0.65550  0.60590  Biso   1.000  C
  H41      1.0000 0.25290  0.27540  0.74320  Biso   1.000  H
  H42      1.0000 0.16370  0.21870  0.79820  Biso   1.000  H
  H43      1.0000 0.93330  0.56610  0.59080  Biso   1.000  H
  H44      1.0000 0.93880  0.67860  0.59190  Biso   1.000  H
  O34      1.0000 0.00530  0.83510  0.15710  Biso   1.000  O
  O35      1.0000 0.24460  0.83210  0.17910  Biso   1.000  O
  O36      1.0000 0.00880  0.95730  0.11350  Biso   1.000  O
  C67      1.0000 0.10500  0.82150  0.18150  Biso   1.000  C
  C68      1.0000 0.05000  0.78600  0.21690  Biso   1.000  C
  C69      1.0000 0.14700  0.76560  0.24520  Biso   1.000  C
  C70      1.0000 0.09200  0.73080  0.27870  Biso   1.000  C
  C71      1.0000 0.00960  0.08860  0.10470  Biso   1.000  C
  C72      1.0000 0.01600  0.15550  0.10590  Biso   1.000  C
  H45      1.0000 0.25290  0.77540  0.24320  Biso   1.000  H
  H46      1.0000 0.16370  0.71870  0.29820  Biso   1.000  H
  H47      1.0000 0.93330  0.06610  0.09080  Biso   1.000  H
  H48      1.0000 0.93880  0.17860  0.09190  Biso   1.000  H
  O37      1.0000 0.24470  0.41490  0.15710  Biso   1.000  O
  O38      1.0000 0.00540  0.41790  0.17910  Biso   1.000  O
  O39      1.0000 0.24120  0.29270  0.11350  Biso   1.000  O
  C73      1.0000 0.14500  0.42850  0.18150  Biso   1.000  C
  C74      1.0000 0.20000  0.46400  0.21690  Biso   1.000  C
  C75      1.0000 0.10300  0.48440  0.24520  Biso   1.000  C
  C76      1.0000 0.15800  0.51920  0.27870  Biso   1.000  C
  C77      1.0000 0.24040  0.16140  0.10470  Biso   1.000  C
  C78      1.0000 0.23400  0.09450  0.10590  Biso   1.000  C
  H49      1.0000 0.99710  0.47460  0.24320  Biso   1.000  H
  H50      1.0000 0.08630  0.53130  0.29820  Biso   1.000  H
  H51      1.0000 0.31670  0.18390  0.09080  Biso   1.000  H
  H52      1.0000 0.31120  0.07140  0.09190  Biso   1.000  H
  O40      1.0000 0.24470  0.91490  0.65710  Biso   1.000  O
  O41      1.0000 0.00540  0.91790  0.67910  Biso   1.000  O
  O42      1.0000 0.24120  0.79270  0.61350  Biso   1.000  O
  C79      1.0000 0.14500  0.92850  0.68150  Biso   1.000  C
  C80      1.0000 0.20000  0.96400  0.71690  Biso   1.000  C
  C81      1.0000 0.10300  0.98440  0.74520  Biso   1.000  C
  C82      1.0000 0.15800  0.01920  0.77870  Biso   1.000  C
  C83      1.0000 0.24040  0.66140  0.60470  Biso   1.000  C
  C84      1.0000 0.23400  0.59450  0.60590  Biso   1.000  C
  H53      1.0000 0.99710  0.97460  0.74320  Biso   1.000  H
  H54      1.0000 0.08630  0.03130  0.79820  Biso   1.000  H
  H55      1.0000 0.31670  0.68390  0.59080  Biso   1.000  H
  H56      1.0000 0.31120  0.57140  0.59190  Biso   1.000  H
  O43      1.0000 0.74470  0.41490  0.65710  Biso   1.000  O
  O44      1.0000 0.50540  0.41790  0.67910  Biso   1.000  O
  O45      1.0000 0.74120  0.29270  0.61350  Biso   1.000  O
  C85      1.0000 0.64500  0.42850  0.68150  Biso   1.000  C
  C86      1.0000 0.70000  0.46400  0.71690  Biso   1.000  C
  C87      1.0000 0.60300  0.48440  0.74520  Biso   1.000  C
  C88      1.0000 0.65800  0.51920  0.77870  Biso   1.000  C
  C89      1.0000 0.74040  0.16140  0.60470  Biso   1.000  C
  C90      1.0000 0.73400  0.09450  0.60590  Biso   1.000  C
  H57      1.0000 0.49710  0.47460  0.74320  Biso   1.000  H
  H58      1.0000 0.58630  0.53130  0.79820  Biso   1.000  H
  H59      1.0000 0.81670  0.18390  0.59080  Biso   1.000  H
  H60      1.0000 0.81120  0.07140  0.59190  Biso   1.000  H
  O46      1.0000 0.74470  0.91490  0.15710  Biso   1.000  O
  O47      1.0000 0.50540  0.91790  0.17910  Biso   1.000  O
  O48      1.0000 0.74120  0.79270  0.11350  Biso   1.000  O
  C91      1.0000 0.64500  0.92850  0.18150  Biso   1.000  C
  C92      1.0000 0.70000  0.96400  0.21690  Biso   1.000  C
  C93      1.0000 0.60300  0.98440  0.24520  Biso   1.000  C
  C94      1.0000 0.65800  0.01920  0.27870  Biso   1.000  C
  C95      1.0000 0.74040  0.66140  0.10470  Biso   1.000  C
  C96      1.0000 0.73400  0.59450  0.10590  Biso   1.000  C
  H61      1.0000 0.49710  0.97460  0.24320  Biso   1.000  H
  H62      1.0000 0.58630  0.03130  0.29820  Biso   1.000  H
  H63      1.0000 0.81670  0.68390  0.09080  Biso   1.000  H
  H64      1.0000 0.81120  0.57140  0.09190  Biso   1.000  H
  O49      1.0000 0.75530  0.66490  0.40710  Biso   1.000  O
  O50      1.0000 0.99460  0.66790  0.42910  Biso   1.000  O
  O51      1.0000 0.75880  0.54270  0.36350  Biso   1.000  O
  C97      1.0000 0.85500  0.67850  0.43150  Biso   1.000  C
  C98      1.0000 0.80000  0.71400  0.46690  Biso   1.000  C
  C99      1.0000 0.89700  0.73440  0.49520  Biso   1.000  C
  C100     1.0000 0.84200  0.76920  0.52870  Biso   1.000  C
  C101     1.0000 0.75960  0.41140  0.35470  Biso   1.000  C
  C102     1.0000 0.76600  0.34450  0.35590  Biso   1.000  C
  H65      1.0000 0.00290  0.72460  0.49320  Biso   1.000  H
  H66      1.0000 0.91370  0.78130  0.54820  Biso   1.000  H
  H67      1.0000 0.68330  0.43390  0.34080  Biso   1.000  H
  H68      1.0000 0.68880  0.32140  0.34190  Biso   1.000  H
  O52      1.0000 0.75530  0.16490  0.90710  Biso   1.000  O
  O53      1.0000 0.99460  0.16790  0.92910  Biso   1.000  O
  O54      1.0000 0.75880  0.04270  0.86350  Biso   1.000  O
  C103     1.0000 0.85500  0.17850  0.93150  Biso   1.000  C
  C104     1.0000 0.80000  0.21400  0.96690  Biso   1.000  C
  C105     1.0000 0.89700  0.23440  0.99520  Biso   1.000  C
  C106     1.0000 0.84200  0.26920  0.02870  Biso   1.000  C
  C107     1.0000 0.75960  0.91140  0.85470  Biso   1.000  C
  C108     1.0000 0.76600  0.84450  0.85590  Biso   1.000  C
  H69      1.0000 0.00290  0.22460  0.99320  Biso   1.000  H
  H70      1.0000 0.91370  0.28130  0.04820  Biso   1.000  H
  H71      1.0000 0.68330  0.93390  0.84080  Biso   1.000  H
  H72      1.0000 0.68880  0.82140  0.84190  Biso   1.000  H
  O55      1.0000 0.25530  0.66490  0.90710  Biso   1.000  O
  O56      1.0000 0.49460  0.66790  0.92910  Biso   1.000  O
  O57      1.0000 0.25880  0.54270  0.86350  Biso   1.000  O
  C109     1.0000 0.35500  0.67850  0.93150  Biso   1.000  C
  C110     1.0000 0.30000  0.71400  0.96690  Biso   1.000  C
  C111     1.0000 0.39700  0.73440  0.99520  Biso   1.000  C
  C112     1.0000 0.34200  0.76920  0.02870  Biso   1.000  C
  C113     1.0000 0.25960  0.41140  0.85470  Biso   1.000  C
  C114     1.0000 0.26600  0.34450  0.85590  Biso   1.000  C
  H73      1.0000 0.50290  0.72460  0.99320  Biso   1.000  H
  H74      1.0000 0.41370  0.78130  0.04820  Biso   1.000  H
  H75      1.0000 0.18330  0.43390  0.84080  Biso   1.000  H
  H76      1.0000 0.18880  0.32140  0.84190  Biso   1.000  H
  O58      1.0000 0.25530  0.16490  0.40710  Biso   1.000  O
  O59      1.0000 0.49460  0.16790  0.42910  Biso   1.000  O
  O60      1.0000 0.25880  0.04270  0.36350  Biso   1.000  O
  C115     1.0000 0.35500  0.17850  0.43150  Biso   1.000  C
  C116     1.0000 0.30000  0.21400  0.46690  Biso   1.000  C
  C117     1.0000 0.39700  0.23440  0.49520  Biso   1.000  C
  C118     1.0000 0.34200  0.26920  0.52870  Biso   1.000  C
  C119     1.0000 0.25960  0.91140  0.35470  Biso   1.000  C
  C120     1.0000 0.26600  0.84450  0.35590  Biso   1.000  C
  H77      1.0000 0.50290  0.22460  0.49320  Biso   1.000  H
  H78      1.0000 0.41370  0.28130  0.54820  Biso   1.000  H
  H79      1.0000 0.18330  0.93390  0.34080  Biso   1.000  H
  H80      1.0000 0.18880  0.82140  0.34190  Biso   1.000  H
  O61      1.0000 0.49470  0.58510  0.40710  Biso   1.000  O
  O62      1.0000 0.25540  0.58210  0.42910  Biso   1.000  O
  O63      1.0000 0.49120  0.70730  0.36350  Biso   1.000  O
  C121     1.0000 0.39500  0.57150  0.43150  Biso   1.000  C
  C122     1.0000 0.45000  0.53600  0.46690  Biso   1.000  C
  C123     1.0000 0.35300  0.51560  0.49520  Biso   1.000  C
  C124     1.0000 0.40800  0.48080  0.52870  Biso   1.000  C
  C125     1.0000 0.49040  0.83860  0.35470  Biso   1.000  C
  C126     1.0000 0.48400  0.90550  0.35590  Biso   1.000  C
  H81      1.0000 0.24710  0.52540  0.49320  Biso   1.000  H
  H82      1.0000 0.33630  0.46870  0.54820  Biso   1.000  H
  H83      1.0000 0.56670  0.81610  0.34080  Biso   1.000  H
  H84      1.0000 0.56120  0.92860  0.34190  Biso   1.000  H
  O64      1.0000 0.49470  0.08510  0.90710  Biso   1.000  O
  O65      1.0000 0.25540  0.08210  0.92910  Biso   1.000  O
  O66      1.0000 0.49120  0.20730  0.86350  Biso   1.000  O
  C127     1.0000 0.39500  0.07150  0.93150  Biso   1.000  C
  C128     1.0000 0.45000  0.03600  0.96690  Biso   1.000  C
  C129     1.0000 0.35300  0.01560  0.99520  Biso   1.000  C
  C130     1.0000 0.40800  0.98080  0.02870  Biso   1.000  C
  C131     1.0000 0.49040  0.33860  0.85470  Biso   1.000  C
  C132     1.0000 0.48400  0.40550  0.85590  Biso   1.000  C
  H85      1.0000 0.24710  0.02540  0.99320  Biso   1.000  H
  H86      1.0000 0.33630  0.96870  0.04820  Biso   1.000  H
  H87      1.0000 0.56670  0.31610  0.84080  Biso   1.000  H
  H88      1.0000 0.56120  0.42860  0.84190  Biso   1.000  H
  O67      1.0000 0.99470  0.58510  0.90710  Biso   1.000  O
  O68      1.0000 0.75540  0.58210  0.92910  Biso   1.000  O
  O69      1.0000 0.99120  0.70730  0.86350  Biso   1.000  O
  C133     1.0000 0.89500  0.57150  0.93150  Biso   1.000  C
  C134     1.0000 0.95000  0.53600  0.96690  Biso   1.000  C
  C135     1.0000 0.85300  0.51560  0.99520  Biso   1.000  C
  C136     1.0000 0.90800  0.48080  0.02870  Biso   1.000  C
  C137     1.0000 0.99040  0.83860  0.85470  Biso   1.000  C
  C138     1.0000 0.98400  0.90550  0.85590  Biso   1.000  C
  H89      1.0000 0.74710  0.52540  0.99320  Biso   1.000  H
  H90      1.0000 0.83630  0.46870  0.04820  Biso   1.000  H
  H91      1.0000 0.06670  0.81610  0.84080  Biso   1.000  H
  H92      1.0000 0.06120  0.92860  0.84190  Biso   1.000  H
  O70      1.0000 0.99470  0.08510  0.40710  Biso   1.000  O
  O71      1.0000 0.75540  0.08210  0.42910  Biso   1.000  O
  O72      1.0000 0.99120  0.20730  0.36350  Biso   1.000  O
  C139     1.0000 0.89500  0.07150  0.43150  Biso   1.000  C
  C140     1.0000 0.95000  0.03600  0.46690  Biso   1.000  C
  C141     1.0000 0.85300  0.01560  0.49520  Biso   1.000  C
  C142     1.0000 0.90800  0.98080  0.52870  Biso   1.000  C
  C143     1.0000 0.99040  0.33860  0.35470  Biso   1.000  C
  C144     1.0000 0.98400  0.40550  0.35590  Biso   1.000  C
  H93      1.0000 0.74710  0.02540  0.49320  Biso   1.000  H
  H94      1.0000 0.83630  0.96870  0.54820  Biso   1.000  H
  H95      1.0000 0.06670  0.31610  0.34080  Biso   1.000  H
  H96      1.0000 0.06120  0.42860  0.34190  Biso   1.000  H
  O73      1.0000 0.49470  0.66490  0.84290  Biso   1.000  O
  O74      1.0000 0.25540  0.66790  0.82090  Biso   1.000  O
  O75      1.0000 0.49120  0.54270  0.88650  Biso   1.000  O
  C145     1.0000 0.39500  0.67850  0.81850  Biso   1.000  C
  C146     1.0000 0.45000  0.71400  0.78310  Biso   1.000  C
  C147     1.0000 0.35300  0.73440  0.75480  Biso   1.000  C
  C148     1.0000 0.40800  0.76920  0.72130  Biso   1.000  C
  C149     1.0000 0.49040  0.41140  0.89530  Biso   1.000  C
  C150     1.0000 0.48400  0.34450  0.89410  Biso   1.000  C
  H97      1.0000 0.24710  0.72460  0.75680  Biso   1.000  H
  H98      1.0000 0.33630  0.78130  0.70180  Biso   1.000  H
  H99      1.0000 0.56670  0.43390  0.90920  Biso   1.000  H
  H100     1.0000 0.56120  0.32140  0.90810  Biso   1.000  H
  O76      1.0000 0.49470  0.16490  0.34290  Biso   1.000  O
  O77      1.0000 0.25540  0.16790  0.32090  Biso   1.000  O
  O78      1.0000 0.49120  0.04270  0.38650  Biso   1.000  O
  C151     1.0000 0.39500  0.17850  0.31850  Biso   1.000  C
  C152     1.0000 0.45000  0.21400  0.28310  Biso   1.000  C
  C153     1.0000 0.35300  0.23440  0.25480  Biso   1.000  C
  C154     1.0000 0.40800  0.26920  0.22130  Biso   1.000  C
  C155     1.0000 0.49040  0.91140  0.39530  Biso   1.000  C
  C156     1.0000 0.48400  0.84450  0.39410  Biso   1.000  C
  H101     1.0000 0.24710  0.22460  0.25680  Biso   1.000  H
  H102     1.0000 0.33630  0.28130  0.20180  Biso   1.000  H
  H103     1.0000 0.56670  0.93390  0.40920  Biso   1.000  H
  H104     1.0000 0.56120  0.82140  0.40810  Biso   1.000  H
  O79      1.0000 0.99470  0.66490  0.34290  Biso   1.000  O
  O80      1.0000 0.75540  0.66790  0.32090  Biso   1.000  O
  O81      1.0000 0.99120  0.54270  0.38650  Biso   1.000  O
  C157     1.0000 0.89500  0.67850  0.31850  Biso   1.000  C
  C158     1.0000 0.95000  0.71400  0.28310  Biso   1.000  C
  C159     1.0000 0.85300  0.73440  0.25480  Biso   1.000  C
  C160     1.0000 0.90800  0.76920  0.22130  Biso   1.000  C
  C161     1.0000 0.99040  0.41140  0.39530  Biso   1.000  C
  C162     1.0000 0.98400  0.34450  0.39410  Biso   1.000  C
  H105     1.0000 0.74710  0.72460  0.25680  Biso   1.000  H
  H106     1.0000 0.83630  0.78130  0.20180  Biso   1.000  H
  H107     1.0000 0.06670  0.43390  0.40920  Biso   1.000  H
  H108     1.0000 0.06120  0.32140  0.40810  Biso   1.000  H
  O82      1.0000 0.99470  0.16490  0.84290  Biso   1.000  O
  O83      1.0000 0.75540  0.16790  0.82090  Biso   1.000  O
  O84      1.0000 0.99120  0.04270  0.88650  Biso   1.000  O
  C163     1.0000 0.89500  0.17850  0.81850  Biso   1.000  C
  C164     1.0000 0.95000  0.21400  0.78310  Biso   1.000  C
  C165     1.0000 0.85300  0.23440  0.75480  Biso   1.000  C
  C166     1.0000 0.90800  0.26920  0.72130  Biso   1.000  C
  C167     1.0000 0.99040  0.91140  0.89530  Biso   1.000  C
  C168     1.0000 0.98400  0.84450  0.89410  Biso   1.000  C
  H109     1.0000 0.74710  0.22460  0.75680  Biso   1.000  H
  H110     1.0000 0.83630  0.28130  0.70180  Biso   1.000  H
  H111     1.0000 0.06670  0.93390  0.90920  Biso   1.000  H
  H112     1.0000 0.06120  0.82140  0.90810  Biso   1.000  H
  O85      1.0000 0.75530  0.58510  0.84290  Biso   1.000  O
  O86      1.0000 0.99460  0.58210  0.82090  Biso   1.000  O
  O87      1.0000 0.75880  0.70730  0.88650  Biso   1.000  O
  C169     1.0000 0.85500  0.57150  0.81850  Biso   1.000  C
  C170     1.0000 0.80000  0.53600  0.78310  Biso   1.000  C
  C171     1.0000 0.89700  0.51560  0.75480  Biso   1.000  C
  C172     1.0000 0.84200  0.48080  0.72130  Biso   1.000  C
  C173     1.0000 0.75960  0.83860  0.89530  Biso   1.000  C
  C174     1.0000 0.76600  0.90550  0.89410  Biso   1.000  C
  H113     1.0000 0.00290  0.52540  0.75680  Biso   1.000  H
  H114     1.0000 0.91370  0.46870  0.70180  Biso   1.000  H
  H115     1.0000 0.68330  0.81610  0.90920  Biso   1.000  H
  H116     1.0000 0.68880  0.92860  0.90810  Biso   1.000  H
  O88      1.0000 0.75530  0.08510  0.34290  Biso   1.000  O
  O89      1.0000 0.99460  0.08210  0.32090  Biso   1.000  O
  O90      1.0000 0.75880  0.20730  0.38650  Biso   1.000  O
  C175     1.0000 0.85500  0.07150  0.31850  Biso   1.000  C
  C176     1.0000 0.80000  0.03600  0.28310  Biso   1.000  C
  C177     1.0000 0.89700  0.01560  0.25480  Biso   1.000  C
  C178     1.0000 0.84200  0.98080  0.22130  Biso   1.000  C
  C179     1.0000 0.75960  0.33860  0.39530  Biso   1.000  C
  C180     1.0000 0.76600  0.40550  0.39410  Biso   1.000  C
  H117     1.0000 0.00290  0.02540  0.25680  Biso   1.000  H
  H118     1.0000 0.91370  0.96870  0.20180  Biso   1.000  H
  H119     1.0000 0.68330  0.31610  0.40920  Biso   1.000  H
  H120     1.0000 0.68880  0.42860  0.40810  Biso   1.000  H
  O91      1.0000 0.25530  0.58510  0.34290  Biso   1.000  O
  O92      1.0000 0.49460  0.58210  0.32090  Biso   1.000  O
  O93      1.0000 0.25880  0.70730  0.38650  Biso   1.000  O
  C181     1.0000 0.35500  0.57150  0.31850  Biso   1.000  C
  C182     1.0000 0.30000  0.53600  0.28310  Biso   1.000  C
  C183     1.0000 0.39700  0.51560  0.25480  Biso   1.000  C
  C184     1.0000 0.34200  0.48080  0.22130  Biso   1.000  C
  C185     1.0000 0.25960  0.83860  0.39530  Biso   1.000  C
  C186     1.0000 0.26600  0.90550  0.39410  Biso   1.000  C
  H121     1.0000 0.50290  0.52540  0.25680  Biso   1.000  H
  H122     1.0000 0.41370  0.46870  0.20180  Biso   1.000  H
  H123     1.0000 0.18330  0.81610  0.40920  Biso   1.000  H
  H124     1.0000 0.18880  0.92860  0.40810  Biso   1.000  H
  O94      1.0000 0.25530  0.08510  0.84290  Biso   1.000  O
  O95      1.0000 0.49460  0.08210  0.82090  Biso   1.000  O
  O96      1.0000 0.25880  0.20730  0.88650  Biso   1.000  O
  C187     1.0000 0.35500  0.07150  0.81850  Biso   1.000  C
  C188     1.0000 0.30000  0.03600  0.78310  Biso   1.000  C
  C189     1.0000 0.39700  0.01560  0.75480  Biso   1.000  C
  C190     1.0000 0.34200  0.98080  0.72130  Biso   1.000  C
  C191     1.0000 0.25960  0.33860  0.89530  Biso   1.000  C
  C192     1.0000 0.26600  0.40550  0.89410  Biso   1.000  C
  H125     1.0000 0.50290  0.02540  0.75680  Biso   1.000  H
  H126     1.0000 0.41370  0.96870  0.70180  Biso   1.000  H
  H127     1.0000 0.18330  0.31610  0.90920  Biso   1.000  H
  H128     1.0000 0.18880  0.42860  0.90810  Biso   1.000  H
  Sc1      1.0000 0.37500  0.37500  0.63628  Biso   1.000  Sc
  Sc2      1.0000 0.37500  0.87500  0.13628  Biso   1.000  Sc
  Sc3      1.0000 0.87500  0.37500  0.13628  Biso   1.000  Sc
  Sc4      1.0000 0.87500  0.87500  0.63628  Biso   1.000  Sc
  Sc5      1.0000 0.37500  0.37500  0.11372  Biso   1.000  Sc
  Sc6      1.0000 0.37500  0.87500  0.61372  Biso   1.000  Sc
  Sc7      1.0000 0.87500  0.37500  0.61372  Biso   1.000  Sc
  Sc8      1.0000 0.87500  0.87500  0.11372  Biso   1.000  Sc
  Sc9      1.0000 0.62500  0.62500  0.36372  Biso   1.000  Sc
  Sc10     1.0000 0.62500  0.12500  0.86372  Biso   1.000  Sc
  Sc11     1.0000 0.12500  0.62500  0.86372  Biso   1.000  Sc
  Sc12     1.0000 0.12500  0.12500  0.36372  Biso   1.000  Sc
  Sc13     1.0000 0.62500  0.62500  0.88628  Biso   1.000  Sc
  Sc14     1.0000 0.62500  0.12500  0.38628  Biso   1.000  Sc
  Sc15     1.0000 0.12500  0.62500  0.38628  Biso   1.000  Sc
  Sc16     1.0000 0.12500  0.12500  0.88628  Biso   1.000  Sc
  C193     1.0000 0.12500  0.48640  0.62500  Biso   1.000  C
  C194     1.0000 0.12500  0.55760  0.62500  Biso   1.000  C
  C195     1.0000 0.12500  0.98640  0.12500  Biso   1.000  C
  C196     1.0000 0.12500  0.05760  0.12500  Biso   1.000  C
  C197     1.0000 0.62500  0.98640  0.62500  Biso   1.000  C
  C198     1.0000 0.62500  0.05760  0.62500  Biso   1.000  C
  C199     1.0000 0.62500  0.26360  0.62500  Biso   1.000  C
  C200     1.0000 0.62500  0.19240  0.62500  Biso   1.000  C
  C201     1.0000 0.62500  0.76360  0.12500  Biso   1.000  C
  C202     1.0000 0.62500  0.69240  0.12500  Biso   1.000  C
  C203     1.0000 0.62500  0.48640  0.12500  Biso   1.000  C
  C204     1.0000 0.62500  0.55760  0.12500  Biso   1.000  C
  C205     1.0000 0.12500  0.26360  0.12500  Biso   1.000  C
  C206     1.0000 0.12500  0.19240  0.12500  Biso   1.000  C
  C207     1.0000 0.12500  0.76360  0.62500  Biso   1.000  C
  C208     1.0000 0.12500  0.69240  0.62500  Biso   1.000  C
  C209     1.0000 0.87500  0.51360  0.37500  Biso   1.000  C
  C210     1.0000 0.87500  0.44240  0.37500  Biso   1.000  C
  C211     1.0000 0.87500  0.01360  0.87500  Biso   1.000  C
  C212     1.0000 0.87500  0.94240  0.87500  Biso   1.000  C
  C213     1.0000 0.37500  0.73640  0.37500  Biso   1.000  C
  C214     1.0000 0.37500  0.80760  0.37500  Biso   1.000  C
  C215     1.0000 0.37500  0.23640  0.87500  Biso   1.000  C
  C216     1.0000 0.37500  0.30760  0.87500  Biso   1.000  C
  C217     1.0000 0.37500  0.51360  0.87500  Biso   1.000  C
  C218     1.0000 0.37500  0.44240  0.87500  Biso   1.000  C
  C219     1.0000 0.37500  0.01360  0.37500  Biso   1.000  C
  C220     1.0000 0.37500  0.94240  0.37500  Biso   1.000  C
  C221     1.0000 0.87500  0.73640  0.87500  Biso   1.000  C
  C222     1.0000 0.87500  0.80760  0.87500  Biso   1.000  C
  C223     1.0000 0.87500  0.23640  0.37500  Biso   1.000  C
  C224     1.0000 0.87500  0.30760  0.37500  Biso   1.000  C
