data_image0
_cell_length_a       8.779
_cell_length_b       20.742
_cell_length_c       34.287
_cell_angle_alpha    90
_cell_angle_beta     90
_cell_angle_gamma    90

_symmetry_space_group_name_H-M    "P 1"
_symmetry_int_tables_number       1

loop_
  _symmetry_equiv_pos_as_xyz
  'x, y, z'

loop_
  _atom_site_label
  _atom_site_occupancy
  _atom_site_fract_x
  _atom_site_fract_y
  _atom_site_fract_z
  _atom_site_thermal_displace_type
  _atom_site_B_iso_or_equiv
  _atom_site_type_symbol
  O1       1.0000 0.24700  0.33540  0.59290  Biso   1.000  O
  O2       1.0000 0.00610  0.33360  0.57050  Biso   1.000  O
  O3       1.0000 0.24030  0.45730  0.63610  Biso   1.000  O
  C1       1.0000 0.14400  0.32100  0.56820  Biso   1.000  C
  C2       1.0000 0.20000  0.28430  0.53280  Biso   1.000  C
  C3       1.0000 0.10200  0.26550  0.50450  Biso   1.000  C
  C4       1.0000 0.14700  0.23150  0.47120  Biso   1.000  C
  C5       1.0000 0.23420  0.58900  0.64710  Biso   1.000  C
  C6       1.0000 0.22900  0.65590  0.64600  Biso   1.000  C
  H1       1.0000 0.99720  0.27600  0.50730  Biso   1.000  H
  H2       1.0000 0.07540  0.21960  0.45180  Biso   1.000  H
  H3       1.0000 0.31300  0.56630  0.66030  Biso   1.000  H
  H4       1.0000 0.30470  0.67860  0.66030  Biso   1.000  H
  O4       1.0000 0.24700  0.83540  0.09290  Biso   1.000  O
  O5       1.0000 0.00610  0.83360  0.07050  Biso   1.000  O
  O6       1.0000 0.24030  0.95730  0.13610  Biso   1.000  O
  C7       1.0000 0.14400  0.82100  0.06820  Biso   1.000  C
  C8       1.0000 0.20000  0.78430  0.03280  Biso   1.000  C
  C9       1.0000 0.10200  0.76550  0.00450  Biso   1.000  C
  C10      1.0000 0.14700  0.73150  0.97120  Biso   1.000  C
  C11      1.0000 0.23420  0.08900  0.14710  Biso   1.000  C
  C12      1.0000 0.22900  0.15590  0.14600  Biso   1.000  C
  H5       1.0000 0.99720  0.77600  0.00730  Biso   1.000  H
  H6       1.0000 0.07540  0.71960  0.95180  Biso   1.000  H
  H7       1.0000 0.31300  0.06630  0.16030  Biso   1.000  H
  H8       1.0000 0.30470  0.17860  0.16030  Biso   1.000  H
  O7       1.0000 0.74700  0.33540  0.09290  Biso   1.000  O
  O8       1.0000 0.50610  0.33360  0.07050  Biso   1.000  O
  O9       1.0000 0.74030  0.45730  0.13610  Biso   1.000  O
  C13      1.0000 0.64400  0.32100  0.06820  Biso   1.000  C
  C14      1.0000 0.70000  0.28430  0.03280  Biso   1.000  C
  C15      1.0000 0.60200  0.26550  0.00450  Biso   1.000  C
  C16      1.0000 0.64700  0.23150  0.97120  Biso   1.000  C
  C17      1.0000 0.73420  0.58900  0.14710  Biso   1.000  C
  C18      1.0000 0.72900  0.65590  0.14600  Biso   1.000  C
  H9       1.0000 0.49720  0.27600  0.00730  Biso   1.000  H
  H10      1.0000 0.57540  0.21960  0.95180  Biso   1.000  H
  H11      1.0000 0.81300  0.56630  0.16030  Biso   1.000  H
  H12      1.0000 0.80470  0.67860  0.16030  Biso   1.000  H
  O10      1.0000 0.74700  0.83540  0.59290  Biso   1.000  O
  O11      1.0000 0.50610  0.83360  0.57050  Biso   1.000  O
  O12      1.0000 0.74030  0.95730  0.63610  Biso   1.000  O
  C19      1.0000 0.64400  0.82100  0.56820  Biso   1.000  C
  C20      1.0000 0.70000  0.78430  0.53280  Biso   1.000  C
  C21      1.0000 0.60200  0.76550  0.50450  Biso   1.000  C
  C22      1.0000 0.64700  0.73150  0.47120  Biso   1.000  C
  C23      1.0000 0.73420  0.08900  0.64710  Biso   1.000  C
  C24      1.0000 0.72900  0.15590  0.64600  Biso   1.000  C
  H13      1.0000 0.49720  0.77600  0.50730  Biso   1.000  H
  H14      1.0000 0.57540  0.71960  0.45180  Biso   1.000  H
  H15      1.0000 0.81300  0.06630  0.66030  Biso   1.000  H
  H16      1.0000 0.80470  0.17860  0.66030  Biso   1.000  H
  O13      1.0000 0.50300  0.41460  0.59290  Biso   1.000  O
  O14      1.0000 0.74390  0.41640  0.57050  Biso   1.000  O
  O15      1.0000 0.50970  0.29270  0.63610  Biso   1.000  O
  C25      1.0000 0.60600  0.42900  0.56820  Biso   1.000  C
  C26      1.0000 0.55000  0.46570  0.53280  Biso   1.000  C
  C27      1.0000 0.64800  0.48450  0.50450  Biso   1.000  C
  C28      1.0000 0.60300  0.51850  0.47120  Biso   1.000  C
  C29      1.0000 0.51580  0.16100  0.64710  Biso   1.000  C
  C30      1.0000 0.52100  0.09410  0.64600  Biso   1.000  C
  H17      1.0000 0.75280  0.47400  0.50730  Biso   1.000  H
  H18      1.0000 0.67460  0.53040  0.45180  Biso   1.000  H
  H19      1.0000 0.43700  0.18370  0.66030  Biso   1.000  H
  H20      1.0000 0.44530  0.07140  0.66030  Biso   1.000  H
  O16      1.0000 0.50300  0.91460  0.09290  Biso   1.000  O
  O17      1.0000 0.74390  0.91640  0.07050  Biso   1.000  O
  O18      1.0000 0.50970  0.79270  0.13610  Biso   1.000  O
  C31      1.0000 0.60600  0.92900  0.06820  Biso   1.000  C
  C32      1.0000 0.55000  0.96570  0.03280  Biso   1.000  C
  C33      1.0000 0.64800  0.98450  0.00450  Biso   1.000  C
  C34      1.0000 0.60300  0.01850  0.97120  Biso   1.000  C
  C35      1.0000 0.51580  0.66100  0.14710  Biso   1.000  C
  C36      1.0000 0.52100  0.59410  0.14600  Biso   1.000  C
  H21      1.0000 0.75280  0.97400  0.00730  Biso   1.000  H
  H22      1.0000 0.67460  0.03040  0.95180  Biso   1.000  H
  H23      1.0000 0.43700  0.68370  0.16030  Biso   1.000  H
  H24      1.0000 0.44530  0.57140  0.16030  Biso   1.000  H
  O19      1.0000 0.00300  0.41460  0.09290  Biso   1.000  O
  O20      1.0000 0.24390  0.41640  0.07050  Biso   1.000  O
  O21      1.0000 0.00970  0.29270  0.13610  Biso   1.000  O
  C37      1.0000 0.10600  0.42900  0.06820  Biso   1.000  C
  C38      1.0000 0.05000  0.46570  0.03280  Biso   1.000  C
  C39      1.0000 0.14800  0.48450  0.00450  Biso   1.000  C
  C40      1.0000 0.10300  0.51850  0.97120  Biso   1.000  C
  C41      1.0000 0.01580  0.16100  0.14710  Biso   1.000  C
  C42      1.0000 0.02100  0.09410  0.14600  Biso   1.000  C
  H25      1.0000 0.25280  0.47400  0.00730  Biso   1.000  H
  H26      1.0000 0.17460  0.53040  0.95180  Biso   1.000  H
  H27      1.0000 0.93700  0.18370  0.16030  Biso   1.000  H
  H28      1.0000 0.94530  0.07140  0.16030  Biso   1.000  H
  O22      1.0000 0.00300  0.91460  0.59290  Biso   1.000  O
  O23      1.0000 0.24390  0.91640  0.57050  Biso   1.000  O
  O24      1.0000 0.00970  0.79270  0.63610  Biso   1.000  O
  C43      1.0000 0.10600  0.92900  0.56820  Biso   1.000  C
  C44      1.0000 0.05000  0.96570  0.53280  Biso   1.000  C
  C45      1.0000 0.14800  0.98450  0.50450  Biso   1.000  C
  C46      1.0000 0.10300  0.01850  0.47120  Biso   1.000  C
  C47      1.0000 0.01580  0.66100  0.64710  Biso   1.000  C
  C48      1.0000 0.02100  0.59410  0.64600  Biso   1.000  C
  H29      1.0000 0.25280  0.97400  0.50730  Biso   1.000  H
  H30      1.0000 0.17460  0.03040  0.45180  Biso   1.000  H
  H31      1.0000 0.93700  0.68370  0.66030  Biso   1.000  H
  H32      1.0000 0.94530  0.57140  0.66030  Biso   1.000  H
  O25      1.0000 0.50300  0.33540  0.15710  Biso   1.000  O
  O26      1.0000 0.74390  0.33360  0.17950  Biso   1.000  O
  O27      1.0000 0.50970  0.45730  0.11390  Biso   1.000  O
  C49      1.0000 0.60600  0.32100  0.18180  Biso   1.000  C
  C50      1.0000 0.55000  0.28430  0.21720  Biso   1.000  C
  C51      1.0000 0.64800  0.26550  0.24550  Biso   1.000  C
  C52      1.0000 0.60300  0.23150  0.27880  Biso   1.000  C
  C53      1.0000 0.51580  0.58900  0.10290  Biso   1.000  C
  C54      1.0000 0.52100  0.65590  0.10400  Biso   1.000  C
  H33      1.0000 0.75280  0.27600  0.24270  Biso   1.000  H
  H34      1.0000 0.67460  0.21960  0.29820  Biso   1.000  H
  H35      1.0000 0.43700  0.56630  0.08970  Biso   1.000  H
  H36      1.0000 0.44530  0.67860  0.08970  Biso   1.000  H
  O28      1.0000 0.50300  0.83540  0.65710  Biso   1.000  O
  O29      1.0000 0.74390  0.83360  0.67950  Biso   1.000  O
  O30      1.0000 0.50970  0.95730  0.61390  Biso   1.000  O
  C55      1.0000 0.60600  0.82100  0.68180  Biso   1.000  C
  C56      1.0000 0.55000  0.78430  0.71720  Biso   1.000  C
  C57      1.0000 0.64800  0.76550  0.74550  Biso   1.000  C
  C58      1.0000 0.60300  0.73150  0.77880  Biso   1.000  C
  C59      1.0000 0.51580  0.08900  0.60290  Biso   1.000  C
  C60      1.0000 0.52100  0.15590  0.60400  Biso   1.000  C
  H37      1.0000 0.75280  0.77600  0.74270  Biso   1.000  H
  H38      1.0000 0.67460  0.71960  0.79820  Biso   1.000  H
  H39      1.0000 0.43700  0.06630  0.58970  Biso   1.000  H
  H40      1.0000 0.44530  0.17860  0.58970  Biso   1.000  H
  O31      1.0000 0.00300  0.33540  0.65710  Biso   1.000  O
  O32      1.0000 0.24390  0.33360  0.67950  Biso   1.000  O
  O33      1.0000 0.00970  0.45730  0.61390  Biso   1.000  O
  C61      1.0000 0.10600  0.32100  0.68180  Biso   1.000  C
  C62      1.0000 0.05000  0.28430  0.71720  Biso   1.000  C
  C63      1.0000 0.14800  0.26550  0.74550  Biso   1.000  C
  C64      1.0000 0.10300  0.23150  0.77880  Biso   1.000  C
  C65      1.0000 0.01580  0.58900  0.60290  Biso   1.000  C
  C66      1.0000 0.02100  0.65590  0.60400  Biso   1.000  C
  H41      1.0000 0.25280  0.27600  0.74270  Biso   1.000  H
  H42      1.0000 0.17460  0.21960  0.79820  Biso   1.000  H
  H43      1.0000 0.93700  0.56630  0.58970  Biso   1.000  H
  H44      1.0000 0.94530  0.67860  0.58970  Biso   1.000  H
  O34      1.0000 0.00300  0.83540  0.15710  Biso   1.000  O
  O35      1.0000 0.24390  0.83360  0.17950  Biso   1.000  O
  O36      1.0000 0.00970  0.95730  0.11390  Biso   1.000  O
  C67      1.0000 0.10600  0.82100  0.18180  Biso   1.000  C
  C68      1.0000 0.05000  0.78430  0.21720  Biso   1.000  C
  C69      1.0000 0.14800  0.76550  0.24550  Biso   1.000  C
  C70      1.0000 0.10300  0.73150  0.27880  Biso   1.000  C
  C71      1.0000 0.01580  0.08900  0.10290  Biso   1.000  C
  C72      1.0000 0.02100  0.15590  0.10400  Biso   1.000  C
  H45      1.0000 0.25280  0.77600  0.24270  Biso   1.000  H
  H46      1.0000 0.17460  0.71960  0.29820  Biso   1.000  H
  H47      1.0000 0.93700  0.06630  0.08970  Biso   1.000  H
  H48      1.0000 0.94530  0.17860  0.08970  Biso   1.000  H
  O37      1.0000 0.24700  0.41460  0.15710  Biso   1.000  O
  O38      1.0000 0.00610  0.41640  0.17950  Biso   1.000  O
  O39      1.0000 0.24030  0.29270  0.11390  Biso   1.000  O
  C73      1.0000 0.14400  0.42900  0.18180  Biso   1.000  C
  C74      1.0000 0.20000  0.46570  0.21720  Biso   1.000  C
  C75      1.0000 0.10200  0.48450  0.24550  Biso   1.000  C
  C76      1.0000 0.14700  0.51850  0.27880  Biso   1.000  C
  C77      1.0000 0.23420  0.16100  0.10290  Biso   1.000  C
  C78      1.0000 0.22900  0.09410  0.10400  Biso   1.000  C
  H49      1.0000 0.99720  0.47400  0.24270  Biso   1.000  H
  H50      1.0000 0.07540  0.53040  0.29820  Biso   1.000  H
  H51      1.0000 0.31300  0.18370  0.08970  Biso   1.000  H
  H52      1.0000 0.30470  0.07140  0.08970  Biso   1.000  H
  O40      1.0000 0.24700  0.91460  0.65710  Biso   1.000  O
  O41      1.0000 0.00610  0.91640  0.67950  Biso   1.000  O
  O42      1.0000 0.24030  0.79270  0.61390  Biso   1.000  O
  C79      1.0000 0.14400  0.92900  0.68180  Biso   1.000  C
  C80      1.0000 0.20000  0.96570  0.71720  Biso   1.000  C
  C81      1.0000 0.10200  0.98450  0.74550  Biso   1.000  C
  C82      1.0000 0.14700  0.01850  0.77880  Biso   1.000  C
  C83      1.0000 0.23420  0.66100  0.60290  Biso   1.000  C
  C84      1.0000 0.22900  0.59410  0.60400  Biso   1.000  C
  H53      1.0000 0.99720  0.97400  0.74270  Biso   1.000  H
  H54      1.0000 0.07540  0.03040  0.79820  Biso   1.000  H
  H55      1.0000 0.31300  0.68370  0.58970  Biso   1.000  H
  H56      1.0000 0.30470  0.57140  0.58970  Biso   1.000  H
  O43      1.0000 0.74700  0.41460  0.65710  Biso   1.000  O
  O44      1.0000 0.50610  0.41640  0.67950  Biso   1.000  O
  O45      1.0000 0.74030  0.29270  0.61390  Biso   1.000  O
  C85      1.0000 0.64400  0.42900  0.68180  Biso   1.000  C
  C86      1.0000 0.70000  0.46570  0.71720  Biso   1.000  C
  C87      1.0000 0.60200  0.48450  0.74550  Biso   1.000  C
  C88      1.0000 0.64700  0.51850  0.77880  Biso   1.000  C
  C89      1.0000 0.73420  0.16100  0.60290  Biso   1.000  C
  C90      1.0000 0.72900  0.09410  0.60400  Biso   1.000  C
  H57      1.0000 0.49720  0.47400  0.74270  Biso   1.000  H
  H58      1.0000 0.57540  0.53040  0.79820  Biso   1.000  H
  H59      1.0000 0.81300  0.18370  0.58970  Biso   1.000  H
  H60      1.0000 0.80470  0.07140  0.58970  Biso   1.000  H
  O46      1.0000 0.74700  0.91460  0.15710  Biso   1.000  O
  O47      1.0000 0.50610  0.91640  0.17950  Biso   1.000  O
  O48      1.0000 0.74030  0.79270  0.11390  Biso   1.000  O
  C91      1.0000 0.64400  0.92900  0.18180  Biso   1.000  C
  C92      1.0000 0.70000  0.96570  0.21720  Biso   1.000  C
  C93      1.0000 0.60200  0.98450  0.24550  Biso   1.000  C
  C94      1.0000 0.64700  0.01850  0.27880  Biso   1.000  C
  C95      1.0000 0.73420  0.66100  0.10290  Biso   1.000  C
  C96      1.0000 0.72900  0.59410  0.10400  Biso   1.000  C
  H61      1.0000 0.49720  0.97400  0.24270  Biso   1.000  H
  H62      1.0000 0.57540  0.03040  0.29820  Biso   1.000  H
  H63      1.0000 0.81300  0.68370  0.08970  Biso   1.000  H
  H64      1.0000 0.80470  0.57140  0.08970  Biso   1.000  H
  O49      1.0000 0.75300  0.66460  0.40710  Biso   1.000  O
  O50      1.0000 0.99390  0.66640  0.42950  Biso   1.000  O
  O51      1.0000 0.75970  0.54270  0.36390  Biso   1.000  O
  C97      1.0000 0.85600  0.67900  0.43180  Biso   1.000  C
  C98      1.0000 0.80000  0.71570  0.46720  Biso   1.000  C
  C99      1.0000 0.89800  0.73450  0.49550  Biso   1.000  C
  C100     1.0000 0.85300  0.76850  0.52880  Biso   1.000  C
  C101     1.0000 0.76580  0.41100  0.35290  Biso   1.000  C
  C102     1.0000 0.77100  0.34410  0.35400  Biso   1.000  C
  H65      1.0000 0.00280  0.72400  0.49270  Biso   1.000  H
  H66      1.0000 0.92460  0.78040  0.54820  Biso   1.000  H
  H67      1.0000 0.68700  0.43370  0.33970  Biso   1.000  H
  H68      1.0000 0.69530  0.32140  0.33970  Biso   1.000  H
  O52      1.0000 0.75300  0.16460  0.90710  Biso   1.000  O
  O53      1.0000 0.99390  0.16640  0.92950  Biso   1.000  O
  O54      1.0000 0.75970  0.04270  0.86390  Biso   1.000  O
  C103     1.0000 0.85600  0.17900  0.93180  Biso   1.000  C
  C104     1.0000 0.80000  0.21570  0.96720  Biso   1.000  C
  C105     1.0000 0.89800  0.23450  0.99550  Biso   1.000  C
  C106     1.0000 0.85300  0.26850  0.02880  Biso   1.000  C
  C107     1.0000 0.76580  0.91100  0.85290  Biso   1.000  C
  C108     1.0000 0.77100  0.84410  0.85400  Biso   1.000  C
  H69      1.0000 0.00280  0.22400  0.99270  Biso   1.000  H
  H70      1.0000 0.92460  0.28040  0.04820  Biso   1.000  H
  H71      1.0000 0.68700  0.93370  0.83970  Biso   1.000  H
  H72      1.0000 0.69530  0.82140  0.83970  Biso   1.000  H
  O55      1.0000 0.25300  0.66460  0.90710  Biso   1.000  O
  O56      1.0000 0.49390  0.66640  0.92950  Biso   1.000  O
  O57      1.0000 0.25970  0.54270  0.86390  Biso   1.000  O
  C109     1.0000 0.35600  0.67900  0.93180  Biso   1.000  C
  C110     1.0000 0.30000  0.71570  0.96720  Biso   1.000  C
  C111     1.0000 0.39800  0.73450  0.99550  Biso   1.000  C
  C112     1.0000 0.35300  0.76850  0.02880  Biso   1.000  C
  C113     1.0000 0.26580  0.41100  0.85290  Biso   1.000  C
  C114     1.0000 0.27100  0.34410  0.85400  Biso   1.000  C
  H73      1.0000 0.50280  0.72400  0.99270  Biso   1.000  H
  H74      1.0000 0.42460  0.78040  0.04820  Biso   1.000  H
  H75      1.0000 0.18700  0.43370  0.83970  Biso   1.000  H
  H76      1.0000 0.19530  0.32140  0.83970  Biso   1.000  H
  O58      1.0000 0.25300  0.16460  0.40710  Biso   1.000  O
  O59      1.0000 0.49390  0.16640  0.42950  Biso   1.000  O
  O60      1.0000 0.25970  0.04270  0.36390  Biso   1.000  O
  C115     1.0000 0.35600  0.17900  0.43180  Biso   1.000  C
  C116     1.0000 0.30000  0.21570  0.46720  Biso   1.000  C
  C117     1.0000 0.39800  0.23450  0.49550  Biso   1.000  C
  C118     1.0000 0.35300  0.26850  0.52880  Biso   1.000  C
  C119     1.0000 0.26580  0.91100  0.35290  Biso   1.000  C
  C120     1.0000 0.27100  0.84410  0.35400  Biso   1.000  C
  H77      1.0000 0.50280  0.22400  0.49270  Biso   1.000  H
  H78      1.0000 0.42460  0.28040  0.54820  Biso   1.000  H
  H79      1.0000 0.18700  0.93370  0.33970  Biso   1.000  H
  H80      1.0000 0.19530  0.82140  0.33970  Biso   1.000  H
  O61      1.0000 0.49700  0.58540  0.40710  Biso   1.000  O
  O62      1.0000 0.25610  0.58360  0.42950  Biso   1.000  O
  O63      1.0000 0.49030  0.70730  0.36390  Biso   1.000  O
  C121     1.0000 0.39400  0.57100  0.43180  Biso   1.000  C
  C122     1.0000 0.45000  0.53430  0.46720  Biso   1.000  C
  C123     1.0000 0.35200  0.51550  0.49550  Biso   1.000  C
  C124     1.0000 0.39700  0.48150  0.52880  Biso   1.000  C
  C125     1.0000 0.48420  0.83900  0.35290  Biso   1.000  C
  C126     1.0000 0.47900  0.90590  0.35400  Biso   1.000  C
  H81      1.0000 0.24720  0.52600  0.49270  Biso   1.000  H
  H82      1.0000 0.32540  0.46960  0.54820  Biso   1.000  H
  H83      1.0000 0.56300  0.81630  0.33970  Biso   1.000  H
  H84      1.0000 0.55470  0.92860  0.33970  Biso   1.000  H
  O64      1.0000 0.49700  0.08540  0.90710  Biso   1.000  O
  O65      1.0000 0.25610  0.08360  0.92950  Biso   1.000  O
  O66      1.0000 0.49030  0.20730  0.86390  Biso   1.000  O
  C127     1.0000 0.39400  0.07100  0.93180  Biso   1.000  C
  C128     1.0000 0.45000  0.03430  0.96720  Biso   1.000  C
  C129     1.0000 0.35200  0.01550  0.99550  Biso   1.000  C
  C130     1.0000 0.39700  0.98150  0.02880  Biso   1.000  C
  C131     1.0000 0.48420  0.33900  0.85290  Biso   1.000  C
  C132     1.0000 0.47900  0.40590  0.85400  Biso   1.000  C
  H85      1.0000 0.24720  0.02600  0.99270  Biso   1.000  H
  H86      1.0000 0.32540  0.96960  0.04820  Biso   1.000  H
  H87      1.0000 0.56300  0.31630  0.83970  Biso   1.000  H
  H88      1.0000 0.55470  0.42860  0.83970  Biso   1.000  H
  O67      1.0000 0.99700  0.58540  0.90710  Biso   1.000  O
  O68      1.0000 0.75610  0.58360  0.92950  Biso   1.000  O
  O69      1.0000 0.99030  0.70730  0.86390  Biso   1.000  O
  C133     1.0000 0.89400  0.57100  0.93180  Biso   1.000  C
  C134     1.0000 0.95000  0.53430  0.96720  Biso   1.000  C
  C135     1.0000 0.85200  0.51550  0.99550  Biso   1.000  C
  C136     1.0000 0.89700  0.48150  0.02880  Biso   1.000  C
  C137     1.0000 0.98420  0.83900  0.85290  Biso   1.000  C
  C138     1.0000 0.97900  0.90590  0.85400  Biso   1.000  C
  H89      1.0000 0.74720  0.52600  0.99270  Biso   1.000  H
  H90      1.0000 0.82540  0.46960  0.04820  Biso   1.000  H
  H91      1.0000 0.06300  0.81630  0.83970  Biso   1.000  H
  H92      1.0000 0.05470  0.92860  0.83970  Biso   1.000  H
  O70      1.0000 0.99700  0.08540  0.40710  Biso   1.000  O
  O71      1.0000 0.75610  0.08360  0.42950  Biso   1.000  O
  O72      1.0000 0.99030  0.20730  0.36390  Biso   1.000  O
  C139     1.0000 0.89400  0.07100  0.43180  Biso   1.000  C
  C140     1.0000 0.95000  0.03430  0.46720  Biso   1.000  C
  C141     1.0000 0.85200  0.01550  0.49550  Biso   1.000  C
  C142     1.0000 0.89700  0.98150  0.52880  Biso   1.000  C
  C143     1.0000 0.98420  0.33900  0.35290  Biso   1.000  C
  C144     1.0000 0.97900  0.40590  0.35400  Biso   1.000  C
  H93      1.0000 0.74720  0.02600  0.49270  Biso   1.000  H
  H94      1.0000 0.82540  0.96960  0.54820  Biso   1.000  H
  H95      1.0000 0.06300  0.31630  0.33970  Biso   1.000  H
  H96      1.0000 0.05470  0.42860  0.33970  Biso   1.000  H
  O73      1.0000 0.49700  0.66460  0.84290  Biso   1.000  O
  O74      1.0000 0.25610  0.66640  0.82050  Biso   1.000  O
  O75      1.0000 0.49030  0.54270  0.88610  Biso   1.000  O
  C145     1.0000 0.39400  0.67900  0.81820  Biso   1.000  C
  C146     1.0000 0.45000  0.71570  0.78280  Biso   1.000  C
  C147     1.0000 0.35200  0.73450  0.75450  Biso   1.000  C
  C148     1.0000 0.39700  0.76850  0.72120  Biso   1.000  C
  C149     1.0000 0.48420  0.41100  0.89710  Biso   1.000  C
  C150     1.0000 0.47900  0.34410  0.89600  Biso   1.000  C
  H97      1.0000 0.24720  0.72400  0.75730  Biso   1.000  H
  H98      1.0000 0.32540  0.78040  0.70180  Biso   1.000  H
  H99      1.0000 0.56300  0.43370  0.91030  Biso   1.000  H
  H100     1.0000 0.55470  0.32140  0.91030  Biso   1.000  H
  O76      1.0000 0.49700  0.16460  0.34290  Biso   1.000  O
  O77      1.0000 0.25610  0.16640  0.32050  Biso   1.000  O
  O78      1.0000 0.49030  0.04270  0.38610  Biso   1.000  O
  C151     1.0000 0.39400  0.17900  0.31820  Biso   1.000  C
  C152     1.0000 0.45000  0.21570  0.28280  Biso   1.000  C
  C153     1.0000 0.35200  0.23450  0.25450  Biso   1.000  C
  C154     1.0000 0.39700  0.26850  0.22120  Biso   1.000  C
  C155     1.0000 0.48420  0.91100  0.39710  Biso   1.000  C
  C156     1.0000 0.47900  0.84410  0.39600  Biso   1.000  C
  H101     1.0000 0.24720  0.22400  0.25730  Biso   1.000  H
  H102     1.0000 0.32540  0.28040  0.20180  Biso   1.000  H
  H103     1.0000 0.56300  0.93370  0.41030  Biso   1.000  H
  H104     1.0000 0.55470  0.82140  0.41030  Biso   1.000  H
  O79      1.0000 0.99700  0.66460  0.34290  Biso   1.000  O
  O80      1.0000 0.75610  0.66640  0.32050  Biso   1.000  O
  O81      1.0000 0.99030  0.54270  0.38610  Biso   1.000  O
  C157     1.0000 0.89400  0.67900  0.31820  Biso   1.000  C
  C158     1.0000 0.95000  0.71570  0.28280  Biso   1.000  C
  C159     1.0000 0.85200  0.73450  0.25450  Biso   1.000  C
  C160     1.0000 0.89700  0.76850  0.22120  Biso   1.000  C
  C161     1.0000 0.98420  0.41100  0.39710  Biso   1.000  C
  C162     1.0000 0.97900  0.34410  0.39600  Biso   1.000  C
  H105     1.0000 0.74720  0.72400  0.25730  Biso   1.000  H
  H106     1.0000 0.82540  0.78040  0.20180  Biso   1.000  H
  H107     1.0000 0.06300  0.43370  0.41030  Biso   1.000  H
  H108     1.0000 0.05470  0.32140  0.41030  Biso   1.000  H
  O82      1.0000 0.99700  0.16460  0.84290  Biso   1.000  O
  O83      1.0000 0.75610  0.16640  0.82050  Biso   1.000  O
  O84      1.0000 0.99030  0.04270  0.88610  Biso   1.000  O
  C163     1.0000 0.89400  0.17900  0.81820  Biso   1.000  C
  C164     1.0000 0.95000  0.21570  0.78280  Biso   1.000  C
  C165     1.0000 0.85200  0.23450  0.75450  Biso   1.000  C
  C166     1.0000 0.89700  0.26850  0.72120  Biso   1.000  C
  C167     1.0000 0.98420  0.91100  0.89710  Biso   1.000  C
  C168     1.0000 0.97900  0.84410  0.89600  Biso   1.000  C
  H109     1.0000 0.74720  0.22400  0.75730  Biso   1.000  H
  H110     1.0000 0.82540  0.28040  0.70180  Biso   1.000  H
  H111     1.0000 0.06300  0.93370  0.91030  Biso   1.000  H
  H112     1.0000 0.05470  0.82140  0.91030  Biso   1.000  H
  O85      1.0000 0.75300  0.58540  0.84290  Biso   1.000  O
  O86      1.0000 0.99390  0.58360  0.82050  Biso   1.000  O
  O87      1.0000 0.75970  0.70730  0.88610  Biso   1.000  O
  C169     1.0000 0.85600  0.57100  0.81820  Biso   1.000  C
  C170     1.0000 0.80000  0.53430  0.78280  Biso   1.000  C
  C171     1.0000 0.89800  0.51550  0.75450  Biso   1.000  C
  C172     1.0000 0.85300  0.48150  0.72120  Biso   1.000  C
  C173     1.0000 0.76580  0.83900  0.89710  Biso   1.000  C
  C174     1.0000 0.77100  0.90590  0.89600  Biso   1.000  C
  H113     1.0000 0.00280  0.52600  0.75730  Biso   1.000  H
  H114     1.0000 0.92460  0.46960  0.70180  Biso   1.000  H
  H115     1.0000 0.68700  0.81630  0.91030  Biso   1.000  H
  H116     1.0000 0.69530  0.92860  0.91030  Biso   1.000  H
  O88      1.0000 0.75300  0.08540  0.34290  Biso   1.000  O
  O89      1.0000 0.99390  0.08360  0.32050  Biso   1.000  O
  O90      1.0000 0.75970  0.20730  0.38610  Biso   1.000  O
  C175     1.0000 0.85600  0.07100  0.31820  Biso   1.000  C
  C176     1.0000 0.80000  0.03430  0.28280  Biso   1.000  C
  C177     1.0000 0.89800  0.01550  0.25450  Biso   1.000  C
  C178     1.0000 0.85300  0.98150  0.22120  Biso   1.000  C
  C179     1.0000 0.76580  0.33900  0.39710  Biso   1.000  C
  C180     1.0000 0.77100  0.40590  0.39600  Biso   1.000  C
  H117     1.0000 0.00280  0.02600  0.25730  Biso   1.000  H
  H118     1.0000 0.92460  0.96960  0.20180  Biso   1.000  H
  H119     1.0000 0.68700  0.31630  0.41030  Biso   1.000  H
  H120     1.0000 0.69530  0.42860  0.41030  Biso   1.000  H
  O91      1.0000 0.25300  0.58540  0.34290  Biso   1.000  O
  O92      1.0000 0.49390  0.58360  0.32050  Biso   1.000  O
  O93      1.0000 0.25970  0.70730  0.38610  Biso   1.000  O
  C181     1.0000 0.35600  0.57100  0.31820  Biso   1.000  C
  C182     1.0000 0.30000  0.53430  0.28280  Biso   1.000  C
  C183     1.0000 0.39800  0.51550  0.25450  Biso   1.000  C
  C184     1.0000 0.35300  0.48150  0.22120  Biso   1.000  C
  C185     1.0000 0.26580  0.83900  0.39710  Biso   1.000  C
  C186     1.0000 0.27100  0.90590  0.39600  Biso   1.000  C
  H121     1.0000 0.50280  0.52600  0.25730  Biso   1.000  H
  H122     1.0000 0.42460  0.46960  0.20180  Biso   1.000  H
  H123     1.0000 0.18700  0.81630  0.41030  Biso   1.000  H
  H124     1.0000 0.19530  0.92860  0.41030  Biso   1.000  H
  O94      1.0000 0.25300  0.08540  0.84290  Biso   1.000  O
  O95      1.0000 0.49390  0.08360  0.82050  Biso   1.000  O
  O96      1.0000 0.25970  0.20730  0.88610  Biso   1.000  O
  C187     1.0000 0.35600  0.07100  0.81820  Biso   1.000  C
  C188     1.0000 0.30000  0.03430  0.78280  Biso   1.000  C
  C189     1.0000 0.39800  0.01550  0.75450  Biso   1.000  C
  C190     1.0000 0.35300  0.98150  0.72120  Biso   1.000  C
  C191     1.0000 0.26580  0.33900  0.89710  Biso   1.000  C
  C192     1.0000 0.27100  0.40590  0.89600  Biso   1.000  C
  H125     1.0000 0.50280  0.02600  0.75730  Biso   1.000  H
  H126     1.0000 0.42460  0.96960  0.70180  Biso   1.000  H
  H127     1.0000 0.18700  0.31630  0.91030  Biso   1.000  H
  H128     1.0000 0.19530  0.42860  0.91030  Biso   1.000  H
  Sc1      1.0000 0.37500  0.37500  0.63608  Biso   1.000  Sc
  Sc2      1.0000 0.37500  0.87500  0.13608  Biso   1.000  Sc
  Sc3      1.0000 0.87500  0.37500  0.13608  Biso   1.000  Sc
  Sc4      1.0000 0.87500  0.87500  0.63608  Biso   1.000  Sc
  Sc5      1.0000 0.37500  0.37500  0.11392  Biso   1.000  Sc
  Sc6      1.0000 0.37500  0.87500  0.61392  Biso   1.000  Sc
  Sc7      1.0000 0.87500  0.37500  0.61392  Biso   1.000  Sc
  Sc8      1.0000 0.87500  0.87500  0.11392  Biso   1.000  Sc
  Sc9      1.0000 0.62500  0.62500  0.36392  Biso   1.000  Sc
  Sc10     1.0000 0.62500  0.12500  0.86392  Biso   1.000  Sc
  Sc11     1.0000 0.12500  0.62500  0.86392  Biso   1.000  Sc
  Sc12     1.0000 0.12500  0.12500  0.36392  Biso   1.000  Sc
  Sc13     1.0000 0.62500  0.62500  0.88608  Biso   1.000  Sc
  Sc14     1.0000 0.62500  0.12500  0.38608  Biso   1.000  Sc
  Sc15     1.0000 0.12500  0.62500  0.38608  Biso   1.000  Sc
  Sc16     1.0000 0.12500  0.12500  0.88608  Biso   1.000  Sc
  C193     1.0000 0.12500  0.48690  0.62500  Biso   1.000  C
  C194     1.0000 0.12500  0.55760  0.62500  Biso   1.000  C
  C195     1.0000 0.12500  0.98690  0.12500  Biso   1.000  C
  C196     1.0000 0.12500  0.05760  0.12500  Biso   1.000  C
  C197     1.0000 0.62500  0.98690  0.62500  Biso   1.000  C
  C198     1.0000 0.62500  0.05760  0.62500  Biso   1.000  C
  C199     1.0000 0.62500  0.26310  0.62500  Biso   1.000  C
  C200     1.0000 0.62500  0.19240  0.62500  Biso   1.000  C
  C201     1.0000 0.62500  0.76310  0.12500  Biso   1.000  C
  C202     1.0000 0.62500  0.69240  0.12500  Biso   1.000  C
  C203     1.0000 0.62500  0.48690  0.12500  Biso   1.000  C
  C204     1.0000 0.62500  0.55760  0.12500  Biso   1.000  C
  C205     1.0000 0.12500  0.26310  0.12500  Biso   1.000  C
  C206     1.0000 0.12500  0.19240  0.12500  Biso   1.000  C
  C207     1.0000 0.12500  0.76310  0.62500  Biso   1.000  C
  C208     1.0000 0.12500  0.69240  0.62500  Biso   1.000  C
  C209     1.0000 0.87500  0.51310  0.37500  Biso   1.000  C
  C210     1.0000 0.87500  0.44240  0.37500  Biso   1.000  C
  C211     1.0000 0.87500  0.01310  0.87500  Biso   1.000  C
  C212     1.0000 0.87500  0.94240  0.87500  Biso   1.000  C
  C213     1.0000 0.37500  0.73690  0.37500  Biso   1.000  C
  C214     1.0000 0.37500  0.80760  0.37500  Biso   1.000  C
  C215     1.0000 0.37500  0.23690  0.87500  Biso   1.000  C
  C216     1.0000 0.37500  0.30760  0.87500  Biso   1.000  C
  C217     1.0000 0.37500  0.51310  0.87500  Biso   1.000  C
  C218     1.0000 0.37500  0.44240  0.87500  Biso   1.000  C
  C219     1.0000 0.37500  0.01310  0.37500  Biso   1.000  C
  C220     1.0000 0.37500  0.94240  0.37500  Biso   1.000  C
  C221     1.0000 0.87500  0.73690  0.87500  Biso   1.000  C
  C222     1.0000 0.87500  0.80760  0.87500  Biso   1.000  C
  C223     1.0000 0.87500  0.23690  0.37500  Biso   1.000  C
  C224     1.0000 0.87500  0.30760  0.37500  Biso   1.000  C
