data_image0
_cell_length_a       20.92
_cell_length_b       9.4373
_cell_length_c       22.981
_cell_angle_alpha    90
_cell_angle_beta     108.736
_cell_angle_gamma    90

_symmetry_space_group_name_H-M    "P 1"
_symmetry_int_tables_number       1

loop_
  _symmetry_equiv_pos_as_xyz
  'x, y, z'

loop_
  _atom_site_label
  _atom_site_occupancy
  _atom_site_fract_x
  _atom_site_fract_y
  _atom_site_fract_z
  _atom_site_thermal_displace_type
  _atom_site_B_iso_or_equiv
  _atom_site_type_symbol
  Zn1      1.0000 0.71273  0.64295  0.76117  Biso   1.000  Zn
  C1       1.0000 0.82860  0.75860  0.66650  Biso   1.000  C
  C2       1.0000 0.83690  0.62460  0.69300  Biso   1.000  C
  C3       1.0000 0.83020  0.50670  0.65660  Biso   1.000  C
  C4       1.0000 0.81660  0.51990  0.59490  Biso   1.000  C
  H1       1.0000 0.81330  0.43950  0.57070  Biso   1.000  H
  C5       1.0000 0.80780  0.65210  0.56810  Biso   1.000  C
  H2       1.0000 0.79870  0.66100  0.52590  Biso   1.000  H
  C6       1.0000 0.81250  0.76970  0.60360  Biso   1.000  C
  H3       1.0000 0.80480  0.85860  0.58520  Biso   1.000  H
  C7       1.0000 0.83900  0.89160  0.70470  Biso   1.000  C
  C8       1.0000 0.85530  0.61200  0.76360  Biso   1.000  C
  C9       1.0000 0.83210  0.35700  0.68200  Biso   1.000  C
  C10      1.0000 0.65650  0.49320  0.64350  Biso   1.000  C
  H4       1.0000 0.66900  0.41220  0.66750  Biso   1.000  H
  C11      1.0000 0.62630  0.47940  0.58110  Biso   1.000  C
  H5       1.0000 0.61940  0.38930  0.56390  Biso   1.000  H
  C12      1.0000 0.60630  0.59460  0.54390  Biso   1.000  C
  C13      1.0000 0.61830  0.72670  0.57310  Biso   1.000  C
  H6       1.0000 0.60600  0.80910  0.55000  Biso   1.000  H
  C14      1.0000 0.64800  0.73510  0.63510  Biso   1.000  C
  H7       1.0000 0.65450  0.82390  0.65360  Biso   1.000  H
  C15      1.0000 0.51030  0.68330  0.37980  Biso   1.000  C
  H8       1.0000 0.48280  0.75620  0.35840  Biso   1.000  H
  C16      1.0000 0.53430  0.69090  0.44230  Biso   1.000  C
  H9       1.0000 0.52340  0.76840  0.46230  Biso   1.000  H
  C17      1.0000 0.57430  0.58570  0.47600  Biso   1.000  C
  C18      1.0000 0.58780  0.47510  0.44520  Biso   1.000  C
  H10      1.0000 0.61470  0.40070  0.46610  Biso   1.000  H
  C19      1.0000 0.56020  0.47400  0.38000  Biso   1.000  C
  H11      1.0000 0.56850  0.39510  0.35920  Biso   1.000  H
  N1       1.0000 0.66830  0.62020  0.67040  Biso   1.000  N
  N2       1.0000 0.52430  0.57550  0.34770  Biso   1.000  N
  O1       1.0000 0.89470  0.91600  0.74390  Biso   1.000  O
  O2       1.0000 0.78930  0.97200  0.69240  Biso   1.000  O
  O3       1.0000 0.81250  0.65570  0.78740  Biso   1.000  O
  O4       1.0000 0.91070  0.56450  0.79270  Biso   1.000  O
  O5       1.0000 0.80710  0.33860  0.72230  Biso   1.000  O
  O6       1.0000 0.87600  0.27300  0.67000  Biso   1.000  O
  O7       1.0000 0.32900  0.24300  0.14740  Biso   1.000  O
  Zn2      1.0000 0.21273  0.14295  0.76117  Biso   1.000  Zn
  C20      1.0000 0.32860  0.25860  0.66650  Biso   1.000  C
  C21      1.0000 0.33690  0.12460  0.69300  Biso   1.000  C
  C22      1.0000 0.33020  0.00670  0.65660  Biso   1.000  C
  C23      1.0000 0.31660  0.01990  0.59490  Biso   1.000  C
  H12      1.0000 0.31330  0.93950  0.57070  Biso   1.000  H
  C24      1.0000 0.30780  0.15210  0.56810  Biso   1.000  C
  H13      1.0000 0.29870  0.16100  0.52590  Biso   1.000  H
  C25      1.0000 0.31250  0.26970  0.60360  Biso   1.000  C
  H14      1.0000 0.30480  0.35860  0.58520  Biso   1.000  H
  C26      1.0000 0.33900  0.39160  0.70470  Biso   1.000  C
  C27      1.0000 0.35530  0.11200  0.76360  Biso   1.000  C
  C28      1.0000 0.33210  0.85700  0.68200  Biso   1.000  C
  C29      1.0000 0.15650  0.99320  0.64350  Biso   1.000  C
  H15      1.0000 0.16900  0.91220  0.66750  Biso   1.000  H
  C30      1.0000 0.12630  0.97940  0.58110  Biso   1.000  C
  H16      1.0000 0.11940  0.88930  0.56390  Biso   1.000  H
  C31      1.0000 0.10630  0.09460  0.54390  Biso   1.000  C
  C32      1.0000 0.11830  0.22670  0.57310  Biso   1.000  C
  H17      1.0000 0.10600  0.30910  0.55000  Biso   1.000  H
  C33      1.0000 0.14800  0.23510  0.63510  Biso   1.000  C
  H18      1.0000 0.15450  0.32390  0.65360  Biso   1.000  H
  C34      1.0000 0.01030  0.18330  0.37980  Biso   1.000  C
  H19      1.0000 0.98280  0.25620  0.35840  Biso   1.000  H
  C35      1.0000 0.03430  0.19090  0.44230  Biso   1.000  C
  H20      1.0000 0.02340  0.26840  0.46230  Biso   1.000  H
  C36      1.0000 0.07430  0.08570  0.47600  Biso   1.000  C
  C37      1.0000 0.08780  0.97510  0.44520  Biso   1.000  C
  H21      1.0000 0.11470  0.90070  0.46610  Biso   1.000  H
  C38      1.0000 0.06020  0.97400  0.38000  Biso   1.000  C
  H22      1.0000 0.06850  0.89510  0.35920  Biso   1.000  H
  N3       1.0000 0.16830  0.12020  0.67040  Biso   1.000  N
  N4       1.0000 0.02430  0.07550  0.34770  Biso   1.000  N
  O8       1.0000 0.39470  0.41600  0.74390  Biso   1.000  O
  O9       1.0000 0.28930  0.47200  0.69240  Biso   1.000  O
  O10      1.0000 0.31250  0.15570  0.78740  Biso   1.000  O
  O11      1.0000 0.41070  0.06450  0.79270  Biso   1.000  O
  O12      1.0000 0.30710  0.83860  0.72230  Biso   1.000  O
  O13      1.0000 0.37600  0.77300  0.67000  Biso   1.000  O
  O14      1.0000 0.82900  0.74300  0.14740  Biso   1.000  O
  Zn3      1.0000 0.28727  0.64295  0.73883  Biso   1.000  Zn
  C39      1.0000 0.17140  0.75860  0.83350  Biso   1.000  C
  C40      1.0000 0.16310  0.62460  0.80700  Biso   1.000  C
  C41      1.0000 0.16980  0.50670  0.84340  Biso   1.000  C
  C42      1.0000 0.18340  0.51990  0.90510  Biso   1.000  C
  H23      1.0000 0.18670  0.43950  0.92930  Biso   1.000  H
  C43      1.0000 0.19220  0.65210  0.93190  Biso   1.000  C
  H24      1.0000 0.20130  0.66100  0.97410  Biso   1.000  H
  C44      1.0000 0.18750  0.76970  0.89640  Biso   1.000  C
  H25      1.0000 0.19520  0.85860  0.91480  Biso   1.000  H
  C45      1.0000 0.16100  0.89160  0.79530  Biso   1.000  C
  C46      1.0000 0.14470  0.61200  0.73640  Biso   1.000  C
  C47      1.0000 0.16790  0.35700  0.81800  Biso   1.000  C
  C48      1.0000 0.34350  0.49320  0.85650  Biso   1.000  C
  H26      1.0000 0.33100  0.41220  0.83250  Biso   1.000  H
  C49      1.0000 0.37370  0.47940  0.91890  Biso   1.000  C
  H27      1.0000 0.38060  0.38930  0.93610  Biso   1.000  H
  C50      1.0000 0.39370  0.59460  0.95610  Biso   1.000  C
  C51      1.0000 0.38170  0.72670  0.92690  Biso   1.000  C
  H28      1.0000 0.39400  0.80910  0.95000  Biso   1.000  H
  C52      1.0000 0.35200  0.73510  0.86490  Biso   1.000  C
  H29      1.0000 0.34550  0.82390  0.84640  Biso   1.000  H
  C53      1.0000 0.48970  0.68330  0.12020  Biso   1.000  C
  H30      1.0000 0.51720  0.75620  0.14160  Biso   1.000  H
  C54      1.0000 0.46570  0.69090  0.05770  Biso   1.000  C
  H31      1.0000 0.47660  0.76840  0.03770  Biso   1.000  H
  C55      1.0000 0.42570  0.58570  0.02400  Biso   1.000  C
  C56      1.0000 0.41220  0.47510  0.05480  Biso   1.000  C
  H32      1.0000 0.38530  0.40070  0.03390  Biso   1.000  H
  C57      1.0000 0.43980  0.47400  0.12000  Biso   1.000  C
  H33      1.0000 0.43150  0.39510  0.14080  Biso   1.000  H
  N5       1.0000 0.33170  0.62020  0.82960  Biso   1.000  N
  N6       1.0000 0.47570  0.57550  0.15230  Biso   1.000  N
  O15      1.0000 0.10530  0.91600  0.75610  Biso   1.000  O
  O16      1.0000 0.21070  0.97200  0.80760  Biso   1.000  O
  O17      1.0000 0.18750  0.65570  0.71260  Biso   1.000  O
  O18      1.0000 0.08930  0.56450  0.70730  Biso   1.000  O
  O19      1.0000 0.19290  0.33860  0.77770  Biso   1.000  O
  O20      1.0000 0.12400  0.27300  0.83000  Biso   1.000  O
  O21      1.0000 0.67100  0.24300  0.35260  Biso   1.000  O
  Zn4      1.0000 0.78727  0.14295  0.73883  Biso   1.000  Zn
  C58      1.0000 0.67140  0.25860  0.83350  Biso   1.000  C
  C59      1.0000 0.66310  0.12460  0.80700  Biso   1.000  C
  C60      1.0000 0.66980  0.00670  0.84340  Biso   1.000  C
  C61      1.0000 0.68340  0.01990  0.90510  Biso   1.000  C
  H34      1.0000 0.68670  0.93950  0.92930  Biso   1.000  H
  C62      1.0000 0.69220  0.15210  0.93190  Biso   1.000  C
  H35      1.0000 0.70130  0.16100  0.97410  Biso   1.000  H
  C63      1.0000 0.68750  0.26970  0.89640  Biso   1.000  C
  H36      1.0000 0.69520  0.35860  0.91480  Biso   1.000  H
  C64      1.0000 0.66100  0.39160  0.79530  Biso   1.000  C
  C65      1.0000 0.64470  0.11200  0.73640  Biso   1.000  C
  C66      1.0000 0.66790  0.85700  0.81800  Biso   1.000  C
  C67      1.0000 0.84350  0.99320  0.85650  Biso   1.000  C
  H37      1.0000 0.83100  0.91220  0.83250  Biso   1.000  H
  C68      1.0000 0.87370  0.97940  0.91890  Biso   1.000  C
  H38      1.0000 0.88060  0.88930  0.93610  Biso   1.000  H
  C69      1.0000 0.89370  0.09460  0.95610  Biso   1.000  C
  C70      1.0000 0.88170  0.22670  0.92690  Biso   1.000  C
  H39      1.0000 0.89400  0.30910  0.95000  Biso   1.000  H
  C71      1.0000 0.85200  0.23510  0.86490  Biso   1.000  C
  H40      1.0000 0.84550  0.32390  0.84640  Biso   1.000  H
  C72      1.0000 0.98970  0.18330  0.12020  Biso   1.000  C
  H41      1.0000 0.01720  0.25620  0.14160  Biso   1.000  H
  C73      1.0000 0.96570  0.19090  0.05770  Biso   1.000  C
  H42      1.0000 0.97660  0.26840  0.03770  Biso   1.000  H
  C74      1.0000 0.92570  0.08570  0.02400  Biso   1.000  C
  C75      1.0000 0.91220  0.97510  0.05480  Biso   1.000  C
  H43      1.0000 0.88530  0.90070  0.03390  Biso   1.000  H
  C76      1.0000 0.93980  0.97400  0.12000  Biso   1.000  C
  H44      1.0000 0.93150  0.89510  0.14080  Biso   1.000  H
  N7       1.0000 0.83170  0.12020  0.82960  Biso   1.000  N
  N8       1.0000 0.97570  0.07550  0.15230  Biso   1.000  N
  O22      1.0000 0.60530  0.41600  0.75610  Biso   1.000  O
  O23      1.0000 0.71070  0.47200  0.80760  Biso   1.000  O
  O24      1.0000 0.68750  0.15570  0.71260  Biso   1.000  O
  O25      1.0000 0.58930  0.06450  0.70730  Biso   1.000  O
  O26      1.0000 0.69290  0.83860  0.77770  Biso   1.000  O
  O27      1.0000 0.62400  0.77300  0.83000  Biso   1.000  O
  O28      1.0000 0.17100  0.74300  0.35260  Biso   1.000  O
  Zn5      1.0000 0.28727  0.35705  0.23883  Biso   1.000  Zn
  C77      1.0000 0.17140  0.24140  0.33350  Biso   1.000  C
  C78      1.0000 0.16310  0.37540  0.30700  Biso   1.000  C
  C79      1.0000 0.16980  0.49330  0.34340  Biso   1.000  C
  C80      1.0000 0.18340  0.48010  0.40510  Biso   1.000  C
  H45      1.0000 0.18670  0.56050  0.42930  Biso   1.000  H
  C81      1.0000 0.19220  0.34790  0.43190  Biso   1.000  C
  H46      1.0000 0.20130  0.33900  0.47410  Biso   1.000  H
  C82      1.0000 0.18750  0.23030  0.39640  Biso   1.000  C
  H47      1.0000 0.19520  0.14140  0.41480  Biso   1.000  H
  C83      1.0000 0.16100  0.10840  0.29530  Biso   1.000  C
  C84      1.0000 0.14470  0.38800  0.23640  Biso   1.000  C
  C85      1.0000 0.16790  0.64300  0.31800  Biso   1.000  C
  C86      1.0000 0.34350  0.50680  0.35650  Biso   1.000  C
  H48      1.0000 0.33100  0.58780  0.33250  Biso   1.000  H
  C87      1.0000 0.37370  0.52060  0.41890  Biso   1.000  C
  H49      1.0000 0.38060  0.61070  0.43610  Biso   1.000  H
  C88      1.0000 0.39370  0.40540  0.45610  Biso   1.000  C
  C89      1.0000 0.38170  0.27330  0.42690  Biso   1.000  C
  H50      1.0000 0.39400  0.19090  0.45000  Biso   1.000  H
  C90      1.0000 0.35200  0.26490  0.36490  Biso   1.000  C
  H51      1.0000 0.34550  0.17610  0.34640  Biso   1.000  H
  C91      1.0000 0.48970  0.31670  0.62020  Biso   1.000  C
  H52      1.0000 0.51720  0.24380  0.64160  Biso   1.000  H
  C92      1.0000 0.46570  0.30910  0.55770  Biso   1.000  C
  H53      1.0000 0.47660  0.23160  0.53770  Biso   1.000  H
  C93      1.0000 0.42570  0.41430  0.52400  Biso   1.000  C
  C94      1.0000 0.41220  0.52490  0.55480  Biso   1.000  C
  H54      1.0000 0.38530  0.59930  0.53390  Biso   1.000  H
  C95      1.0000 0.43980  0.52600  0.62000  Biso   1.000  C
  H55      1.0000 0.43150  0.60490  0.64080  Biso   1.000  H
  N9       1.0000 0.33170  0.37980  0.32960  Biso   1.000  N
  N10      1.0000 0.47570  0.42450  0.65230  Biso   1.000  N
  O29      1.0000 0.10530  0.08400  0.25610  Biso   1.000  O
  O30      1.0000 0.21070  0.02800  0.30760  Biso   1.000  O
  O31      1.0000 0.18750  0.34430  0.21260  Biso   1.000  O
  O32      1.0000 0.08930  0.43550  0.20730  Biso   1.000  O
  O33      1.0000 0.19290  0.66140  0.27770  Biso   1.000  O
  O34      1.0000 0.12400  0.72700  0.33000  Biso   1.000  O
  O35      1.0000 0.67100  0.75700  0.85260  Biso   1.000  O
  Zn6      1.0000 0.78727  0.85705  0.23883  Biso   1.000  Zn
  C96      1.0000 0.67140  0.74140  0.33350  Biso   1.000  C
  C97      1.0000 0.66310  0.87540  0.30700  Biso   1.000  C
  C98      1.0000 0.66980  0.99330  0.34340  Biso   1.000  C
  C99      1.0000 0.68340  0.98010  0.40510  Biso   1.000  C
  H56      1.0000 0.68670  0.06050  0.42930  Biso   1.000  H
  C100     1.0000 0.69220  0.84790  0.43190  Biso   1.000  C
  H57      1.0000 0.70130  0.83900  0.47410  Biso   1.000  H
  C101     1.0000 0.68750  0.73030  0.39640  Biso   1.000  C
  H58      1.0000 0.69520  0.64140  0.41480  Biso   1.000  H
  C102     1.0000 0.66100  0.60840  0.29530  Biso   1.000  C
  C103     1.0000 0.64470  0.88800  0.23640  Biso   1.000  C
  C104     1.0000 0.66790  0.14300  0.31800  Biso   1.000  C
  C105     1.0000 0.84350  0.00680  0.35650  Biso   1.000  C
  H59      1.0000 0.83100  0.08780  0.33250  Biso   1.000  H
  C106     1.0000 0.87370  0.02060  0.41890  Biso   1.000  C
  H60      1.0000 0.88060  0.11070  0.43610  Biso   1.000  H
  C107     1.0000 0.89370  0.90540  0.45610  Biso   1.000  C
  C108     1.0000 0.88170  0.77330  0.42690  Biso   1.000  C
  H61      1.0000 0.89400  0.69090  0.45000  Biso   1.000  H
  C109     1.0000 0.85200  0.76490  0.36490  Biso   1.000  C
  H62      1.0000 0.84550  0.67610  0.34640  Biso   1.000  H
  C110     1.0000 0.98970  0.81670  0.62020  Biso   1.000  C
  H63      1.0000 0.01720  0.74380  0.64160  Biso   1.000  H
  C111     1.0000 0.96570  0.80910  0.55770  Biso   1.000  C
  H64      1.0000 0.97660  0.73160  0.53770  Biso   1.000  H
  C112     1.0000 0.92570  0.91430  0.52400  Biso   1.000  C
  C113     1.0000 0.91220  0.02490  0.55480  Biso   1.000  C
  H65      1.0000 0.88530  0.09930  0.53390  Biso   1.000  H
  C114     1.0000 0.93980  0.02600  0.62000  Biso   1.000  C
  H66      1.0000 0.93150  0.10490  0.64080  Biso   1.000  H
  N11      1.0000 0.83170  0.87980  0.32960  Biso   1.000  N
  N12      1.0000 0.97570  0.92450  0.65230  Biso   1.000  N
  O36      1.0000 0.60530  0.58400  0.25610  Biso   1.000  O
  O37      1.0000 0.71070  0.52800  0.30760  Biso   1.000  O
  O38      1.0000 0.68750  0.84430  0.21260  Biso   1.000  O
  O39      1.0000 0.58930  0.93550  0.20730  Biso   1.000  O
  O40      1.0000 0.69290  0.16140  0.27770  Biso   1.000  O
  O41      1.0000 0.62400  0.22700  0.33000  Biso   1.000  O
  O42      1.0000 0.17100  0.25700  0.85260  Biso   1.000  O
  Zn7      1.0000 0.71273  0.35705  0.26117  Biso   1.000  Zn
  C115     1.0000 0.82860  0.24140  0.16650  Biso   1.000  C
  C116     1.0000 0.83690  0.37540  0.19300  Biso   1.000  C
  C117     1.0000 0.83020  0.49330  0.15660  Biso   1.000  C
  C118     1.0000 0.81660  0.48010  0.09490  Biso   1.000  C
  H67      1.0000 0.81330  0.56050  0.07070  Biso   1.000  H
  C119     1.0000 0.80780  0.34790  0.06810  Biso   1.000  C
  H68      1.0000 0.79870  0.33900  0.02590  Biso   1.000  H
  C120     1.0000 0.81250  0.23030  0.10360  Biso   1.000  C
  H69      1.0000 0.80480  0.14140  0.08520  Biso   1.000  H
  C121     1.0000 0.83900  0.10840  0.20470  Biso   1.000  C
  C122     1.0000 0.85530  0.38800  0.26360  Biso   1.000  C
  C123     1.0000 0.83210  0.64300  0.18200  Biso   1.000  C
  C124     1.0000 0.65650  0.50680  0.14350  Biso   1.000  C
  H70      1.0000 0.66900  0.58780  0.16750  Biso   1.000  H
  C125     1.0000 0.62630  0.52060  0.08110  Biso   1.000  C
  H71      1.0000 0.61940  0.61070  0.06390  Biso   1.000  H
  C126     1.0000 0.60630  0.40540  0.04390  Biso   1.000  C
  C127     1.0000 0.61830  0.27330  0.07310  Biso   1.000  C
  H72      1.0000 0.60600  0.19090  0.05000  Biso   1.000  H
  C128     1.0000 0.64800  0.26490  0.13510  Biso   1.000  C
  H73      1.0000 0.65450  0.17610  0.15360  Biso   1.000  H
  C129     1.0000 0.51030  0.31670  0.87980  Biso   1.000  C
  H74      1.0000 0.48280  0.24380  0.85840  Biso   1.000  H
  C130     1.0000 0.53430  0.30910  0.94230  Biso   1.000  C
  H75      1.0000 0.52340  0.23160  0.96230  Biso   1.000  H
  C131     1.0000 0.57430  0.41430  0.97600  Biso   1.000  C
  C132     1.0000 0.58780  0.52490  0.94520  Biso   1.000  C
  H76      1.0000 0.61470  0.59930  0.96610  Biso   1.000  H
  C133     1.0000 0.56020  0.52600  0.88000  Biso   1.000  C
  H77      1.0000 0.56850  0.60490  0.85920  Biso   1.000  H
  N13      1.0000 0.66830  0.37980  0.17040  Biso   1.000  N
  N14      1.0000 0.52430  0.42450  0.84770  Biso   1.000  N
  O43      1.0000 0.89470  0.08400  0.24390  Biso   1.000  O
  O44      1.0000 0.78930  0.02800  0.19240  Biso   1.000  O
  O45      1.0000 0.81250  0.34430  0.28740  Biso   1.000  O
  O46      1.0000 0.91070  0.43550  0.29270  Biso   1.000  O
  O47      1.0000 0.80710  0.66140  0.22230  Biso   1.000  O
  O48      1.0000 0.87600  0.72700  0.17000  Biso   1.000  O
  O49      1.0000 0.32900  0.75700  0.64740  Biso   1.000  O
  Zn8      1.0000 0.21273  0.85705  0.26117  Biso   1.000  Zn
  C134     1.0000 0.32860  0.74140  0.16650  Biso   1.000  C
  C135     1.0000 0.33690  0.87540  0.19300  Biso   1.000  C
  C136     1.0000 0.33020  0.99330  0.15660  Biso   1.000  C
  C137     1.0000 0.31660  0.98010  0.09490  Biso   1.000  C
  H78      1.0000 0.31330  0.06050  0.07070  Biso   1.000  H
  C138     1.0000 0.30780  0.84790  0.06810  Biso   1.000  C
  H79      1.0000 0.29870  0.83900  0.02590  Biso   1.000  H
  C139     1.0000 0.31250  0.73030  0.10360  Biso   1.000  C
  H80      1.0000 0.30480  0.64140  0.08520  Biso   1.000  H
  C140     1.0000 0.33900  0.60840  0.20470  Biso   1.000  C
  C141     1.0000 0.35530  0.88800  0.26360  Biso   1.000  C
  C142     1.0000 0.33210  0.14300  0.18200  Biso   1.000  C
  C143     1.0000 0.15650  0.00680  0.14350  Biso   1.000  C
  H81      1.0000 0.16900  0.08780  0.16750  Biso   1.000  H
  C144     1.0000 0.12630  0.02060  0.08110  Biso   1.000  C
  H82      1.0000 0.11940  0.11070  0.06390  Biso   1.000  H
  C145     1.0000 0.10630  0.90540  0.04390  Biso   1.000  C
  C146     1.0000 0.11830  0.77330  0.07310  Biso   1.000  C
  H83      1.0000 0.10600  0.69090  0.05000  Biso   1.000  H
  C147     1.0000 0.14800  0.76490  0.13510  Biso   1.000  C
  H84      1.0000 0.15450  0.67610  0.15360  Biso   1.000  H
  C148     1.0000 0.01030  0.81670  0.87980  Biso   1.000  C
  H85      1.0000 0.98280  0.74380  0.85840  Biso   1.000  H
  C149     1.0000 0.03430  0.80910  0.94230  Biso   1.000  C
  H86      1.0000 0.02340  0.73160  0.96230  Biso   1.000  H
  C150     1.0000 0.07430  0.91430  0.97600  Biso   1.000  C
  C151     1.0000 0.08780  0.02490  0.94520  Biso   1.000  C
  H87      1.0000 0.11470  0.09930  0.96610  Biso   1.000  H
  C152     1.0000 0.06020  0.02600  0.88000  Biso   1.000  C
  H88      1.0000 0.06850  0.10490  0.85920  Biso   1.000  H
  N15      1.0000 0.16830  0.87980  0.17040  Biso   1.000  N
  N16      1.0000 0.02430  0.92450  0.84770  Biso   1.000  N
  O50      1.0000 0.39470  0.58400  0.24390  Biso   1.000  O
  O51      1.0000 0.28930  0.52800  0.19240  Biso   1.000  O
  O52      1.0000 0.31250  0.84430  0.28740  Biso   1.000  O
  O53      1.0000 0.41070  0.93550  0.29270  Biso   1.000  O
  O54      1.0000 0.30710  0.16140  0.22230  Biso   1.000  O
  O55      1.0000 0.37600  0.22700  0.17000  Biso   1.000  O
  O56      1.0000 0.82900  0.25700  0.64740  Biso   1.000  O
  Zn9      1.0000 0.00000  0.91529  0.75000  Biso   1.000  Zn
  Zn10     1.0000 0.50000  0.41529  0.75000  Biso   1.000  Zn
  Zn11     1.0000 0.00000  0.08471  0.25000  Biso   1.000  Zn
  Zn12     1.0000 0.50000  0.58471  0.25000  Biso   1.000  Zn
