data_image0
_cell_length_a       16.706
_cell_length_b       3.5265
_cell_length_c       11.558
_cell_angle_alpha    90
_cell_angle_beta     100.77
_cell_angle_gamma    90

_symmetry_space_group_name_H-M    "P 1"
_symmetry_int_tables_number       1

loop_
  _symmetry_equiv_pos_as_xyz
  'x, y, z'

loop_
  _atom_site_label
  _atom_site_occupancy
  _atom_site_fract_x
  _atom_site_fract_y
  _atom_site_fract_z
  _atom_site_thermal_displace_type
  _atom_site_B_iso_or_equiv
  _atom_site_type_symbol
  C1       1.0000 0.93070  0.60790  0.73680  Biso   1.000  C
  H1       1.0000 0.88390  0.68150  0.68470  Biso   1.000  H
  C2       1.0000 0.92920  0.61520  0.85510  Biso   1.000  C
  H2       1.0000 0.88260  0.69470  0.88120  Biso   1.000  H
  C3       1.0000 0.06740  0.58300  0.88910  Biso   1.000  C
  H3       1.0000 0.11650  0.36210  0.93870  Biso   1.000  H
  C4       1.0000 0.06380  0.58770  0.77240  Biso   1.000  C
  H4       1.0000 0.11070  0.34490  0.74490  Biso   1.000  H
  C5       1.0000 0.43070  0.10790  0.73680  Biso   1.000  C
  H5       1.0000 0.38390  0.18150  0.68470  Biso   1.000  H
  C6       1.0000 0.42920  0.11520  0.85510  Biso   1.000  C
  H6       1.0000 0.38260  0.19470  0.88120  Biso   1.000  H
  C7       1.0000 0.56740  0.08300  0.88910  Biso   1.000  C
  H7       1.0000 0.61650  0.86210  0.93870  Biso   1.000  H
  C8       1.0000 0.56380  0.08770  0.77240  Biso   1.000  C
  H8       1.0000 0.61070  0.84490  0.74490  Biso   1.000  H
  C9       1.0000 0.06930  0.60790  0.26320  Biso   1.000  C
  H9       1.0000 0.11610  0.68150  0.31530  Biso   1.000  H
  C10      1.0000 0.07080  0.61520  0.14490  Biso   1.000  C
  H10      1.0000 0.11740  0.69470  0.11880  Biso   1.000  H
  C11      1.0000 0.93260  0.58300  0.11090  Biso   1.000  C
  H11      1.0000 0.88350  0.36210  0.06130  Biso   1.000  H
  C12      1.0000 0.93620  0.58770  0.22760  Biso   1.000  C
  H12      1.0000 0.88930  0.34490  0.25510  Biso   1.000  H
  C13      1.0000 0.56930  0.10790  0.26320  Biso   1.000  C
  H13      1.0000 0.61610  0.18150  0.31530  Biso   1.000  H
  C14      1.0000 0.57080  0.11520  0.14490  Biso   1.000  C
  H14      1.0000 0.61740  0.19470  0.11880  Biso   1.000  H
  C15      1.0000 0.43260  0.08300  0.11090  Biso   1.000  C
  H15      1.0000 0.38350  0.86210  0.06130  Biso   1.000  H
  C16      1.0000 0.43620  0.08770  0.22760  Biso   1.000  C
  H16      1.0000 0.38930  0.84490  0.25510  Biso   1.000  H
  C17      1.0000 0.06930  0.39210  0.26320  Biso   1.000  C
  H17      1.0000 0.11610  0.31850  0.31530  Biso   1.000  H
  C18      1.0000 0.07080  0.38480  0.14490  Biso   1.000  C
  H18      1.0000 0.11740  0.30530  0.11880  Biso   1.000  H
  C19      1.0000 0.93260  0.41700  0.11090  Biso   1.000  C
  H19      1.0000 0.88350  0.63790  0.06130  Biso   1.000  H
  C20      1.0000 0.93620  0.41230  0.22760  Biso   1.000  C
  H20      1.0000 0.88930  0.65510  0.25510  Biso   1.000  H
  C21      1.0000 0.56930  0.89210  0.26320  Biso   1.000  C
  H21      1.0000 0.61610  0.81850  0.31530  Biso   1.000  H
  C22      1.0000 0.57080  0.88480  0.14490  Biso   1.000  C
  H22      1.0000 0.61740  0.80530  0.11880  Biso   1.000  H
  C23      1.0000 0.43260  0.91700  0.11090  Biso   1.000  C
  H23      1.0000 0.38350  0.13790  0.06130  Biso   1.000  H
  C24      1.0000 0.43620  0.91230  0.22760  Biso   1.000  C
  H24      1.0000 0.38930  0.15510  0.25510  Biso   1.000  H
  C25      1.0000 0.93070  0.39210  0.73680  Biso   1.000  C
  H25      1.0000 0.88390  0.31850  0.68470  Biso   1.000  H
  C26      1.0000 0.92920  0.38480  0.85510  Biso   1.000  C
  H26      1.0000 0.88260  0.30530  0.88120  Biso   1.000  H
  C27      1.0000 0.06740  0.41700  0.88910  Biso   1.000  C
  H27      1.0000 0.11650  0.63790  0.93870  Biso   1.000  H
  C28      1.0000 0.06380  0.41230  0.77240  Biso   1.000  C
  H28      1.0000 0.11070  0.65510  0.74490  Biso   1.000  H
  C29      1.0000 0.43070  0.89210  0.73680  Biso   1.000  C
  H29      1.0000 0.38390  0.81850  0.68470  Biso   1.000  H
  C30      1.0000 0.42920  0.88480  0.85510  Biso   1.000  C
  H30      1.0000 0.38260  0.80530  0.88120  Biso   1.000  H
  C31      1.0000 0.56740  0.91700  0.88910  Biso   1.000  C
  H31      1.0000 0.61650  0.13790  0.93870  Biso   1.000  H
  C32      1.0000 0.56380  0.91230  0.77240  Biso   1.000  C
  H32      1.0000 0.61070  0.15510  0.74490  Biso   1.000  H
  N1       1.0000 0.99623  0.50000  0.69130  Biso   1.000  N
  C33      1.0000 0.99954  0.50000  0.93790  Biso   1.000  C
  N2       1.0000 0.49623  0.00000  0.69130  Biso   1.000  N
  C34      1.0000 0.49954  0.00000  0.93790  Biso   1.000  C
  N3       1.0000 0.00377  0.50000  0.30870  Biso   1.000  N
  C35      1.0000 0.00046  0.50000  0.06210  Biso   1.000  C
  N4       1.0000 0.50377  0.00000  0.30870  Biso   1.000  N
  C36      1.0000 0.50046  0.00000  0.06210  Biso   1.000  C
  O1       1.0000 0.08672  0.00000  0.52800  Biso   1.000  O
  V1       1.0000 0.19109  0.00000  0.55887  Biso   1.000  V
  O2       1.0000 0.58672  0.50000  0.52800  Biso   1.000  O
  V2       1.0000 0.69109  0.50000  0.55887  Biso   1.000  V
  O3       1.0000 0.91328  0.00000  0.47200  Biso   1.000  O
  V3       1.0000 0.80891  0.00000  0.44113  Biso   1.000  V
  O4       1.0000 0.41328  0.50000  0.47200  Biso   1.000  O
  V4       1.0000 0.30891  0.50000  0.44113  Biso   1.000  V
  O5       1.0000 0.20553  0.50000  0.51110  Biso   1.000  O
  O6       1.0000 0.70553  0.00000  0.51110  Biso   1.000  O
  O7       1.0000 0.79447  0.50000  0.48890  Biso   1.000  O
  O8       1.0000 0.29447  0.00000  0.48890  Biso   1.000  O
  Mn1      1.0000 0.00000  0.50000  0.50000  Biso   1.000  Mn
  Mn2      1.0000 0.50000  0.00000  0.50000  Biso   1.000  Mn
