data_image0
_cell_length_a       19.329
_cell_length_b       20.088
_cell_length_c       12.12
_cell_angle_alpha    90
_cell_angle_beta     90
_cell_angle_gamma    90

_symmetry_space_group_name_H-M    "P 1"
_symmetry_int_tables_number       1

loop_
  _symmetry_equiv_pos_as_xyz
  'x, y, z'

loop_
  _atom_site_label
  _atom_site_occupancy
  _atom_site_fract_x
  _atom_site_fract_y
  _atom_site_fract_z
  _atom_site_thermal_displace_type
  _atom_site_B_iso_or_equiv
  _atom_site_type_symbol
  C1       1.0000 0.78790  0.10530  0.34490  Biso   1.000  C
  C2       1.0000 0.71100  0.00560  0.38640  Biso   1.000  C
  C3       1.0000 0.79490  0.95910  0.54800  Biso   1.000  C
  H1       1.0000 0.82470  0.94300  0.60200  Biso   1.000  H
  C4       1.0000 0.77270  0.04260  0.40840  Biso   1.000  C
  C5       1.0000 0.81210  0.01740  0.49410  Biso   1.000  C
  C6       1.0000 0.69660  0.94980  0.44350  Biso   1.000  C
  H2       1.0000 0.65640  0.92670  0.42580  Biso   1.000  H
  C7       1.0000 0.97400  0.19330  0.37610  Biso   1.000  C
  H3       1.0000 0.94980  0.15330  0.37110  Biso   1.000  H
  C8       1.0000 0.04490  0.19240  0.38230  Biso   1.000  C
  C9       1.0000 0.35960  0.20200  0.77270  Biso   1.000  C
  C10      1.0000 0.86040  0.29710  0.61590  Biso   1.000  C
  H4       1.0000 0.88520  0.32990  0.57890  Biso   1.000  H
  C11      1.0000 0.29170  0.29590  0.88440  Biso   1.000  C
  H5       1.0000 0.26910  0.32990  0.92190  Biso   1.000  H
  C12      1.0000 0.78790  0.29570  0.72590  Biso   1.000  C
  Co1      1.0000 0.70744  0.83564  0.61457  Biso   1.000  Co
  F1       1.0000 0.87260  0.04500  0.52400  Biso   1.000  F
  F2       1.0000 0.40270  0.15670  0.72530  Biso   1.000  F
  F3       1.0000 0.07510  0.13430  0.39000  Biso   1.000  F
  N1       1.0000 0.73760  0.92530  0.52590  Biso   1.000  N
  O1       1.0000 0.76260  0.10990  0.25230  Biso   1.000  O
  O2       1.0000 0.82730  0.14720  0.39180  Biso   1.000  O
  O3       1.0000 0.81980  0.19460  0.95830  Biso   1.000  O
  O4       1.0000 0.19010  0.19480  0.39710  Biso   1.000  O
  F4       1.0000 0.16500  0.02610  0.18600  Biso   1.000  F
  C13      1.0000 0.71210  0.89470  0.84490  Biso   1.000  C
  C14      1.0000 0.78900  0.99440  0.88640  Biso   1.000  C
  C15      1.0000 0.70510  0.04090  0.04800  Biso   1.000  C
  H6       1.0000 0.67530  0.05700  0.10200  Biso   1.000  H
  C16      1.0000 0.72730  0.95740  0.90840  Biso   1.000  C
  C17      1.0000 0.68790  0.98260  0.99410  Biso   1.000  C
  C18      1.0000 0.80340  0.05020  0.94350  Biso   1.000  C
  H7       1.0000 0.84360  0.07330  0.92580  Biso   1.000  H
  C19      1.0000 0.52600  0.80670  0.87610  Biso   1.000  C
  H8       1.0000 0.55020  0.84670  0.87110  Biso   1.000  H
  C20      1.0000 0.45510  0.80760  0.88230  Biso   1.000  C
  C21      1.0000 0.14040  0.79800  0.27270  Biso   1.000  C
  C22      1.0000 0.63960  0.70290  0.11590  Biso   1.000  C
  H9       1.0000 0.61480  0.67010  0.07890  Biso   1.000  H
  C23      1.0000 0.20830  0.70410  0.38440  Biso   1.000  C
  H10      1.0000 0.23090  0.67010  0.42190  Biso   1.000  H
  C24      1.0000 0.71210  0.70430  0.22590  Biso   1.000  C
  Co2      1.0000 0.79256  0.16436  0.11457  Biso   1.000  Co
  F5       1.0000 0.62740  0.95500  0.02400  Biso   1.000  F
  F6       1.0000 0.09730  0.84330  0.22530  Biso   1.000  F
  F7       1.0000 0.42490  0.86570  0.89000  Biso   1.000  F
  N2       1.0000 0.76240  0.07470  0.02590  Biso   1.000  N
  O5       1.0000 0.73740  0.89010  0.75230  Biso   1.000  O
  O6       1.0000 0.67270  0.85280  0.89180  Biso   1.000  O
  O7       1.0000 0.68020  0.80540  0.45830  Biso   1.000  O
  O8       1.0000 0.30990  0.80520  0.89710  Biso   1.000  O
  F8       1.0000 0.33500  0.97390  0.68600  Biso   1.000  F
  C25      1.0000 0.21210  0.60530  0.65510  Biso   1.000  C
  C26      1.0000 0.28900  0.50560  0.61360  Biso   1.000  C
  C27      1.0000 0.20510  0.45910  0.45200  Biso   1.000  C
  H11      1.0000 0.17530  0.44300  0.39800  Biso   1.000  H
  C28      1.0000 0.22730  0.54260  0.59160  Biso   1.000  C
  C29      1.0000 0.18790  0.51740  0.50590  Biso   1.000  C
  C30      1.0000 0.30340  0.44980  0.55650  Biso   1.000  C
  H12      1.0000 0.34360  0.42670  0.57420  Biso   1.000  H
  C31      1.0000 0.02600  0.69330  0.62390  Biso   1.000  C
  H13      1.0000 0.05020  0.65330  0.62890  Biso   1.000  H
  C32      1.0000 0.95510  0.69240  0.61770  Biso   1.000  C
  C33      1.0000 0.64040  0.70200  0.22730  Biso   1.000  C
  C34      1.0000 0.13960  0.79710  0.38410  Biso   1.000  C
  H14      1.0000 0.11480  0.82990  0.42110  Biso   1.000  H
  C35      1.0000 0.70830  0.79590  0.11560  Biso   1.000  C
  H15      1.0000 0.73090  0.82990  0.07810  Biso   1.000  H
  C36      1.0000 0.21210  0.79570  0.27410  Biso   1.000  C
  Co3      1.0000 0.29256  0.33564  0.38543  Biso   1.000  Co
  F9       1.0000 0.12740  0.54500  0.47600  Biso   1.000  F
  F10      1.0000 0.59730  0.65670  0.27470  Biso   1.000  F
  F11      1.0000 0.92490  0.63430  0.61000  Biso   1.000  F
  N3       1.0000 0.26240  0.42530  0.47410  Biso   1.000  N
  O9       1.0000 0.23740  0.60990  0.74770  Biso   1.000  O
  O10      1.0000 0.17270  0.64720  0.60820  Biso   1.000  O
  O11      1.0000 0.18020  0.69460  0.04170  Biso   1.000  O
  O12      1.0000 0.80990  0.69480  0.60290  Biso   1.000  O
  F12      1.0000 0.83500  0.52610  0.81400  Biso   1.000  F
  C37      1.0000 0.28790  0.39470  0.15510  Biso   1.000  C
  C38      1.0000 0.21100  0.49440  0.11360  Biso   1.000  C
  C39      1.0000 0.29490  0.54090  0.95200  Biso   1.000  C
  H16      1.0000 0.32470  0.55700  0.89800  Biso   1.000  H
  C40      1.0000 0.27270  0.45740  0.09160  Biso   1.000  C
  C41      1.0000 0.31210  0.48260  0.00590  Biso   1.000  C
  C42      1.0000 0.19660  0.55020  0.05650  Biso   1.000  C
  H17      1.0000 0.15640  0.57330  0.07420  Biso   1.000  H
  C43      1.0000 0.47400  0.30670  0.12390  Biso   1.000  C
  H18      1.0000 0.44980  0.34670  0.12890  Biso   1.000  H
  C44      1.0000 0.54490  0.30760  0.11770  Biso   1.000  C
  C45      1.0000 0.85960  0.29800  0.72730  Biso   1.000  C
  C46      1.0000 0.36040  0.20290  0.88410  Biso   1.000  C
  H19      1.0000 0.38520  0.17010  0.92110  Biso   1.000  H
  C47      1.0000 0.79170  0.20410  0.61560  Biso   1.000  C
  H20      1.0000 0.76910  0.17010  0.57810  Biso   1.000  H
  C48      1.0000 0.28790  0.20430  0.77410  Biso   1.000  C
  Co4      1.0000 0.20744  0.66436  0.88543  Biso   1.000  Co
  F13      1.0000 0.37260  0.45500  0.97600  Biso   1.000  F
  F14      1.0000 0.90270  0.34330  0.77470  Biso   1.000  F
  F15      1.0000 0.57510  0.36570  0.11000  Biso   1.000  F
  N4       1.0000 0.23760  0.57470  0.97410  Biso   1.000  N
  O13      1.0000 0.26260  0.39010  0.24770  Biso   1.000  O
  O14      1.0000 0.32730  0.35280  0.10820  Biso   1.000  O
  O15      1.0000 0.31980  0.30540  0.54170  Biso   1.000  O
  O16      1.0000 0.69010  0.30520  0.10290  Biso   1.000  O
  F16      1.0000 0.66500  0.47390  0.31400  Biso   1.000  F
  C49      1.0000 0.21210  0.89470  0.65510  Biso   1.000  C
  C50      1.0000 0.28900  0.99440  0.61360  Biso   1.000  C
  C51      1.0000 0.20510  0.04090  0.45200  Biso   1.000  C
  H21      1.0000 0.17530  0.05700  0.39800  Biso   1.000  H
  C52      1.0000 0.22730  0.95740  0.59160  Biso   1.000  C
  C53      1.0000 0.18790  0.98260  0.50590  Biso   1.000  C
  C54      1.0000 0.30340  0.05020  0.55650  Biso   1.000  C
  H22      1.0000 0.34360  0.07330  0.57420  Biso   1.000  H
  C55      1.0000 0.02600  0.80670  0.62390  Biso   1.000  C
  H23      1.0000 0.05020  0.84670  0.62890  Biso   1.000  H
  C56      1.0000 0.95510  0.80760  0.61770  Biso   1.000  C
  C57      1.0000 0.64040  0.79800  0.22730  Biso   1.000  C
  C58      1.0000 0.13960  0.70290  0.38410  Biso   1.000  C
  H24      1.0000 0.11480  0.67010  0.42110  Biso   1.000  H
  C59      1.0000 0.70830  0.70410  0.11560  Biso   1.000  C
  H25      1.0000 0.73090  0.67010  0.07810  Biso   1.000  H
  C60      1.0000 0.21210  0.70430  0.27410  Biso   1.000  C
  Co5      1.0000 0.29256  0.16436  0.38543  Biso   1.000  Co
  F17      1.0000 0.12740  0.95500  0.47600  Biso   1.000  F
  F18      1.0000 0.59730  0.84330  0.27470  Biso   1.000  F
  F19      1.0000 0.92490  0.86570  0.61000  Biso   1.000  F
  N5       1.0000 0.26240  0.07470  0.47410  Biso   1.000  N
  O17      1.0000 0.23740  0.89010  0.74770  Biso   1.000  O
  O18      1.0000 0.17270  0.85280  0.60820  Biso   1.000  O
  O19      1.0000 0.18020  0.80540  0.04170  Biso   1.000  O
  O20      1.0000 0.80990  0.80520  0.60290  Biso   1.000  O
  F20      1.0000 0.83500  0.97390  0.81400  Biso   1.000  F
  C61      1.0000 0.28790  0.10530  0.15510  Biso   1.000  C
  C62      1.0000 0.21100  0.00560  0.11360  Biso   1.000  C
  C63      1.0000 0.29490  0.95910  0.95200  Biso   1.000  C
  H26      1.0000 0.32470  0.94300  0.89800  Biso   1.000  H
  C64      1.0000 0.27270  0.04260  0.09160  Biso   1.000  C
  C65      1.0000 0.31210  0.01740  0.00590  Biso   1.000  C
  C66      1.0000 0.19660  0.94980  0.05650  Biso   1.000  C
  H27      1.0000 0.15640  0.92670  0.07420  Biso   1.000  H
  C67      1.0000 0.47400  0.19330  0.12390  Biso   1.000  C
  H28      1.0000 0.44980  0.15330  0.12890  Biso   1.000  H
  C68      1.0000 0.54490  0.19240  0.11770  Biso   1.000  C
  C69      1.0000 0.85960  0.20200  0.72730  Biso   1.000  C
  C70      1.0000 0.36040  0.29710  0.88410  Biso   1.000  C
  H29      1.0000 0.38520  0.32990  0.92110  Biso   1.000  H
  C71      1.0000 0.79170  0.29590  0.61560  Biso   1.000  C
  H30      1.0000 0.76910  0.32990  0.57810  Biso   1.000  H
  C72      1.0000 0.28790  0.29570  0.77410  Biso   1.000  C
  Co6      1.0000 0.20744  0.83564  0.88543  Biso   1.000  Co
  F21      1.0000 0.37260  0.04500  0.97600  Biso   1.000  F
  F22      1.0000 0.90270  0.15670  0.77470  Biso   1.000  F
  F23      1.0000 0.57510  0.13430  0.11000  Biso   1.000  F
  N6       1.0000 0.23760  0.92530  0.97410  Biso   1.000  N
  O21      1.0000 0.26260  0.10990  0.24770  Biso   1.000  O
  O22      1.0000 0.32730  0.14720  0.10820  Biso   1.000  O
  O23      1.0000 0.31980  0.19460  0.54170  Biso   1.000  O
  O24      1.0000 0.69010  0.19480  0.10290  Biso   1.000  O
  F24      1.0000 0.66500  0.02610  0.31400  Biso   1.000  F
  C73      1.0000 0.78790  0.39470  0.34490  Biso   1.000  C
  C74      1.0000 0.71100  0.49440  0.38640  Biso   1.000  C
  C75      1.0000 0.79490  0.54090  0.54800  Biso   1.000  C
  H31      1.0000 0.82470  0.55700  0.60200  Biso   1.000  H
  C76      1.0000 0.77270  0.45740  0.40840  Biso   1.000  C
  C77      1.0000 0.81210  0.48260  0.49410  Biso   1.000  C
  C78      1.0000 0.69660  0.55020  0.44350  Biso   1.000  C
  H32      1.0000 0.65640  0.57330  0.42580  Biso   1.000  H
  C79      1.0000 0.97400  0.30670  0.37610  Biso   1.000  C
  H33      1.0000 0.94980  0.34670  0.37110  Biso   1.000  H
  C80      1.0000 0.04490  0.30760  0.38230  Biso   1.000  C
  C81      1.0000 0.35960  0.29800  0.77270  Biso   1.000  C
  C82      1.0000 0.86040  0.20290  0.61590  Biso   1.000  C
  H34      1.0000 0.88520  0.17010  0.57890  Biso   1.000  H
  C83      1.0000 0.29170  0.20410  0.88440  Biso   1.000  C
  H35      1.0000 0.26910  0.17010  0.92190  Biso   1.000  H
  C84      1.0000 0.78790  0.20430  0.72590  Biso   1.000  C
  Co7      1.0000 0.70744  0.66436  0.61457  Biso   1.000  Co
  F25      1.0000 0.87260  0.45500  0.52400  Biso   1.000  F
  F26      1.0000 0.40270  0.34330  0.72530  Biso   1.000  F
  F27      1.0000 0.07510  0.36570  0.39000  Biso   1.000  F
  N7       1.0000 0.73760  0.57470  0.52590  Biso   1.000  N
  O25      1.0000 0.76260  0.39010  0.25230  Biso   1.000  O
  O26      1.0000 0.82730  0.35280  0.39180  Biso   1.000  O
  O27      1.0000 0.81980  0.30540  0.95830  Biso   1.000  O
  O28      1.0000 0.19010  0.30520  0.39710  Biso   1.000  O
  F28      1.0000 0.16500  0.47390  0.18600  Biso   1.000  F
  C85      1.0000 0.71210  0.60530  0.84490  Biso   1.000  C
  C86      1.0000 0.78900  0.50560  0.88640  Biso   1.000  C
  C87      1.0000 0.70510  0.45910  0.04800  Biso   1.000  C
  H36      1.0000 0.67530  0.44300  0.10200  Biso   1.000  H
  C88      1.0000 0.72730  0.54260  0.90840  Biso   1.000  C
  C89      1.0000 0.68790  0.51740  0.99410  Biso   1.000  C
  C90      1.0000 0.80340  0.44980  0.94350  Biso   1.000  C
  H37      1.0000 0.84360  0.42670  0.92580  Biso   1.000  H
  C91      1.0000 0.52600  0.69330  0.87610  Biso   1.000  C
  H38      1.0000 0.55020  0.65330  0.87110  Biso   1.000  H
  C92      1.0000 0.45510  0.69240  0.88230  Biso   1.000  C
  C93      1.0000 0.14040  0.70200  0.27270  Biso   1.000  C
  C94      1.0000 0.63960  0.79710  0.11590  Biso   1.000  C
  H39      1.0000 0.61480  0.82990  0.07890  Biso   1.000  H
  C95      1.0000 0.20830  0.79590  0.38440  Biso   1.000  C
  H40      1.0000 0.23090  0.82990  0.42190  Biso   1.000  H
  C96      1.0000 0.71210  0.79570  0.22590  Biso   1.000  C
  Co8      1.0000 0.79256  0.33564  0.11457  Biso   1.000  Co
  F29      1.0000 0.62740  0.54500  0.02400  Biso   1.000  F
  F30      1.0000 0.09730  0.65670  0.22530  Biso   1.000  F
  F31      1.0000 0.42490  0.63430  0.89000  Biso   1.000  F
  N8       1.0000 0.76240  0.42530  0.02590  Biso   1.000  N
  O29      1.0000 0.73740  0.60990  0.75230  Biso   1.000  O
  O30      1.0000 0.67270  0.64720  0.89180  Biso   1.000  O
  O31      1.0000 0.68020  0.69460  0.45830  Biso   1.000  O
  O32      1.0000 0.30990  0.69480  0.89710  Biso   1.000  O
  F32      1.0000 0.33500  0.52610  0.68600  Biso   1.000  F
  C97      1.0000 0.08220  0.25000  0.38930  Biso   1.000  C
  C98      1.0000 0.82030  0.25000  0.91380  Biso   1.000  C
  C99      1.0000 0.16370  0.25000  0.39450  Biso   1.000  C
  C100     1.0000 0.82410  0.25000  0.78790  Biso   1.000  C
  Co9      1.0000 0.82688  0.25000  0.37047  Biso   1.000  Co
  N9       1.0000 0.82640  0.25000  0.55480  Biso   1.000  N
  N10      1.0000 0.93960  0.25000  0.37700  Biso   1.000  N
  O33      1.0000 0.82580  0.25000  0.19830  Biso   1.000  O
  C101     1.0000 0.41780  0.75000  0.88930  Biso   1.000  C
  C102     1.0000 0.67970  0.75000  0.41380  Biso   1.000  C
  C103     1.0000 0.33630  0.75000  0.89450  Biso   1.000  C
  C104     1.0000 0.67590  0.75000  0.28790  Biso   1.000  C
  Co10     1.0000 0.67312  0.75000  0.87047  Biso   1.000  Co
  N11      1.0000 0.67360  0.75000  0.05480  Biso   1.000  N
  N12      1.0000 0.56040  0.75000  0.87700  Biso   1.000  N
  O34      1.0000 0.67420  0.75000  0.69830  Biso   1.000  O
  C105     1.0000 0.91780  0.75000  0.61070  Biso   1.000  C
  C106     1.0000 0.17970  0.75000  0.08620  Biso   1.000  C
  C107     1.0000 0.83630  0.75000  0.60550  Biso   1.000  C
  C108     1.0000 0.17590  0.75000  0.21210  Biso   1.000  C
  Co11     1.0000 0.17312  0.75000  0.62953  Biso   1.000  Co
  N13      1.0000 0.17360  0.75000  0.44520  Biso   1.000  N
  N14      1.0000 0.06040  0.75000  0.62300  Biso   1.000  N
  O35      1.0000 0.17420  0.75000  0.80170  Biso   1.000  O
  C109     1.0000 0.58220  0.25000  0.11070  Biso   1.000  C
  C110     1.0000 0.32030  0.25000  0.58620  Biso   1.000  C
  C111     1.0000 0.66370  0.25000  0.10550  Biso   1.000  C
  C112     1.0000 0.32410  0.25000  0.71210  Biso   1.000  C
  Co12     1.0000 0.32688  0.25000  0.12953  Biso   1.000  Co
  N15      1.0000 0.32640  0.25000  0.94520  Biso   1.000  N
  N16      1.0000 0.43960  0.25000  0.12300  Biso   1.000  N
  O36      1.0000 0.32580  0.25000  0.30170  Biso   1.000  O
