data_image0
_cell_length_a       17.1216
_cell_length_b       17.444
_cell_length_c       7.8768
_cell_angle_alpha    90
_cell_angle_beta     90
_cell_angle_gamma    90

_symmetry_space_group_name_H-M    "P 1"
_symmetry_int_tables_number       1

loop_
  _symmetry_equiv_pos_as_xyz
  'x, y, z'

loop_
  _atom_site_label
  _atom_site_occupancy
  _atom_site_fract_x
  _atom_site_fract_y
  _atom_site_fract_z
  _atom_site_thermal_displace_type
  _atom_site_B_iso_or_equiv
  _atom_site_type_symbol
  Ca1      1.0000 0.07915  0.30342  0.67783  Biso   1.000  Ca
  O1       1.0000 0.00593  0.24441  0.92370  Biso   1.000  O
  O2       1.0000 0.07490  0.62853  0.04610  Biso   1.000  O
  O3       1.0000 0.02452  0.61185  0.30600  Biso   1.000  O
  C1       1.0000 0.06090  0.58680  0.17830  Biso   1.000  C
  C2       1.0000 0.09030  0.50650  0.17870  Biso   1.000  C
  C3       1.0000 0.10560  0.46860  0.02620  Biso   1.000  C
  H1       1.0000 0.09490  0.49310  0.92390  Biso   1.000  H
  C4       1.0000 0.13660  0.39470  0.02470  Biso   1.000  C
  O4       1.0000 0.15436  0.35783  0.88050  Biso   1.000  O
  C5       1.0000 0.15050  0.35810  0.18150  Biso   1.000  C
  O5       1.0000 0.17846  0.28650  0.18310  Biso   1.000  O
  C6       1.0000 0.13700  0.39580  0.33870  Biso   1.000  C
  O6       1.0000 0.15652  0.36105  0.48220  Biso   1.000  O
  C7       1.0000 0.10480  0.47020  0.33450  Biso   1.000  C
  H2       1.0000 0.09300  0.49520  0.43550  Biso   1.000  H
  K1       1.0000 0.21561  0.48232  0.68100  Biso   1.000  K
  O7       1.0000 0.06510  0.60910  0.69450  Biso   1.000  O
  O8       1.0000 0.23450  0.59310  0.94020  Biso   1.000  O
  Ca2      1.0000 0.07840  0.30360  0.95990  Biso   1.000  Ca
  K2       1.0000 0.21640  0.48070  0.95140  Biso   1.000  K
  O9       1.0000 0.00610  0.24650  0.71400  Biso   1.000  O
  O10      1.0000 0.06200  0.61500  0.78200  Biso   1.000  O
  O11      1.0000 0.02540  0.61200  0.05300  Biso   1.000  O
  C8       1.0000 0.06400  0.58400  0.93100  Biso   1.000  C
  C9       1.0000 0.08930  0.50300  0.45100  Biso   1.000  C
  C10      1.0000 0.10200  0.47600  0.29200  Biso   1.000  C
  H3       1.0000 0.09260  0.50300  0.19200  Biso   1.000  H
  C11      1.0000 0.13300  0.40140  0.29900  Biso   1.000  C
  O12      1.0000 0.15150  0.36240  0.15800  Biso   1.000  O
  C12      1.0000 0.15300  0.35550  0.47100  Biso   1.000  C
  O13      1.0000 0.17920  0.28380  0.46300  Biso   1.000  O
  C13      1.0000 0.13650  0.39220  0.61200  Biso   1.000  C
  O14      1.0000 0.15500  0.35940  0.75800  Biso   1.000  O
  C14      1.0000 0.10590  0.46640  0.60300  Biso   1.000  C
  H4       1.0000 0.09620  0.49240  0.70420  Biso   1.000  H
  O15      1.0000 0.06890  0.61250  0.94500  Biso   1.000  O
  O16      1.0000 0.23700  0.59510  0.20300  Biso   1.000  O
  Ca3      1.0000 0.42085  0.19658  0.67783  Biso   1.000  Ca
  O17      1.0000 0.49407  0.25559  0.92370  Biso   1.000  O
  O18      1.0000 0.42510  0.87147  0.04610  Biso   1.000  O
  O19      1.0000 0.47548  0.88815  0.30600  Biso   1.000  O
  C15      1.0000 0.43910  0.91320  0.17830  Biso   1.000  C
  C16      1.0000 0.40970  0.99350  0.17870  Biso   1.000  C
  C17      1.0000 0.39440  0.03140  0.02620  Biso   1.000  C
  H5       1.0000 0.40510  0.00690  0.92390  Biso   1.000  H
  C18      1.0000 0.36340  0.10530  0.02470  Biso   1.000  C
  O20      1.0000 0.34564  0.14217  0.88050  Biso   1.000  O
  C19      1.0000 0.34950  0.14190  0.18150  Biso   1.000  C
  O21      1.0000 0.32154  0.21350  0.18310  Biso   1.000  O
  C20      1.0000 0.36300  0.10420  0.33870  Biso   1.000  C
  O22      1.0000 0.34348  0.13895  0.48220  Biso   1.000  O
  C21      1.0000 0.39520  0.02980  0.33450  Biso   1.000  C
  H6       1.0000 0.40700  0.00480  0.43550  Biso   1.000  H
  K3       1.0000 0.28439  0.01768  0.68100  Biso   1.000  K
  O23      1.0000 0.43490  0.89090  0.69450  Biso   1.000  O
  O24      1.0000 0.26550  0.90690  0.94020  Biso   1.000  O
  Ca4      1.0000 0.42160  0.19640  0.95990  Biso   1.000  Ca
  K4       1.0000 0.28360  0.01930  0.95140  Biso   1.000  K
  O25      1.0000 0.49390  0.25350  0.71400  Biso   1.000  O
  O26      1.0000 0.43800  0.88500  0.78200  Biso   1.000  O
  O27      1.0000 0.47460  0.88800  0.05300  Biso   1.000  O
  C22      1.0000 0.43600  0.91600  0.93100  Biso   1.000  C
  C23      1.0000 0.41070  0.99700  0.45100  Biso   1.000  C
  C24      1.0000 0.39800  0.02400  0.29200  Biso   1.000  C
  H7       1.0000 0.40740  0.99700  0.19200  Biso   1.000  H
  C25      1.0000 0.36700  0.09860  0.29900  Biso   1.000  C
  O28      1.0000 0.34850  0.13760  0.15800  Biso   1.000  O
  C26      1.0000 0.34700  0.14450  0.47100  Biso   1.000  C
  O29      1.0000 0.32080  0.21620  0.46300  Biso   1.000  O
  C27      1.0000 0.36350  0.10780  0.61200  Biso   1.000  C
  O30      1.0000 0.34500  0.14060  0.75800  Biso   1.000  O
  C28      1.0000 0.39410  0.03360  0.60300  Biso   1.000  C
  H8       1.0000 0.40380  0.00760  0.70420  Biso   1.000  H
  O31      1.0000 0.43110  0.88750  0.94500  Biso   1.000  O
  O32      1.0000 0.26300  0.90490  0.20300  Biso   1.000  O
  Ca5      1.0000 0.92085  0.80342  0.82217  Biso   1.000  Ca
  O33      1.0000 0.99407  0.74441  0.57630  Biso   1.000  O
  O34      1.0000 0.92510  0.12853  0.45390  Biso   1.000  O
  O35      1.0000 0.97548  0.11185  0.19400  Biso   1.000  O
  C29      1.0000 0.93910  0.08680  0.32170  Biso   1.000  C
  C30      1.0000 0.90970  0.00650  0.32130  Biso   1.000  C
  C31      1.0000 0.89440  0.96860  0.47380  Biso   1.000  C
  H9       1.0000 0.90510  0.99310  0.57610  Biso   1.000  H
  C32      1.0000 0.86340  0.89470  0.47530  Biso   1.000  C
  O36      1.0000 0.84564  0.85783  0.61950  Biso   1.000  O
  C33      1.0000 0.84950  0.85810  0.31850  Biso   1.000  C
  O37      1.0000 0.82154  0.78650  0.31690  Biso   1.000  O
  C34      1.0000 0.86300  0.89580  0.16130  Biso   1.000  C
  O38      1.0000 0.84348  0.86105  0.01780  Biso   1.000  O
  C35      1.0000 0.89520  0.97020  0.16550  Biso   1.000  C
  H10      1.0000 0.90700  0.99520  0.06450  Biso   1.000  H
  K5       1.0000 0.78439  0.98232  0.81900  Biso   1.000  K
  O39      1.0000 0.93490  0.10910  0.80550  Biso   1.000  O
  O40      1.0000 0.76550  0.09310  0.55980  Biso   1.000  O
  Ca6      1.0000 0.92160  0.80360  0.54010  Biso   1.000  Ca
  K6       1.0000 0.78360  0.98070  0.54860  Biso   1.000  K
  O41      1.0000 0.99390  0.74650  0.78600  Biso   1.000  O
  O42      1.0000 0.93800  0.11500  0.71800  Biso   1.000  O
  O43      1.0000 0.97460  0.11200  0.44700  Biso   1.000  O
  C36      1.0000 0.93600  0.08400  0.56900  Biso   1.000  C
  C37      1.0000 0.91070  0.00300  0.04900  Biso   1.000  C
  C38      1.0000 0.89800  0.97600  0.20800  Biso   1.000  C
  H11      1.0000 0.90740  0.00300  0.30800  Biso   1.000  H
  C39      1.0000 0.86700  0.90140  0.20100  Biso   1.000  C
  O44      1.0000 0.84850  0.86240  0.34200  Biso   1.000  O
  C40      1.0000 0.84700  0.85550  0.02900  Biso   1.000  C
  O45      1.0000 0.82080  0.78380  0.03700  Biso   1.000  O
  C41      1.0000 0.86350  0.89220  0.88800  Biso   1.000  C
  O46      1.0000 0.84500  0.85940  0.74200  Biso   1.000  O
  C42      1.0000 0.89410  0.96640  0.89700  Biso   1.000  C
  H12      1.0000 0.90380  0.99240  0.79580  Biso   1.000  H
  O47      1.0000 0.93110  0.11250  0.55500  Biso   1.000  O
  O48      1.0000 0.76300  0.09510  0.29700  Biso   1.000  O
  Ca7      1.0000 0.57915  0.69658  0.82217  Biso   1.000  Ca
  O49      1.0000 0.50593  0.75559  0.57630  Biso   1.000  O
  O50      1.0000 0.57490  0.37147  0.45390  Biso   1.000  O
  O51      1.0000 0.52452  0.38815  0.19400  Biso   1.000  O
  C43      1.0000 0.56090  0.41320  0.32170  Biso   1.000  C
  C44      1.0000 0.59030  0.49350  0.32130  Biso   1.000  C
  C45      1.0000 0.60560  0.53140  0.47380  Biso   1.000  C
  H13      1.0000 0.59490  0.50690  0.57610  Biso   1.000  H
  C46      1.0000 0.63660  0.60530  0.47530  Biso   1.000  C
  O52      1.0000 0.65436  0.64217  0.61950  Biso   1.000  O
  C47      1.0000 0.65050  0.64190  0.31850  Biso   1.000  C
  O53      1.0000 0.67846  0.71350  0.31690  Biso   1.000  O
  C48      1.0000 0.63700  0.60420  0.16130  Biso   1.000  C
  O54      1.0000 0.65652  0.63895  0.01780  Biso   1.000  O
  C49      1.0000 0.60480  0.52980  0.16550  Biso   1.000  C
  H14      1.0000 0.59300  0.50480  0.06450  Biso   1.000  H
  K7       1.0000 0.71561  0.51768  0.81900  Biso   1.000  K
  O55      1.0000 0.56510  0.39090  0.80550  Biso   1.000  O
  O56      1.0000 0.73450  0.40690  0.55980  Biso   1.000  O
  Ca8      1.0000 0.57840  0.69640  0.54010  Biso   1.000  Ca
  K8       1.0000 0.71640  0.51930  0.54860  Biso   1.000  K
  O57      1.0000 0.50610  0.75350  0.78600  Biso   1.000  O
  O58      1.0000 0.56200  0.38500  0.71800  Biso   1.000  O
  O59      1.0000 0.52540  0.38800  0.44700  Biso   1.000  O
  C50      1.0000 0.56400  0.41600  0.56900  Biso   1.000  C
  C51      1.0000 0.58930  0.49700  0.04900  Biso   1.000  C
  C52      1.0000 0.60200  0.52400  0.20800  Biso   1.000  C
  H15      1.0000 0.59260  0.49700  0.30800  Biso   1.000  H
  C53      1.0000 0.63300  0.59860  0.20100  Biso   1.000  C
  O60      1.0000 0.65150  0.63760  0.34200  Biso   1.000  O
  C54      1.0000 0.65300  0.64450  0.02900  Biso   1.000  C
  O61      1.0000 0.67920  0.71620  0.03700  Biso   1.000  O
  C55      1.0000 0.63650  0.60780  0.88800  Biso   1.000  C
  O62      1.0000 0.65500  0.64060  0.74200  Biso   1.000  O
  C56      1.0000 0.60590  0.53360  0.89700  Biso   1.000  C
  H16      1.0000 0.59620  0.50760  0.79580  Biso   1.000  H
  O63      1.0000 0.56890  0.38750  0.55500  Biso   1.000  O
  O64      1.0000 0.73700  0.40490  0.29700  Biso   1.000  O
  Ca9      1.0000 0.92085  0.69658  0.32217  Biso   1.000  Ca
  O65      1.0000 0.99407  0.75559  0.07630  Biso   1.000  O
  O66      1.0000 0.92510  0.37147  0.95390  Biso   1.000  O
  O67      1.0000 0.97548  0.38815  0.69400  Biso   1.000  O
  C57      1.0000 0.93910  0.41320  0.82170  Biso   1.000  C
  C58      1.0000 0.90970  0.49350  0.82130  Biso   1.000  C
  C59      1.0000 0.89440  0.53140  0.97380  Biso   1.000  C
  H17      1.0000 0.90510  0.50690  0.07610  Biso   1.000  H
  C60      1.0000 0.86340  0.60530  0.97530  Biso   1.000  C
  O68      1.0000 0.84564  0.64217  0.11950  Biso   1.000  O
  C61      1.0000 0.84950  0.64190  0.81850  Biso   1.000  C
  O69      1.0000 0.82154  0.71350  0.81690  Biso   1.000  O
  C62      1.0000 0.86300  0.60420  0.66130  Biso   1.000  C
  O70      1.0000 0.84348  0.63895  0.51780  Biso   1.000  O
  C63      1.0000 0.89520  0.52980  0.66550  Biso   1.000  C
  H18      1.0000 0.90700  0.50480  0.56450  Biso   1.000  H
  K9       1.0000 0.78439  0.51768  0.31900  Biso   1.000  K
  O71      1.0000 0.93490  0.39090  0.30550  Biso   1.000  O
  O72      1.0000 0.76550  0.40690  0.05980  Biso   1.000  O
  Ca10     1.0000 0.92160  0.69640  0.04010  Biso   1.000  Ca
  K10      1.0000 0.78360  0.51930  0.04860  Biso   1.000  K
  O73      1.0000 0.99390  0.75350  0.28600  Biso   1.000  O
  O74      1.0000 0.93800  0.38500  0.21800  Biso   1.000  O
  O75      1.0000 0.97460  0.38800  0.94700  Biso   1.000  O
  C64      1.0000 0.93600  0.41600  0.06900  Biso   1.000  C
  C65      1.0000 0.91070  0.49700  0.54900  Biso   1.000  C
  C66      1.0000 0.89800  0.52400  0.70800  Biso   1.000  C
  H19      1.0000 0.90740  0.49700  0.80800  Biso   1.000  H
  C67      1.0000 0.86700  0.59860  0.70100  Biso   1.000  C
  O76      1.0000 0.84850  0.63760  0.84200  Biso   1.000  O
  C68      1.0000 0.84700  0.64450  0.52900  Biso   1.000  C
  O77      1.0000 0.82080  0.71620  0.53700  Biso   1.000  O
  C69      1.0000 0.86350  0.60780  0.38800  Biso   1.000  C
  O78      1.0000 0.84500  0.64060  0.24200  Biso   1.000  O
  C70      1.0000 0.89410  0.53360  0.39700  Biso   1.000  C
  H20      1.0000 0.90380  0.50760  0.29580  Biso   1.000  H
  O79      1.0000 0.93110  0.38750  0.05500  Biso   1.000  O
  O80      1.0000 0.76300  0.40490  0.79700  Biso   1.000  O
  Ca11     1.0000 0.57915  0.80342  0.32217  Biso   1.000  Ca
  O81      1.0000 0.50593  0.74441  0.07630  Biso   1.000  O
  O82      1.0000 0.57490  0.12853  0.95390  Biso   1.000  O
  O83      1.0000 0.52452  0.11185  0.69400  Biso   1.000  O
  C71      1.0000 0.56090  0.08680  0.82170  Biso   1.000  C
  C72      1.0000 0.59030  0.00650  0.82130  Biso   1.000  C
  C73      1.0000 0.60560  0.96860  0.97380  Biso   1.000  C
  H21      1.0000 0.59490  0.99310  0.07610  Biso   1.000  H
  C74      1.0000 0.63660  0.89470  0.97530  Biso   1.000  C
  O84      1.0000 0.65436  0.85783  0.11950  Biso   1.000  O
  C75      1.0000 0.65050  0.85810  0.81850  Biso   1.000  C
  O85      1.0000 0.67846  0.78650  0.81690  Biso   1.000  O
  C76      1.0000 0.63700  0.89580  0.66130  Biso   1.000  C
  O86      1.0000 0.65652  0.86105  0.51780  Biso   1.000  O
  C77      1.0000 0.60480  0.97020  0.66550  Biso   1.000  C
  H22      1.0000 0.59300  0.99520  0.56450  Biso   1.000  H
  K11      1.0000 0.71561  0.98232  0.31900  Biso   1.000  K
  O87      1.0000 0.56510  0.10910  0.30550  Biso   1.000  O
  O88      1.0000 0.73450  0.09310  0.05980  Biso   1.000  O
  Ca12     1.0000 0.57840  0.80360  0.04010  Biso   1.000  Ca
  K12      1.0000 0.71640  0.98070  0.04860  Biso   1.000  K
  O89      1.0000 0.50610  0.74650  0.28600  Biso   1.000  O
  O90      1.0000 0.56200  0.11500  0.21800  Biso   1.000  O
  O91      1.0000 0.52540  0.11200  0.94700  Biso   1.000  O
  C78      1.0000 0.56400  0.08400  0.06900  Biso   1.000  C
  C79      1.0000 0.58930  0.00300  0.54900  Biso   1.000  C
  C80      1.0000 0.60200  0.97600  0.70800  Biso   1.000  C
  H23      1.0000 0.59260  0.00300  0.80800  Biso   1.000  H
  C81      1.0000 0.63300  0.90140  0.70100  Biso   1.000  C
  O92      1.0000 0.65150  0.86240  0.84200  Biso   1.000  O
  C82      1.0000 0.65300  0.85550  0.52900  Biso   1.000  C
  O93      1.0000 0.67920  0.78380  0.53700  Biso   1.000  O
  C83      1.0000 0.63650  0.89220  0.38800  Biso   1.000  C
  O94      1.0000 0.65500  0.85940  0.24200  Biso   1.000  O
  C84      1.0000 0.60590  0.96640  0.39700  Biso   1.000  C
  H24      1.0000 0.59620  0.99240  0.29580  Biso   1.000  H
  O95      1.0000 0.56890  0.11250  0.05500  Biso   1.000  O
  O96      1.0000 0.73700  0.09510  0.79700  Biso   1.000  O
  Ca13     1.0000 0.07915  0.19658  0.17783  Biso   1.000  Ca
  O97      1.0000 0.00593  0.25559  0.42370  Biso   1.000  O
  O98      1.0000 0.07490  0.87147  0.54610  Biso   1.000  O
  O99      1.0000 0.02452  0.88815  0.80600  Biso   1.000  O
  C85      1.0000 0.06090  0.91320  0.67830  Biso   1.000  C
  C86      1.0000 0.09030  0.99350  0.67870  Biso   1.000  C
  C87      1.0000 0.10560  0.03140  0.52620  Biso   1.000  C
  H25      1.0000 0.09490  0.00690  0.42390  Biso   1.000  H
  C88      1.0000 0.13660  0.10530  0.52470  Biso   1.000  C
  O100     1.0000 0.15436  0.14217  0.38050  Biso   1.000  O
  C89      1.0000 0.15050  0.14190  0.68150  Biso   1.000  C
  O101     1.0000 0.17846  0.21350  0.68310  Biso   1.000  O
  C90      1.0000 0.13700  0.10420  0.83870  Biso   1.000  C
  O102     1.0000 0.15652  0.13895  0.98220  Biso   1.000  O
  C91      1.0000 0.10480  0.02980  0.83450  Biso   1.000  C
  H26      1.0000 0.09300  0.00480  0.93550  Biso   1.000  H
  K13      1.0000 0.21561  0.01768  0.18100  Biso   1.000  K
  O103     1.0000 0.06510  0.89090  0.19450  Biso   1.000  O
  O104     1.0000 0.23450  0.90690  0.44020  Biso   1.000  O
  Ca14     1.0000 0.07840  0.19640  0.45990  Biso   1.000  Ca
  K14      1.0000 0.21640  0.01930  0.45140  Biso   1.000  K
  O105     1.0000 0.00610  0.25350  0.21400  Biso   1.000  O
  O106     1.0000 0.06200  0.88500  0.28200  Biso   1.000  O
  O107     1.0000 0.02540  0.88800  0.55300  Biso   1.000  O
  C92      1.0000 0.06400  0.91600  0.43100  Biso   1.000  C
  C93      1.0000 0.08930  0.99700  0.95100  Biso   1.000  C
  C94      1.0000 0.10200  0.02400  0.79200  Biso   1.000  C
  H27      1.0000 0.09260  0.99700  0.69200  Biso   1.000  H
  C95      1.0000 0.13300  0.09860  0.79900  Biso   1.000  C
  O108     1.0000 0.15150  0.13760  0.65800  Biso   1.000  O
  C96      1.0000 0.15300  0.14450  0.97100  Biso   1.000  C
  O109     1.0000 0.17920  0.21620  0.96300  Biso   1.000  O
  C97      1.0000 0.13650  0.10780  0.11200  Biso   1.000  C
  O110     1.0000 0.15500  0.14060  0.25800  Biso   1.000  O
  C98      1.0000 0.10590  0.03360  0.10300  Biso   1.000  C
  H28      1.0000 0.09620  0.00760  0.20420  Biso   1.000  H
  O111     1.0000 0.06890  0.88750  0.44500  Biso   1.000  O
  O112     1.0000 0.23700  0.90490  0.70300  Biso   1.000  O
  Ca15     1.0000 0.42085  0.30342  0.17783  Biso   1.000  Ca
  O113     1.0000 0.49407  0.24441  0.42370  Biso   1.000  O
  O114     1.0000 0.42510  0.62853  0.54610  Biso   1.000  O
  O115     1.0000 0.47548  0.61185  0.80600  Biso   1.000  O
  C99      1.0000 0.43910  0.58680  0.67830  Biso   1.000  C
  C100     1.0000 0.40970  0.50650  0.67870  Biso   1.000  C
  C101     1.0000 0.39440  0.46860  0.52620  Biso   1.000  C
  H29      1.0000 0.40510  0.49310  0.42390  Biso   1.000  H
  C102     1.0000 0.36340  0.39470  0.52470  Biso   1.000  C
  O116     1.0000 0.34564  0.35783  0.38050  Biso   1.000  O
  C103     1.0000 0.34950  0.35810  0.68150  Biso   1.000  C
  O117     1.0000 0.32154  0.28650  0.68310  Biso   1.000  O
  C104     1.0000 0.36300  0.39580  0.83870  Biso   1.000  C
  O118     1.0000 0.34348  0.36105  0.98220  Biso   1.000  O
  C105     1.0000 0.39520  0.47020  0.83450  Biso   1.000  C
  H30      1.0000 0.40700  0.49520  0.93550  Biso   1.000  H
  K15      1.0000 0.28439  0.48232  0.18100  Biso   1.000  K
  O119     1.0000 0.43490  0.60910  0.19450  Biso   1.000  O
  O120     1.0000 0.26550  0.59310  0.44020  Biso   1.000  O
  Ca16     1.0000 0.42160  0.30360  0.45990  Biso   1.000  Ca
  K16      1.0000 0.28360  0.48070  0.45140  Biso   1.000  K
  O121     1.0000 0.49390  0.24650  0.21400  Biso   1.000  O
  O122     1.0000 0.43800  0.61500  0.28200  Biso   1.000  O
  O123     1.0000 0.47460  0.61200  0.55300  Biso   1.000  O
  C106     1.0000 0.43600  0.58400  0.43100  Biso   1.000  C
  C107     1.0000 0.41070  0.50300  0.95100  Biso   1.000  C
  C108     1.0000 0.39800  0.47600  0.79200  Biso   1.000  C
  H31      1.0000 0.40740  0.50300  0.69200  Biso   1.000  H
  C109     1.0000 0.36700  0.40140  0.79900  Biso   1.000  C
  O124     1.0000 0.34850  0.36240  0.65800  Biso   1.000  O
  C110     1.0000 0.34700  0.35550  0.97100  Biso   1.000  C
  O125     1.0000 0.32080  0.28380  0.96300  Biso   1.000  O
  C111     1.0000 0.36350  0.39220  0.11200  Biso   1.000  C
  O126     1.0000 0.34500  0.35940  0.25800  Biso   1.000  O
  C112     1.0000 0.39410  0.46640  0.10300  Biso   1.000  C
  H32      1.0000 0.40380  0.49240  0.20420  Biso   1.000  H
  O127     1.0000 0.43110  0.61250  0.44500  Biso   1.000  O
  O128     1.0000 0.26300  0.59510  0.70300  Biso   1.000  O
  Ca17     1.0000 0.25000  0.25000  0.93210  Biso   1.000  Ca
  Ca18     1.0000 0.25000  0.25000  0.70740  Biso   1.000  Ca
  Ca19     1.0000 0.75000  0.75000  0.56790  Biso   1.000  Ca
  Ca20     1.0000 0.75000  0.75000  0.79260  Biso   1.000  Ca
  Ca21     1.0000 0.75000  0.75000  0.06790  Biso   1.000  Ca
  Ca22     1.0000 0.75000  0.75000  0.29260  Biso   1.000  Ca
  Ca23     1.0000 0.25000  0.25000  0.43210  Biso   1.000  Ca
  Ca24     1.0000 0.25000  0.25000  0.20740  Biso   1.000  Ca
