data_image0
_cell_length_a       9.3435
_cell_length_b       22.187
_cell_length_c       13.8761
_cell_angle_alpha    90
_cell_angle_beta     109.571
_cell_angle_gamma    90

_symmetry_space_group_name_H-M    "P 1"
_symmetry_int_tables_number       1

loop_
  _symmetry_equiv_pos_as_xyz
  'x, y, z'

loop_
  _atom_site_label
  _atom_site_occupancy
  _atom_site_fract_x
  _atom_site_fract_y
  _atom_site_fract_z
  _atom_site_thermal_displace_type
  _atom_site_B_iso_or_equiv
  _atom_site_type_symbol
  Y1       1.0000 0.24708  0.93824  0.48929  Biso   1.000  Y
  O1       1.0000 0.09850  0.01549  0.42080  Biso   1.000  O
  O2       1.0000 0.85120  0.07350  0.38540  Biso   1.000  O
  O3       1.0000 0.58560  0.13570  0.46060  Biso   1.000  O
  O4       1.0000 0.16360  0.44440  0.14290  Biso   1.000  O
  O5       1.0000 0.90580  0.49471  0.08680  Biso   1.000  O
  O6       1.0000 0.43610  0.38020  0.11610  Biso   1.000  O
  P1       1.0000 0.98611  0.05873  0.35459  Biso   1.000  P
  O7       1.0000 0.91660  0.03450  0.24270  Biso   1.000  O
  C1       1.0000 0.08250  0.12740  0.34670  Biso   1.000  C
  H1       1.0000 0.98050  0.01260  0.22900  Biso   1.000  H
  C2       1.0000 0.23890  0.13000  0.37480  Biso   1.000  C
  C3       1.0000 0.99670  0.17830  0.30730  Biso   1.000  C
  H2       1.0000 0.29880  0.09550  0.40210  Biso   1.000  H
  C4       1.0000 0.30810  0.18360  0.36260  Biso   1.000  C
  C5       1.0000 0.06070  0.23280  0.29380  Biso   1.000  C
  H3       1.0000 0.88940  0.17570  0.28860  Biso   1.000  H
  P2       1.0000 0.50610  0.18459  0.37060  Biso   1.000  P
  C6       1.0000 0.22000  0.23420  0.32320  Biso   1.000  C
  C7       1.0000 0.96640  0.28660  0.25090  Biso   1.000  C
  O8       1.0000 0.52830  0.17500  0.26730  Biso   1.000  O
  O9       1.0000 0.55960  0.24830  0.40960  Biso   1.000  O
  H4       1.0000 0.26880  0.27060  0.31590  Biso   1.000  H
  C8       1.0000 0.80910  0.28580  0.23310  Biso   1.000  C
  C9       1.0000 0.02610  0.33940  0.22640  Biso   1.000  C
  C10      1.0000 0.71750  0.33440  0.19250  Biso   1.000  C
  H5       1.0000 0.76460  0.25050  0.24960  Biso   1.000  H
  C11      1.0000 0.93550  0.38940  0.18570  Biso   1.000  C
  H6       1.0000 0.13200  0.34150  0.23760  Biso   1.000  H
  P3       1.0000 0.52080  0.33195  0.18520  Biso   1.000  P
  C12      1.0000 0.77980  0.38680  0.16710  Biso   1.000  C
  P4       1.0000 0.02119  0.45815  0.16500  Biso   1.000  P
  O10      1.0000 0.50760  0.34360  0.29400  Biso   1.000  O
  O11      1.0000 0.46800  0.26710  0.15760  Biso   1.000  O
  H7       1.0000 0.71670  0.42020  0.13740  Biso   1.000  H
  O12      1.0000 0.07410  0.49090  0.27110  Biso   1.000  O
  H8       1.0000 0.00410  0.51330  0.27530  Biso   1.000  H
  O13      1.0000 0.59100  0.13390  0.22710  Biso   1.000  O
  O14      1.0000 0.59650  0.06980  0.18670  Biso   1.000  O
  P5       1.0000 0.51630  0.19460  0.43440  Biso   1.000  P
  O15      1.0000 0.55610  0.23120  0.54060  Biso   1.000  O
  O16      1.0000 0.56940  0.23280  0.36490  Biso   1.000  O
  O17      1.0000 0.58220  0.13240  0.42870  Biso   1.000  O
  P6       1.0000 0.51280  0.32290  0.14990  Biso   1.000  P
  O18      1.0000 0.46910  0.26310  0.11250  Biso   1.000  O
  O19      1.0000 0.48920  0.32930  0.25960  Biso   1.000  O
  O20      1.0000 0.43060  0.37290  0.08660  Biso   1.000  O
  Y2       1.0000 0.25292  0.43824  0.01071  Biso   1.000  Y
  O21      1.0000 0.40150  0.51549  0.07920  Biso   1.000  O
  O22      1.0000 0.64880  0.57350  0.11460  Biso   1.000  O
  O23      1.0000 0.91440  0.63570  0.03940  Biso   1.000  O
  O24      1.0000 0.33640  0.94440  0.35710  Biso   1.000  O
  O25      1.0000 0.59420  0.99471  0.41320  Biso   1.000  O
  O26      1.0000 0.06390  0.88020  0.38390  Biso   1.000  O
  P7       1.0000 0.51389  0.55873  0.14541  Biso   1.000  P
  O27      1.0000 0.58340  0.53450  0.25730  Biso   1.000  O
  C13      1.0000 0.41750  0.62740  0.15330  Biso   1.000  C
  H9       1.0000 0.51950  0.51260  0.27100  Biso   1.000  H
  C14      1.0000 0.26110  0.63000  0.12520  Biso   1.000  C
  C15      1.0000 0.50330  0.67830  0.19270  Biso   1.000  C
  H10      1.0000 0.20120  0.59550  0.09790  Biso   1.000  H
  C16      1.0000 0.19190  0.68360  0.13740  Biso   1.000  C
  C17      1.0000 0.43930  0.73280  0.20620  Biso   1.000  C
  H11      1.0000 0.61060  0.67570  0.21140  Biso   1.000  H
  P8       1.0000 0.99390  0.68459  0.12940  Biso   1.000  P
  C18      1.0000 0.28000  0.73420  0.17680  Biso   1.000  C
  C19      1.0000 0.53360  0.78660  0.24910  Biso   1.000  C
  O28      1.0000 0.97170  0.67500  0.23270  Biso   1.000  O
  O29      1.0000 0.94040  0.74830  0.09040  Biso   1.000  O
  H12      1.0000 0.23120  0.77060  0.18410  Biso   1.000  H
  C20      1.0000 0.69090  0.78580  0.26690  Biso   1.000  C
  C21      1.0000 0.47390  0.83940  0.27360  Biso   1.000  C
  C22      1.0000 0.78250  0.83440  0.30750  Biso   1.000  C
  H13      1.0000 0.73540  0.75050  0.25040  Biso   1.000  H
  C23      1.0000 0.56450  0.88940  0.31430  Biso   1.000  C
  H14      1.0000 0.36800  0.84150  0.26240  Biso   1.000  H
  P9       1.0000 0.97920  0.83195  0.31480  Biso   1.000  P
  C24      1.0000 0.72020  0.88680  0.33290  Biso   1.000  C
  P10      1.0000 0.47881  0.95815  0.33500  Biso   1.000  P
  O30      1.0000 0.99240  0.84360  0.20600  Biso   1.000  O
  O31      1.0000 0.03200  0.76710  0.34240  Biso   1.000  O
  H15      1.0000 0.78330  0.92020  0.36260  Biso   1.000  H
  O32      1.0000 0.42590  0.99090  0.22890  Biso   1.000  O
  H16      1.0000 0.49590  0.01330  0.22470  Biso   1.000  H
  O33      1.0000 0.90900  0.63390  0.27290  Biso   1.000  O
  O34      1.0000 0.90350  0.56980  0.31330  Biso   1.000  O
  P11      1.0000 0.98370  0.69460  0.06560  Biso   1.000  P
  O35      1.0000 0.94390  0.73120  0.95940  Biso   1.000  O
  O36      1.0000 0.93060  0.73280  0.13510  Biso   1.000  O
  O37      1.0000 0.91780  0.63240  0.07130  Biso   1.000  O
  P12      1.0000 0.98720  0.82290  0.35010  Biso   1.000  P
  O38      1.0000 0.03090  0.76310  0.38750  Biso   1.000  O
  O39      1.0000 0.01080  0.82930  0.24040  Biso   1.000  O
  O40      1.0000 0.06940  0.87290  0.41340  Biso   1.000  O
  Y3       1.0000 0.75292  0.06176  0.51071  Biso   1.000  Y
  O41      1.0000 0.90150  0.98451  0.57920  Biso   1.000  O
  O42      1.0000 0.14880  0.92650  0.61460  Biso   1.000  O
  O43      1.0000 0.41440  0.86430  0.53940  Biso   1.000  O
  O44      1.0000 0.83640  0.55560  0.85710  Biso   1.000  O
  O45      1.0000 0.09420  0.50529  0.91320  Biso   1.000  O
  O46      1.0000 0.56390  0.61980  0.88390  Biso   1.000  O
  P13      1.0000 0.01389  0.94127  0.64541  Biso   1.000  P
  O47      1.0000 0.08340  0.96550  0.75730  Biso   1.000  O
  C25      1.0000 0.91750  0.87260  0.65330  Biso   1.000  C
  H17      1.0000 0.01950  0.98740  0.77100  Biso   1.000  H
  C26      1.0000 0.76110  0.87000  0.62520  Biso   1.000  C
  C27      1.0000 0.00330  0.82170  0.69270  Biso   1.000  C
  H18      1.0000 0.70120  0.90450  0.59790  Biso   1.000  H
  C28      1.0000 0.69190  0.81640  0.63740  Biso   1.000  C
  C29      1.0000 0.93930  0.76720  0.70620  Biso   1.000  C
  H19      1.0000 0.11060  0.82430  0.71140  Biso   1.000  H
  P14      1.0000 0.49390  0.81541  0.62940  Biso   1.000  P
  C30      1.0000 0.78000  0.76580  0.67680  Biso   1.000  C
  C31      1.0000 0.03360  0.71340  0.74910  Biso   1.000  C
  O48      1.0000 0.47170  0.82500  0.73270  Biso   1.000  O
  O49      1.0000 0.44040  0.75170  0.59040  Biso   1.000  O
  H20      1.0000 0.73120  0.72940  0.68410  Biso   1.000  H
  C32      1.0000 0.19090  0.71420  0.76690  Biso   1.000  C
  C33      1.0000 0.97390  0.66060  0.77360  Biso   1.000  C
  C34      1.0000 0.28250  0.66560  0.80750  Biso   1.000  C
  H21      1.0000 0.23540  0.74950  0.75040  Biso   1.000  H
  C35      1.0000 0.06450  0.61060  0.81430  Biso   1.000  C
  H22      1.0000 0.86800  0.65850  0.76240  Biso   1.000  H
  P15      1.0000 0.47920  0.66805  0.81480  Biso   1.000  P
  C36      1.0000 0.22020  0.61320  0.83290  Biso   1.000  C
  P16      1.0000 0.97881  0.54185  0.83500  Biso   1.000  P
  O50      1.0000 0.49240  0.65640  0.70600  Biso   1.000  O
  O51      1.0000 0.53200  0.73290  0.84240  Biso   1.000  O
  H23      1.0000 0.28330  0.57980  0.86260  Biso   1.000  H
  O52      1.0000 0.92590  0.50910  0.72890  Biso   1.000  O
  H24      1.0000 0.99590  0.48670  0.72470  Biso   1.000  H
  O53      1.0000 0.40900  0.86610  0.77290  Biso   1.000  O
  O54      1.0000 0.40350  0.93020  0.81330  Biso   1.000  O
  P17      1.0000 0.48370  0.80540  0.56560  Biso   1.000  P
  O55      1.0000 0.44390  0.76880  0.45940  Biso   1.000  O
  O56      1.0000 0.43060  0.76720  0.63510  Biso   1.000  O
  O57      1.0000 0.41780  0.86760  0.57130  Biso   1.000  O
  P18      1.0000 0.48720  0.67710  0.85010  Biso   1.000  P
  O58      1.0000 0.53090  0.73690  0.88750  Biso   1.000  O
  O59      1.0000 0.51080  0.67070  0.74040  Biso   1.000  O
  O60      1.0000 0.56940  0.62710  0.91340  Biso   1.000  O
  Y4       1.0000 0.74708  0.56176  0.98929  Biso   1.000  Y
  O61      1.0000 0.59850  0.48451  0.92080  Biso   1.000  O
  O62      1.0000 0.35120  0.42650  0.88540  Biso   1.000  O
  O63      1.0000 0.08560  0.36430  0.96060  Biso   1.000  O
  O64      1.0000 0.66360  0.05560  0.64290  Biso   1.000  O
  O65      1.0000 0.40580  0.00529  0.58680  Biso   1.000  O
  O66      1.0000 0.93610  0.11980  0.61610  Biso   1.000  O
  P19      1.0000 0.48611  0.44127  0.85459  Biso   1.000  P
  O67      1.0000 0.41660  0.46550  0.74270  Biso   1.000  O
  C37      1.0000 0.58250  0.37260  0.84670  Biso   1.000  C
  H25      1.0000 0.48050  0.48740  0.72900  Biso   1.000  H
  C38      1.0000 0.73890  0.37000  0.87480  Biso   1.000  C
  C39      1.0000 0.49670  0.32170  0.80730  Biso   1.000  C
  H26      1.0000 0.79880  0.40450  0.90210  Biso   1.000  H
  C40      1.0000 0.80810  0.31640  0.86260  Biso   1.000  C
  C41      1.0000 0.56070  0.26720  0.79380  Biso   1.000  C
  H27      1.0000 0.38940  0.32430  0.78860  Biso   1.000  H
  P20      1.0000 0.00610  0.31541  0.87060  Biso   1.000  P
  C42      1.0000 0.72000  0.26580  0.82320  Biso   1.000  C
  C43      1.0000 0.46640  0.21340  0.75090  Biso   1.000  C
  O68      1.0000 0.02830  0.32500  0.76730  Biso   1.000  O
  O69      1.0000 0.05960  0.25170  0.90960  Biso   1.000  O
  H28      1.0000 0.76880  0.22940  0.81590  Biso   1.000  H
  C44      1.0000 0.30910  0.21420  0.73310  Biso   1.000  C
  C45      1.0000 0.52610  0.16060  0.72640  Biso   1.000  C
  C46      1.0000 0.21750  0.16560  0.69250  Biso   1.000  C
  H29      1.0000 0.26460  0.24950  0.74960  Biso   1.000  H
  C47      1.0000 0.43550  0.11060  0.68570  Biso   1.000  C
  H30      1.0000 0.63200  0.15850  0.73760  Biso   1.000  H
  P21      1.0000 0.02080  0.16805  0.68520  Biso   1.000  P
  C48      1.0000 0.27980  0.11320  0.66710  Biso   1.000  C
  P22      1.0000 0.52119  0.04185  0.66500  Biso   1.000  P
  O70      1.0000 0.00760  0.15640  0.79400  Biso   1.000  O
  O71      1.0000 0.96800  0.23290  0.65760  Biso   1.000  O
  H31      1.0000 0.21670  0.07980  0.63740  Biso   1.000  H
  O72      1.0000 0.57410  0.00910  0.77110  Biso   1.000  O
  H32      1.0000 0.50410  0.98670  0.77530  Biso   1.000  H
  O73      1.0000 0.09100  0.36610  0.72710  Biso   1.000  O
  O74      1.0000 0.09650  0.43020  0.68670  Biso   1.000  O
  P23      1.0000 0.01630  0.30540  0.93440  Biso   1.000  P
  O75      1.0000 0.05610  0.26880  0.04060  Biso   1.000  O
  O76      1.0000 0.06940  0.26720  0.86490  Biso   1.000  O
  O77      1.0000 0.08220  0.36760  0.92870  Biso   1.000  O
  P24      1.0000 0.01280  0.17710  0.64990  Biso   1.000  P
  O78      1.0000 0.96910  0.23690  0.61250  Biso   1.000  O
  O79      1.0000 0.98920  0.17070  0.75960  Biso   1.000  O
  O80      1.0000 0.93060  0.12710  0.58660  Biso   1.000  O
