data_image0
_cell_length_a       16.648
_cell_length_b       14.23
_cell_length_c       9.2846
_cell_angle_alpha    90
_cell_angle_beta     90
_cell_angle_gamma    90

_symmetry_space_group_name_H-M    "P 1"
_symmetry_int_tables_number       1

loop_
  _symmetry_equiv_pos_as_xyz
  'x, y, z'

loop_
  _atom_site_label
  _atom_site_occupancy
  _atom_site_fract_x
  _atom_site_fract_y
  _atom_site_fract_z
  _atom_site_thermal_displace_type
  _atom_site_B_iso_or_equiv
  _atom_site_type_symbol
  Zn1      1.0000 0.57661  0.10700  0.07395  Biso   1.000  Zn
  P1       1.0000 0.43943  0.10469  0.84140  Biso   1.000  P
  H1       1.0000 0.41570  0.17960  0.92370  Biso   1.000  H
  O1       1.0000 0.52670  0.09800  0.88400  Biso   1.000  O
  O2       1.0000 0.39390  0.01600  0.86480  Biso   1.000  O
  O3       1.0000 0.43310  0.13890  0.69020  Biso   1.000  O
  O4       1.0000 0.50670  0.16370  0.20810  Biso   1.000  O
  O5       1.0000 0.17780  0.33540  0.46670  Biso   1.000  O
  H2       1.0000 0.39680  0.23380  0.23300  Biso   1.000  H
  Zn2      1.0000 0.92339  0.89300  0.57395  Biso   1.000  Zn
  P2       1.0000 0.06057  0.89531  0.34140  Biso   1.000  P
  H3       1.0000 0.08430  0.82040  0.42370  Biso   1.000  H
  O6       1.0000 0.97330  0.90200  0.38400  Biso   1.000  O
  O7       1.0000 0.10610  0.98400  0.36480  Biso   1.000  O
  O8       1.0000 0.06690  0.86110  0.19020  Biso   1.000  O
  O9       1.0000 0.99330  0.83630  0.70810  Biso   1.000  O
  O10      1.0000 0.32220  0.66460  0.96670  Biso   1.000  O
  H4       1.0000 0.10320  0.76620  0.73300  Biso   1.000  H
  Zn3      1.0000 0.42339  0.60700  0.92605  Biso   1.000  Zn
  P3       1.0000 0.56057  0.60469  0.15860  Biso   1.000  P
  H5       1.0000 0.58430  0.67960  0.07630  Biso   1.000  H
  O11      1.0000 0.47330  0.59800  0.11600  Biso   1.000  O
  O12      1.0000 0.60610  0.51600  0.13520  Biso   1.000  O
  O13      1.0000 0.56690  0.63890  0.30980  Biso   1.000  O
  O14      1.0000 0.49330  0.66370  0.79190  Biso   1.000  O
  O15      1.0000 0.82220  0.83540  0.53330  Biso   1.000  O
  H6       1.0000 0.60320  0.73380  0.76700  Biso   1.000  H
  Zn4      1.0000 0.07661  0.39300  0.42605  Biso   1.000  Zn
  P4       1.0000 0.93943  0.39531  0.65860  Biso   1.000  P
  H7       1.0000 0.91570  0.32040  0.57630  Biso   1.000  H
  O16      1.0000 0.02670  0.40200  0.61600  Biso   1.000  O
  O17      1.0000 0.89390  0.48400  0.63520  Biso   1.000  O
  O18      1.0000 0.93310  0.36110  0.80980  Biso   1.000  O
  O19      1.0000 0.00670  0.33630  0.29190  Biso   1.000  O
  O20      1.0000 0.67780  0.16460  0.03330  Biso   1.000  O
  H8       1.0000 0.89680  0.26620  0.26700  Biso   1.000  H
  Zn5      1.0000 0.42339  0.89300  0.92605  Biso   1.000  Zn
  P5       1.0000 0.56057  0.89531  0.15860  Biso   1.000  P
  H9       1.0000 0.58430  0.82040  0.07630  Biso   1.000  H
  O21      1.0000 0.47330  0.90200  0.11600  Biso   1.000  O
  O22      1.0000 0.60610  0.98400  0.13520  Biso   1.000  O
  O23      1.0000 0.56690  0.86110  0.30980  Biso   1.000  O
  O24      1.0000 0.49330  0.83630  0.79190  Biso   1.000  O
  O25      1.0000 0.82220  0.66460  0.53330  Biso   1.000  O
  H10      1.0000 0.60320  0.76620  0.76700  Biso   1.000  H
  Zn6      1.0000 0.07661  0.10700  0.42605  Biso   1.000  Zn
  P6       1.0000 0.93943  0.10469  0.65860  Biso   1.000  P
  H11      1.0000 0.91570  0.17960  0.57630  Biso   1.000  H
  O26      1.0000 0.02670  0.09800  0.61600  Biso   1.000  O
  O27      1.0000 0.89390  0.01600  0.63520  Biso   1.000  O
  O28      1.0000 0.93310  0.13890  0.80980  Biso   1.000  O
  O29      1.0000 0.00670  0.16370  0.29190  Biso   1.000  O
  O30      1.0000 0.67780  0.33540  0.03330  Biso   1.000  O
  H12      1.0000 0.89680  0.23380  0.26700  Biso   1.000  H
  Zn7      1.0000 0.57661  0.39300  0.07395  Biso   1.000  Zn
  P7       1.0000 0.43943  0.39531  0.84140  Biso   1.000  P
  H13      1.0000 0.41570  0.32040  0.92370  Biso   1.000  H
  O31      1.0000 0.52670  0.40200  0.88400  Biso   1.000  O
  O32      1.0000 0.39390  0.48400  0.86480  Biso   1.000  O
  O33      1.0000 0.43310  0.36110  0.69020  Biso   1.000  O
  O34      1.0000 0.50670  0.33630  0.20810  Biso   1.000  O
  O35      1.0000 0.17780  0.16460  0.46670  Biso   1.000  O
  H14      1.0000 0.39680  0.26620  0.23300  Biso   1.000  H
  Zn8      1.0000 0.92339  0.60700  0.57395  Biso   1.000  Zn
  P8       1.0000 0.06057  0.60469  0.34140  Biso   1.000  P
  H15      1.0000 0.08430  0.67960  0.42370  Biso   1.000  H
  O36      1.0000 0.97330  0.59800  0.38400  Biso   1.000  O
  O37      1.0000 0.10610  0.51600  0.36480  Biso   1.000  O
  O38      1.0000 0.06690  0.63890  0.19020  Biso   1.000  O
  O39      1.0000 0.99330  0.66370  0.70810  Biso   1.000  O
  O40      1.0000 0.32220  0.83540  0.96670  Biso   1.000  O
  H16      1.0000 0.10320  0.73380  0.73300  Biso   1.000  H
  Zn9      1.0000 0.40326  0.25000  0.58651  Biso   1.000  Zn
  P9       1.0000 0.47102  0.25000  0.26180  Biso   1.000  P
  P10      1.0000 0.22406  0.25000  0.45000  Biso   1.000  P
  H17      1.0000 0.25110  0.25000  0.32090  Biso   1.000  H
  O41      1.0000 0.46750  0.25000  0.41780  Biso   1.000  O
  O42      1.0000 0.29230  0.25000  0.55390  Biso   1.000  O
  Zn10     1.0000 0.09674  0.75000  0.08651  Biso   1.000  Zn
  P11      1.0000 0.02898  0.75000  0.76180  Biso   1.000  P
  P12      1.0000 0.27594  0.75000  0.95000  Biso   1.000  P
  H18      1.0000 0.24890  0.75000  0.82090  Biso   1.000  H
  O43      1.0000 0.03250  0.75000  0.91780  Biso   1.000  O
  O44      1.0000 0.20770  0.75000  0.05390  Biso   1.000  O
  Zn11     1.0000 0.59674  0.75000  0.41349  Biso   1.000  Zn
  P13      1.0000 0.52898  0.75000  0.73820  Biso   1.000  P
  P14      1.0000 0.77594  0.75000  0.55000  Biso   1.000  P
  H19      1.0000 0.74890  0.75000  0.67910  Biso   1.000  H
  O45      1.0000 0.53250  0.75000  0.58220  Biso   1.000  O
  O46      1.0000 0.70770  0.75000  0.44610  Biso   1.000  O
  Zn12     1.0000 0.90326  0.25000  0.91349  Biso   1.000  Zn
  P15      1.0000 0.97102  0.25000  0.23820  Biso   1.000  P
  P16      1.0000 0.72406  0.25000  0.05000  Biso   1.000  P
  H20      1.0000 0.75110  0.25000  0.17910  Biso   1.000  H
  O47      1.0000 0.96750  0.25000  0.08220  Biso   1.000  O
  O48      1.0000 0.79230  0.25000  0.94610  Biso   1.000  O
