data_image0
_cell_length_a       19.9132
_cell_length_b       19.9132
_cell_length_c       25.0517
_cell_angle_alpha    90
_cell_angle_beta     90
_cell_angle_gamma    90

_symmetry_space_group_name_H-M    "P 1"
_symmetry_int_tables_number       1

loop_
  _symmetry_equiv_pos_as_xyz
  'x, y, z'

loop_
  _atom_site_label
  _atom_site_occupancy
  _atom_site_fract_x
  _atom_site_fract_y
  _atom_site_fract_z
  _atom_site_thermal_displace_type
  _atom_site_B_iso_or_equiv
  _atom_site_type_symbol
  O1       1.0000 0.03800  0.57550  0.32890  Biso   1.000  O
  C1       1.0000 0.03170  0.81330  0.30900  Biso   1.000  C
  O2       1.0000 0.96990  0.43080  0.20730  Biso   1.000  O
  O3       1.0000 0.02190  0.36550  0.26630  Biso   1.000  O
  O4       1.0000 0.16490  0.72400  0.44820  Biso   1.000  O
  O5       1.0000 0.98280  0.61880  0.25930  Biso   1.000  O
  C2       1.0000 0.03540  0.69310  0.31970  Biso   1.000  C
  C3       1.0000 0.07100  0.82170  0.35330  Biso   1.000  C
  H1       1.0000 0.08310  0.86450  0.36460  Biso   1.000  H
  C4       1.0000 0.01810  0.62380  0.30200  Biso   1.000  C
  C5       1.0000 0.07490  0.70120  0.36580  Biso   1.000  C
  H2       1.0000 0.08860  0.66400  0.38520  Biso   1.000  H
  C6       1.0000 0.01400  0.74960  0.29210  Biso   1.000  C
  H3       1.0000 0.98730  0.74460  0.26190  Biso   1.000  H
  C7       1.0000 0.14070  0.77140  0.42650  Biso   1.000  C
  C8       1.0000 0.98910  0.37380  0.22270  Biso   1.000  C
  C9       1.0000 0.09300  0.76460  0.38170  Biso   1.000  C
  O6       1.0000 0.15530  0.82930  0.44190  Biso   1.000  O
  O7       1.0000 0.46200  0.92450  0.32890  Biso   1.000  O
  C10      1.0000 0.46830  0.68670  0.30900  Biso   1.000  C
  O8       1.0000 0.53010  0.06920  0.20730  Biso   1.000  O
  O9       1.0000 0.47810  0.13450  0.26630  Biso   1.000  O
  O10      1.0000 0.33510  0.77600  0.44820  Biso   1.000  O
  O11      1.0000 0.51720  0.88120  0.25930  Biso   1.000  O
  C11      1.0000 0.46460  0.80690  0.31970  Biso   1.000  C
  C12      1.0000 0.42900  0.67830  0.35330  Biso   1.000  C
  H4       1.0000 0.41690  0.63550  0.36460  Biso   1.000  H
  C13      1.0000 0.48190  0.87620  0.30200  Biso   1.000  C
  C14      1.0000 0.42510  0.79880  0.36580  Biso   1.000  C
  H5       1.0000 0.41140  0.83600  0.38520  Biso   1.000  H
  C15      1.0000 0.48600  0.75040  0.29210  Biso   1.000  C
  H6       1.0000 0.51270  0.75540  0.26190  Biso   1.000  H
  C16      1.0000 0.35930  0.72860  0.42650  Biso   1.000  C
  C17      1.0000 0.51090  0.12620  0.22270  Biso   1.000  C
  C18      1.0000 0.40700  0.73540  0.38170  Biso   1.000  C
  O12      1.0000 0.34470  0.67070  0.44190  Biso   1.000  O
  O13      1.0000 0.92450  0.03800  0.82890  Biso   1.000  O
  C19      1.0000 0.68670  0.03170  0.80900  Biso   1.000  C
  O14      1.0000 0.06920  0.96990  0.70730  Biso   1.000  O
  O15      1.0000 0.13450  0.02190  0.76630  Biso   1.000  O
  O16      1.0000 0.77600  0.16490  0.94820  Biso   1.000  O
  O17      1.0000 0.88120  0.98280  0.75930  Biso   1.000  O
  C20      1.0000 0.80690  0.03540  0.81970  Biso   1.000  C
  C21      1.0000 0.67830  0.07100  0.85330  Biso   1.000  C
  H7       1.0000 0.63550  0.08310  0.86460  Biso   1.000  H
  C22      1.0000 0.87620  0.01810  0.80200  Biso   1.000  C
  C23      1.0000 0.79880  0.07490  0.86580  Biso   1.000  C
  H8       1.0000 0.83600  0.08860  0.88520  Biso   1.000  H
  C24      1.0000 0.75040  0.01400  0.79210  Biso   1.000  C
  H9       1.0000 0.75540  0.98730  0.76190  Biso   1.000  H
  C25      1.0000 0.72860  0.14070  0.92650  Biso   1.000  C
  C26      1.0000 0.12620  0.98910  0.72270  Biso   1.000  C
  C27      1.0000 0.73540  0.09300  0.88170  Biso   1.000  C
  O18      1.0000 0.67070  0.15530  0.94190  Biso   1.000  O
  O19      1.0000 0.57550  0.46200  0.82890  Biso   1.000  O
  C28      1.0000 0.81330  0.46830  0.80900  Biso   1.000  C
  O20      1.0000 0.43080  0.53010  0.70730  Biso   1.000  O
  O21      1.0000 0.36550  0.47810  0.76630  Biso   1.000  O
  O22      1.0000 0.72400  0.33510  0.94820  Biso   1.000  O
  O23      1.0000 0.61880  0.51720  0.75930  Biso   1.000  O
  C29      1.0000 0.69310  0.46460  0.81970  Biso   1.000  C
  C30      1.0000 0.82170  0.42900  0.85330  Biso   1.000  C
  H10      1.0000 0.86450  0.41690  0.86460  Biso   1.000  H
  C31      1.0000 0.62380  0.48190  0.80200  Biso   1.000  C
  C32      1.0000 0.70120  0.42510  0.86580  Biso   1.000  C
  H11      1.0000 0.66400  0.41140  0.88520  Biso   1.000  H
  C33      1.0000 0.74960  0.48600  0.79210  Biso   1.000  C
  H12      1.0000 0.74460  0.51270  0.76190  Biso   1.000  H
  C34      1.0000 0.77140  0.35930  0.92650  Biso   1.000  C
  C35      1.0000 0.37380  0.51090  0.72270  Biso   1.000  C
  C36      1.0000 0.76460  0.40700  0.88170  Biso   1.000  C
  O24      1.0000 0.82930  0.34470  0.94190  Biso   1.000  O
  O25      1.0000 0.96200  0.07550  0.17110  Biso   1.000  O
  C37      1.0000 0.96830  0.31330  0.19100  Biso   1.000  C
  O26      1.0000 0.03010  0.93080  0.29270  Biso   1.000  O
  O27      1.0000 0.97810  0.86550  0.23370  Biso   1.000  O
  O28      1.0000 0.83510  0.22400  0.05180  Biso   1.000  O
  O29      1.0000 0.01720  0.11880  0.24070  Biso   1.000  O
  C38      1.0000 0.96460  0.19310  0.18030  Biso   1.000  C
  C39      1.0000 0.92900  0.32170  0.14670  Biso   1.000  C
  H13      1.0000 0.91690  0.36450  0.13540  Biso   1.000  H
  C40      1.0000 0.98190  0.12380  0.19800  Biso   1.000  C
  C41      1.0000 0.92510  0.20120  0.13420  Biso   1.000  C
  H14      1.0000 0.91140  0.16400  0.11480  Biso   1.000  H
  C42      1.0000 0.98600  0.24960  0.20790  Biso   1.000  C
  H15      1.0000 0.01270  0.24460  0.23810  Biso   1.000  H
  C43      1.0000 0.85930  0.27140  0.07350  Biso   1.000  C
  C44      1.0000 0.01090  0.87380  0.27730  Biso   1.000  C
  C45      1.0000 0.90700  0.26460  0.11830  Biso   1.000  C
  O30      1.0000 0.84470  0.32930  0.05810  Biso   1.000  O
  O31      1.0000 0.53800  0.42450  0.17110  Biso   1.000  O
  C46      1.0000 0.53170  0.18670  0.19100  Biso   1.000  C
  O32      1.0000 0.46990  0.56920  0.29270  Biso   1.000  O
  O33      1.0000 0.52190  0.63450  0.23370  Biso   1.000  O
  O34      1.0000 0.66490  0.27600  0.05180  Biso   1.000  O
  O35      1.0000 0.48280  0.38120  0.24070  Biso   1.000  O
  C47      1.0000 0.53540  0.30690  0.18030  Biso   1.000  C
  C48      1.0000 0.57100  0.17830  0.14670  Biso   1.000  C
  H16      1.0000 0.58310  0.13550  0.13540  Biso   1.000  H
  C49      1.0000 0.51810  0.37620  0.19800  Biso   1.000  C
  C50      1.0000 0.57490  0.29880  0.13420  Biso   1.000  C
  H17      1.0000 0.58860  0.33600  0.11480  Biso   1.000  H
  C51      1.0000 0.51400  0.25040  0.20790  Biso   1.000  C
  H18      1.0000 0.48730  0.25540  0.23810  Biso   1.000  H
  C52      1.0000 0.64070  0.22860  0.07350  Biso   1.000  C
  C53      1.0000 0.48910  0.62620  0.27730  Biso   1.000  C
  C54      1.0000 0.59300  0.23540  0.11830  Biso   1.000  C
  O36      1.0000 0.65530  0.17070  0.05810  Biso   1.000  O
  O37      1.0000 0.07550  0.53800  0.67110  Biso   1.000  O
  C55      1.0000 0.31330  0.53170  0.69100  Biso   1.000  C
  O38      1.0000 0.93080  0.46990  0.79270  Biso   1.000  O
  O39      1.0000 0.86550  0.52190  0.73370  Biso   1.000  O
  O40      1.0000 0.22400  0.66490  0.55180  Biso   1.000  O
  O41      1.0000 0.11880  0.48280  0.74070  Biso   1.000  O
  C56      1.0000 0.19310  0.53540  0.68030  Biso   1.000  C
  C57      1.0000 0.32170  0.57100  0.64670  Biso   1.000  C
  H19      1.0000 0.36450  0.58310  0.63540  Biso   1.000  H
  C58      1.0000 0.12380  0.51810  0.69800  Biso   1.000  C
  C59      1.0000 0.20120  0.57490  0.63420  Biso   1.000  C
  H20      1.0000 0.16400  0.58860  0.61480  Biso   1.000  H
  C60      1.0000 0.24960  0.51400  0.70790  Biso   1.000  C
  H21      1.0000 0.24460  0.48730  0.73810  Biso   1.000  H
  C61      1.0000 0.27140  0.64070  0.57350  Biso   1.000  C
  C62      1.0000 0.87380  0.48910  0.77730  Biso   1.000  C
  C63      1.0000 0.26460  0.59300  0.61830  Biso   1.000  C
  O42      1.0000 0.32930  0.65530  0.55810  Biso   1.000  O
  O43      1.0000 0.42450  0.96200  0.67110  Biso   1.000  O
  C64      1.0000 0.18670  0.96830  0.69100  Biso   1.000  C
  O44      1.0000 0.56920  0.03010  0.79270  Biso   1.000  O
  O45      1.0000 0.63450  0.97810  0.73370  Biso   1.000  O
  O46      1.0000 0.27600  0.83510  0.55180  Biso   1.000  O
  O47      1.0000 0.38120  0.01720  0.74070  Biso   1.000  O
  C65      1.0000 0.30690  0.96460  0.68030  Biso   1.000  C
  C66      1.0000 0.17830  0.92900  0.64670  Biso   1.000  C
  H22      1.0000 0.13550  0.91690  0.63540  Biso   1.000  H
  C67      1.0000 0.37620  0.98190  0.69800  Biso   1.000  C
  C68      1.0000 0.29880  0.92510  0.63420  Biso   1.000  C
  H23      1.0000 0.33600  0.91140  0.61480  Biso   1.000  H
  C69      1.0000 0.25040  0.98600  0.70790  Biso   1.000  C
  H24      1.0000 0.25540  0.01270  0.73810  Biso   1.000  H
  C70      1.0000 0.22860  0.85930  0.57350  Biso   1.000  C
  C71      1.0000 0.62620  0.01090  0.77730  Biso   1.000  C
  C72      1.0000 0.23540  0.90700  0.61830  Biso   1.000  C
  O48      1.0000 0.17070  0.84470  0.55810  Biso   1.000  O
  O49      1.0000 0.96200  0.42450  0.67110  Biso   1.000  O
  C73      1.0000 0.96830  0.18670  0.69100  Biso   1.000  C
  O50      1.0000 0.03010  0.56920  0.79270  Biso   1.000  O
  O51      1.0000 0.97810  0.63450  0.73370  Biso   1.000  O
  O52      1.0000 0.83510  0.27600  0.55180  Biso   1.000  O
  O53      1.0000 0.01720  0.38120  0.74070  Biso   1.000  O
  C74      1.0000 0.96460  0.30690  0.68030  Biso   1.000  C
  C75      1.0000 0.92900  0.17830  0.64670  Biso   1.000  C
  H25      1.0000 0.91690  0.13550  0.63540  Biso   1.000  H
  C76      1.0000 0.98190  0.37620  0.69800  Biso   1.000  C
  C77      1.0000 0.92510  0.29880  0.63420  Biso   1.000  C
  H26      1.0000 0.91140  0.33600  0.61480  Biso   1.000  H
  C78      1.0000 0.98600  0.25040  0.70790  Biso   1.000  C
  H27      1.0000 0.01270  0.25540  0.73810  Biso   1.000  H
  C79      1.0000 0.85930  0.22860  0.57350  Biso   1.000  C
  C80      1.0000 0.01090  0.62620  0.77730  Biso   1.000  C
  C81      1.0000 0.90700  0.23540  0.61830  Biso   1.000  C
  O54      1.0000 0.84470  0.17070  0.55810  Biso   1.000  O
  O55      1.0000 0.53800  0.07550  0.67110  Biso   1.000  O
  C82      1.0000 0.53170  0.31330  0.69100  Biso   1.000  C
  O56      1.0000 0.46990  0.93080  0.79270  Biso   1.000  O
  O57      1.0000 0.52190  0.86550  0.73370  Biso   1.000  O
  O58      1.0000 0.66490  0.22400  0.55180  Biso   1.000  O
  O59      1.0000 0.48280  0.11880  0.74070  Biso   1.000  O
  C83      1.0000 0.53540  0.19310  0.68030  Biso   1.000  C
  C84      1.0000 0.57100  0.32170  0.64670  Biso   1.000  C
  H28      1.0000 0.58310  0.36450  0.63540  Biso   1.000  H
  C85      1.0000 0.51810  0.12380  0.69800  Biso   1.000  C
  C86      1.0000 0.57490  0.20120  0.63420  Biso   1.000  C
  H29      1.0000 0.58860  0.16400  0.61480  Biso   1.000  H
  C87      1.0000 0.51400  0.24960  0.70790  Biso   1.000  C
  H30      1.0000 0.48730  0.24460  0.73810  Biso   1.000  H
  C88      1.0000 0.64070  0.27140  0.57350  Biso   1.000  C
  C89      1.0000 0.48910  0.87380  0.77730  Biso   1.000  C
  C90      1.0000 0.59300  0.26460  0.61830  Biso   1.000  C
  O60      1.0000 0.65530  0.32930  0.55810  Biso   1.000  O
  O61      1.0000 0.07550  0.96200  0.17110  Biso   1.000  O
  C91      1.0000 0.31330  0.96830  0.19100  Biso   1.000  C
  O62      1.0000 0.93080  0.03010  0.29270  Biso   1.000  O
  O63      1.0000 0.86550  0.97810  0.23370  Biso   1.000  O
  O64      1.0000 0.22400  0.83510  0.05180  Biso   1.000  O
  O65      1.0000 0.11880  0.01720  0.24070  Biso   1.000  O
  C92      1.0000 0.19310  0.96460  0.18030  Biso   1.000  C
  C93      1.0000 0.32170  0.92900  0.14670  Biso   1.000  C
  H31      1.0000 0.36450  0.91690  0.13540  Biso   1.000  H
  C94      1.0000 0.12380  0.98190  0.19800  Biso   1.000  C
  C95      1.0000 0.20120  0.92510  0.13420  Biso   1.000  C
  H32      1.0000 0.16400  0.91140  0.11480  Biso   1.000  H
  C96      1.0000 0.24960  0.98600  0.20790  Biso   1.000  C
  H33      1.0000 0.24460  0.01270  0.23810  Biso   1.000  H
  C97      1.0000 0.27140  0.85930  0.07350  Biso   1.000  C
  C98      1.0000 0.87380  0.01090  0.27730  Biso   1.000  C
  C99      1.0000 0.26460  0.90700  0.11830  Biso   1.000  C
  O66      1.0000 0.32930  0.84470  0.05810  Biso   1.000  O
  O67      1.0000 0.42450  0.53800  0.17110  Biso   1.000  O
  C100     1.0000 0.18670  0.53170  0.19100  Biso   1.000  C
  O68      1.0000 0.56920  0.46990  0.29270  Biso   1.000  O
  O69      1.0000 0.63450  0.52190  0.23370  Biso   1.000  O
  O70      1.0000 0.27600  0.66490  0.05180  Biso   1.000  O
  O71      1.0000 0.38120  0.48280  0.24070  Biso   1.000  O
  C101     1.0000 0.30690  0.53540  0.18030  Biso   1.000  C
  C102     1.0000 0.17830  0.57100  0.14670  Biso   1.000  C
  H34      1.0000 0.13550  0.58310  0.13540  Biso   1.000  H
  C103     1.0000 0.37620  0.51810  0.19800  Biso   1.000  C
  C104     1.0000 0.29880  0.57490  0.13420  Biso   1.000  C
  H35      1.0000 0.33600  0.58860  0.11480  Biso   1.000  H
  C105     1.0000 0.25040  0.51400  0.20790  Biso   1.000  C
  H36      1.0000 0.25540  0.48730  0.23810  Biso   1.000  H
  C106     1.0000 0.22860  0.64070  0.07350  Biso   1.000  C
  C107     1.0000 0.62620  0.48910  0.27730  Biso   1.000  C
  C108     1.0000 0.23540  0.59300  0.11830  Biso   1.000  C
  O72      1.0000 0.17070  0.65530  0.05810  Biso   1.000  O
  O73      1.0000 0.03800  0.92450  0.82890  Biso   1.000  O
  C109     1.0000 0.03170  0.68670  0.80900  Biso   1.000  C
  O74      1.0000 0.96990  0.06920  0.70730  Biso   1.000  O
  O75      1.0000 0.02190  0.13450  0.76630  Biso   1.000  O
  O76      1.0000 0.16490  0.77600  0.94820  Biso   1.000  O
  O77      1.0000 0.98280  0.88120  0.75930  Biso   1.000  O
  C110     1.0000 0.03540  0.80690  0.81970  Biso   1.000  C
  C111     1.0000 0.07100  0.67830  0.85330  Biso   1.000  C
  H37      1.0000 0.08310  0.63550  0.86460  Biso   1.000  H
  C112     1.0000 0.01810  0.87620  0.80200  Biso   1.000  C
  C113     1.0000 0.07490  0.79880  0.86580  Biso   1.000  C
  H38      1.0000 0.08860  0.83600  0.88520  Biso   1.000  H
  C114     1.0000 0.01400  0.75040  0.79210  Biso   1.000  C
  H39      1.0000 0.98730  0.75540  0.76190  Biso   1.000  H
  C115     1.0000 0.14070  0.72860  0.92650  Biso   1.000  C
  C116     1.0000 0.98910  0.12620  0.72270  Biso   1.000  C
  C117     1.0000 0.09300  0.73540  0.88170  Biso   1.000  C
  O78      1.0000 0.15530  0.67070  0.94190  Biso   1.000  O
  O79      1.0000 0.46200  0.57550  0.82890  Biso   1.000  O
  C118     1.0000 0.46830  0.81330  0.80900  Biso   1.000  C
  O80      1.0000 0.53010  0.43080  0.70730  Biso   1.000  O
  O81      1.0000 0.47810  0.36550  0.76630  Biso   1.000  O
  O82      1.0000 0.33510  0.72400  0.94820  Biso   1.000  O
  O83      1.0000 0.51720  0.61880  0.75930  Biso   1.000  O
  C119     1.0000 0.46460  0.69310  0.81970  Biso   1.000  C
  C120     1.0000 0.42900  0.82170  0.85330  Biso   1.000  C
  H40      1.0000 0.41690  0.86450  0.86460  Biso   1.000  H
  C121     1.0000 0.48190  0.62380  0.80200  Biso   1.000  C
  C122     1.0000 0.42510  0.70120  0.86580  Biso   1.000  C
  H41      1.0000 0.41140  0.66400  0.88520  Biso   1.000  H
  C123     1.0000 0.48600  0.74960  0.79210  Biso   1.000  C
  H42      1.0000 0.51270  0.74460  0.76190  Biso   1.000  H
  C124     1.0000 0.35930  0.77140  0.92650  Biso   1.000  C
  C125     1.0000 0.51090  0.37380  0.72270  Biso   1.000  C
  C126     1.0000 0.40700  0.76460  0.88170  Biso   1.000  C
  O84      1.0000 0.34470  0.82930  0.94190  Biso   1.000  O
  O85      1.0000 0.92450  0.46200  0.32890  Biso   1.000  O
  C127     1.0000 0.68670  0.46830  0.30900  Biso   1.000  C
  O86      1.0000 0.06920  0.53010  0.20730  Biso   1.000  O
  O87      1.0000 0.13450  0.47810  0.26630  Biso   1.000  O
  O88      1.0000 0.77600  0.33510  0.44820  Biso   1.000  O
  O89      1.0000 0.88120  0.51720  0.25930  Biso   1.000  O
  C128     1.0000 0.80690  0.46460  0.31970  Biso   1.000  C
  C129     1.0000 0.67830  0.42900  0.35330  Biso   1.000  C
  H43      1.0000 0.63550  0.41690  0.36460  Biso   1.000  H
  C130     1.0000 0.87620  0.48190  0.30200  Biso   1.000  C
  C131     1.0000 0.79880  0.42510  0.36580  Biso   1.000  C
  H44      1.0000 0.83600  0.41140  0.38520  Biso   1.000  H
  C132     1.0000 0.75040  0.48600  0.29210  Biso   1.000  C
  H45      1.0000 0.75540  0.51270  0.26190  Biso   1.000  H
  C133     1.0000 0.72860  0.35930  0.42650  Biso   1.000  C
  C134     1.0000 0.12620  0.51090  0.22270  Biso   1.000  C
  C135     1.0000 0.73540  0.40700  0.38170  Biso   1.000  C
  O90      1.0000 0.67070  0.34470  0.44190  Biso   1.000  O
  O91      1.0000 0.57550  0.03800  0.32890  Biso   1.000  O
  C136     1.0000 0.81330  0.03170  0.30900  Biso   1.000  C
  O92      1.0000 0.43080  0.96990  0.20730  Biso   1.000  O
  O93      1.0000 0.36550  0.02190  0.26630  Biso   1.000  O
  O94      1.0000 0.72400  0.16490  0.44820  Biso   1.000  O
  O95      1.0000 0.61880  0.98280  0.25930  Biso   1.000  O
  C137     1.0000 0.69310  0.03540  0.31970  Biso   1.000  C
  C138     1.0000 0.82170  0.07100  0.35330  Biso   1.000  C
  H46      1.0000 0.86450  0.08310  0.36460  Biso   1.000  H
  C139     1.0000 0.62380  0.01810  0.30200  Biso   1.000  C
  C140     1.0000 0.70120  0.07490  0.36580  Biso   1.000  C
  H47      1.0000 0.66400  0.08860  0.38520  Biso   1.000  H
  C141     1.0000 0.74960  0.01400  0.29210  Biso   1.000  C
  H48      1.0000 0.74460  0.98730  0.26190  Biso   1.000  H
  C142     1.0000 0.77140  0.14070  0.42650  Biso   1.000  C
  C143     1.0000 0.37380  0.98910  0.22270  Biso   1.000  C
  C144     1.0000 0.76460  0.09300  0.38170  Biso   1.000  C
  O96      1.0000 0.82930  0.15530  0.44190  Biso   1.000  O
  Nd1      1.0000 0.95304  0.54696  0.18685  Biso   1.000  Nd
  Cd1      1.0000 0.03264  0.46736  0.30526  Biso   1.000  Cd
  Nd2      1.0000 0.54696  0.95304  0.18685  Biso   1.000  Nd
  Cd2      1.0000 0.46736  0.03264  0.30526  Biso   1.000  Cd
  Nd3      1.0000 0.95304  0.95304  0.68685  Biso   1.000  Nd
  Cd3      1.0000 0.03264  0.03264  0.80526  Biso   1.000  Cd
  Nd4      1.0000 0.54696  0.54696  0.68685  Biso   1.000  Nd
  Cd4      1.0000 0.46736  0.46736  0.80526  Biso   1.000  Cd
  Nd5      1.0000 0.04696  0.04696  0.31315  Biso   1.000  Nd
  Cd5      1.0000 0.96736  0.96736  0.19474  Biso   1.000  Cd
  Nd6      1.0000 0.45304  0.45304  0.31315  Biso   1.000  Nd
  Cd6      1.0000 0.53264  0.53264  0.19474  Biso   1.000  Cd
  Nd7      1.0000 0.04696  0.45304  0.81315  Biso   1.000  Nd
  Cd7      1.0000 0.96736  0.53264  0.69474  Biso   1.000  Cd
  Nd8      1.0000 0.45304  0.04696  0.81315  Biso   1.000  Nd
  Cd8      1.0000 0.53264  0.96736  0.69474  Biso   1.000  Cd
  Cd9      1.0000 0.23480  0.76520  0.50000  Biso   1.000  Cd
  Cd10     1.0000 0.26520  0.73480  0.50000  Biso   1.000  Cd
  Cd11     1.0000 0.73480  0.23480  0.00000  Biso   1.000  Cd
  Cd12     1.0000 0.76520  0.26520  0.00000  Biso   1.000  Cd
  Cd13     1.0000 0.76520  0.23480  0.50000  Biso   1.000  Cd
  Cd14     1.0000 0.73480  0.26520  0.50000  Biso   1.000  Cd
  Cd15     1.0000 0.26520  0.76520  0.00000  Biso   1.000  Cd
  Cd16     1.0000 0.23480  0.73480  0.00000  Biso   1.000  Cd
