data_image0
_cell_length_a       19.541
_cell_length_b       19.541
_cell_length_c       25.95
_cell_angle_alpha    90
_cell_angle_beta     90
_cell_angle_gamma    90

_symmetry_space_group_name_H-M    "P 1"
_symmetry_int_tables_number       1

loop_
  _symmetry_equiv_pos_as_xyz
  'x, y, z'

loop_
  _atom_site_label
  _atom_site_occupancy
  _atom_site_fract_x
  _atom_site_fract_y
  _atom_site_fract_z
  _atom_site_thermal_displace_type
  _atom_site_B_iso_or_equiv
  _atom_site_type_symbol
  O1       1.0000 0.07210  0.95550  0.33080  Biso   1.000  O
  O2       1.0000 0.86400  0.97790  0.26153  Biso   1.000  O
  O3       1.0000 0.93290  0.03180  0.20640  Biso   1.000  O
  O4       1.0000 0.11510  0.01680  0.26650  Biso   1.000  O
  O5       1.0000 0.22340  0.83560  0.45000  Biso   1.000  O
  O6       1.0000 0.33430  0.83860  0.43920  Biso   1.000  O
  C1       1.0000 0.31660  0.96530  0.30990  Biso   1.000  C
  C2       1.0000 0.12190  0.97890  0.30570  Biso   1.000  C
  C3       1.0000 0.19190  0.96180  0.32400  Biso   1.000  C
  C4       1.0000 0.24930  0.98470  0.29550  Biso   1.000  C
  H1       1.0000 0.24280  0.01290  0.26700  Biso   1.000  H
  C5       1.0000 0.20120  0.92220  0.36760  Biso   1.000  C
  H2       1.0000 0.16350  0.90810  0.38680  Biso   1.000  H
  C6       1.0000 0.32350  0.92720  0.35350  Biso   1.000  C
  H3       1.0000 0.36740  0.91630  0.36470  Biso   1.000  H
  C7       1.0000 0.87520  0.01200  0.22200  Biso   1.000  C
  C8       1.0000 0.26710  0.90310  0.38280  Biso   1.000  C
  C9       1.0000 0.27330  0.85610  0.42690  Biso   1.000  C
  O7       1.0000 0.42790  0.54450  0.33080  Biso   1.000  O
  O8       1.0000 0.63600  0.52210  0.26153  Biso   1.000  O
  O9       1.0000 0.56710  0.46820  0.20640  Biso   1.000  O
  O10      1.0000 0.38490  0.48320  0.26650  Biso   1.000  O
  O11      1.0000 0.27660  0.66440  0.45000  Biso   1.000  O
  O12      1.0000 0.16570  0.66140  0.43920  Biso   1.000  O
  C10      1.0000 0.18340  0.53470  0.30990  Biso   1.000  C
  C11      1.0000 0.37810  0.52110  0.30570  Biso   1.000  C
  C12      1.0000 0.30810  0.53820  0.32400  Biso   1.000  C
  C13      1.0000 0.25070  0.51530  0.29550  Biso   1.000  C
  H4       1.0000 0.25720  0.48710  0.26700  Biso   1.000  H
  C14      1.0000 0.29880  0.57780  0.36760  Biso   1.000  C
  H5       1.0000 0.33650  0.59190  0.38680  Biso   1.000  H
  C15      1.0000 0.17650  0.57280  0.35350  Biso   1.000  C
  H6       1.0000 0.13260  0.58370  0.36470  Biso   1.000  H
  C16      1.0000 0.62480  0.48800  0.22200  Biso   1.000  C
  C17      1.0000 0.23290  0.59690  0.38280  Biso   1.000  C
  C18      1.0000 0.22670  0.64390  0.42690  Biso   1.000  C
  O13      1.0000 0.54450  0.07210  0.83080  Biso   1.000  O
  O14      1.0000 0.52210  0.86400  0.76153  Biso   1.000  O
  O15      1.0000 0.46820  0.93290  0.70640  Biso   1.000  O
  O16      1.0000 0.48320  0.11510  0.76650  Biso   1.000  O
  O17      1.0000 0.66440  0.22340  0.95000  Biso   1.000  O
  O18      1.0000 0.66140  0.33430  0.93920  Biso   1.000  O
  C19      1.0000 0.53470  0.31660  0.80990  Biso   1.000  C
  C20      1.0000 0.52110  0.12190  0.80570  Biso   1.000  C
  C21      1.0000 0.53820  0.19190  0.82400  Biso   1.000  C
  C22      1.0000 0.51530  0.24930  0.79550  Biso   1.000  C
  H7       1.0000 0.48710  0.24280  0.76700  Biso   1.000  H
  C23      1.0000 0.57780  0.20120  0.86760  Biso   1.000  C
  H8       1.0000 0.59190  0.16350  0.88680  Biso   1.000  H
  C24      1.0000 0.57280  0.32350  0.85350  Biso   1.000  C
  H9       1.0000 0.58370  0.36740  0.86470  Biso   1.000  H
  C25      1.0000 0.48800  0.87520  0.72200  Biso   1.000  C
  C26      1.0000 0.59690  0.26710  0.88280  Biso   1.000  C
  C27      1.0000 0.64390  0.27330  0.92690  Biso   1.000  C
  O19      1.0000 0.95550  0.42790  0.83080  Biso   1.000  O
  O20      1.0000 0.97790  0.63600  0.76153  Biso   1.000  O
  O21      1.0000 0.03180  0.56710  0.70640  Biso   1.000  O
  O22      1.0000 0.01680  0.38490  0.76650  Biso   1.000  O
  O23      1.0000 0.83560  0.27660  0.95000  Biso   1.000  O
  O24      1.0000 0.83860  0.16570  0.93920  Biso   1.000  O
  C28      1.0000 0.96530  0.18340  0.80990  Biso   1.000  C
  C29      1.0000 0.97890  0.37810  0.80570  Biso   1.000  C
  C30      1.0000 0.96180  0.30810  0.82400  Biso   1.000  C
  C31      1.0000 0.98470  0.25070  0.79550  Biso   1.000  C
  H10      1.0000 0.01290  0.25720  0.76700  Biso   1.000  H
  C32      1.0000 0.92220  0.29880  0.86760  Biso   1.000  C
  H11      1.0000 0.90810  0.33650  0.88680  Biso   1.000  H
  C33      1.0000 0.92720  0.17650  0.85350  Biso   1.000  C
  H12      1.0000 0.91630  0.13260  0.86470  Biso   1.000  H
  C34      1.0000 0.01200  0.62480  0.72200  Biso   1.000  C
  C35      1.0000 0.90310  0.23290  0.88280  Biso   1.000  C
  C36      1.0000 0.85610  0.22670  0.92690  Biso   1.000  C
  O25      1.0000 0.92790  0.45550  0.16920  Biso   1.000  O
  O26      1.0000 0.13600  0.47790  0.23847  Biso   1.000  O
  O27      1.0000 0.06710  0.53180  0.29360  Biso   1.000  O
  O28      1.0000 0.88490  0.51680  0.23350  Biso   1.000  O
  O29      1.0000 0.77660  0.33560  0.05000  Biso   1.000  O
  O30      1.0000 0.66570  0.33860  0.06080  Biso   1.000  O
  C37      1.0000 0.68340  0.46530  0.19010  Biso   1.000  C
  C38      1.0000 0.87810  0.47890  0.19430  Biso   1.000  C
  C39      1.0000 0.80810  0.46180  0.17600  Biso   1.000  C
  C40      1.0000 0.75070  0.48470  0.20450  Biso   1.000  C
  H13      1.0000 0.75720  0.51290  0.23300  Biso   1.000  H
  C41      1.0000 0.79880  0.42220  0.13240  Biso   1.000  C
  H14      1.0000 0.83650  0.40810  0.11320  Biso   1.000  H
  C42      1.0000 0.67650  0.42720  0.14650  Biso   1.000  C
  H15      1.0000 0.63260  0.41630  0.13530  Biso   1.000  H
  C43      1.0000 0.12480  0.51200  0.27800  Biso   1.000  C
  C44      1.0000 0.73290  0.40310  0.11720  Biso   1.000  C
  C45      1.0000 0.72670  0.35610  0.07310  Biso   1.000  C
  O31      1.0000 0.57210  0.04450  0.16920  Biso   1.000  O
  O32      1.0000 0.36400  0.02210  0.23847  Biso   1.000  O
  O33      1.0000 0.43290  0.96820  0.29360  Biso   1.000  O
  O34      1.0000 0.61510  0.98320  0.23350  Biso   1.000  O
  O35      1.0000 0.72340  0.16440  0.05000  Biso   1.000  O
  O36      1.0000 0.83430  0.16140  0.06080  Biso   1.000  O
  C46      1.0000 0.81660  0.03470  0.19010  Biso   1.000  C
  C47      1.0000 0.62190  0.02110  0.19430  Biso   1.000  C
  C48      1.0000 0.69190  0.03820  0.17600  Biso   1.000  C
  C49      1.0000 0.74930  0.01530  0.20450  Biso   1.000  C
  H16      1.0000 0.74280  0.98710  0.23300  Biso   1.000  H
  C50      1.0000 0.70120  0.07780  0.13240  Biso   1.000  C
  H17      1.0000 0.66350  0.09190  0.11320  Biso   1.000  H
  C51      1.0000 0.82350  0.07280  0.14650  Biso   1.000  C
  H18      1.0000 0.86740  0.08370  0.13530  Biso   1.000  H
  C52      1.0000 0.37520  0.98800  0.27800  Biso   1.000  C
  C53      1.0000 0.76710  0.09690  0.11720  Biso   1.000  C
  C54      1.0000 0.77330  0.14390  0.07310  Biso   1.000  C
  O37      1.0000 0.45550  0.57210  0.66920  Biso   1.000  O
  O38      1.0000 0.47790  0.36400  0.73847  Biso   1.000  O
  O39      1.0000 0.53180  0.43290  0.79360  Biso   1.000  O
  O40      1.0000 0.51680  0.61510  0.73350  Biso   1.000  O
  O41      1.0000 0.33560  0.72340  0.55000  Biso   1.000  O
  O42      1.0000 0.33860  0.83430  0.56080  Biso   1.000  O
  C55      1.0000 0.46530  0.81660  0.69010  Biso   1.000  C
  C56      1.0000 0.47890  0.62190  0.69430  Biso   1.000  C
  C57      1.0000 0.46180  0.69190  0.67600  Biso   1.000  C
  C58      1.0000 0.48470  0.74930  0.70450  Biso   1.000  C
  H19      1.0000 0.51290  0.74280  0.73300  Biso   1.000  H
  C59      1.0000 0.42220  0.70120  0.63240  Biso   1.000  C
  H20      1.0000 0.40810  0.66350  0.61320  Biso   1.000  H
  C60      1.0000 0.42720  0.82350  0.64650  Biso   1.000  C
  H21      1.0000 0.41630  0.86740  0.63530  Biso   1.000  H
  C61      1.0000 0.51200  0.37520  0.77800  Biso   1.000  C
  C62      1.0000 0.40310  0.76710  0.61720  Biso   1.000  C
  C63      1.0000 0.35610  0.77330  0.57310  Biso   1.000  C
  O43      1.0000 0.04450  0.92790  0.66920  Biso   1.000  O
  O44      1.0000 0.02210  0.13600  0.73847  Biso   1.000  O
  O45      1.0000 0.96820  0.06710  0.79360  Biso   1.000  O
  O46      1.0000 0.98320  0.88490  0.73350  Biso   1.000  O
  O47      1.0000 0.16440  0.77660  0.55000  Biso   1.000  O
  O48      1.0000 0.16140  0.66570  0.56080  Biso   1.000  O
  C64      1.0000 0.03470  0.68340  0.69010  Biso   1.000  C
  C65      1.0000 0.02110  0.87810  0.69430  Biso   1.000  C
  C66      1.0000 0.03820  0.80810  0.67600  Biso   1.000  C
  C67      1.0000 0.01530  0.75070  0.70450  Biso   1.000  C
  H22      1.0000 0.98710  0.75720  0.73300  Biso   1.000  H
  C68      1.0000 0.07780  0.79880  0.63240  Biso   1.000  C
  H23      1.0000 0.09190  0.83650  0.61320  Biso   1.000  H
  C69      1.0000 0.07280  0.67650  0.64650  Biso   1.000  C
  H24      1.0000 0.08370  0.63260  0.63530  Biso   1.000  H
  C70      1.0000 0.98800  0.12480  0.77800  Biso   1.000  C
  C71      1.0000 0.09690  0.73290  0.61720  Biso   1.000  C
  C72      1.0000 0.14390  0.72670  0.57310  Biso   1.000  C
  O49      1.0000 0.92790  0.04450  0.66920  Biso   1.000  O
  O50      1.0000 0.13600  0.02210  0.73847  Biso   1.000  O
  O51      1.0000 0.06710  0.96820  0.79360  Biso   1.000  O
  O52      1.0000 0.88490  0.98320  0.73350  Biso   1.000  O
  O53      1.0000 0.77660  0.16440  0.55000  Biso   1.000  O
  O54      1.0000 0.66570  0.16140  0.56080  Biso   1.000  O
  C73      1.0000 0.68340  0.03470  0.69010  Biso   1.000  C
  C74      1.0000 0.87810  0.02110  0.69430  Biso   1.000  C
  C75      1.0000 0.80810  0.03820  0.67600  Biso   1.000  C
  C76      1.0000 0.75070  0.01530  0.70450  Biso   1.000  C
  H25      1.0000 0.75720  0.98710  0.73300  Biso   1.000  H
  C77      1.0000 0.79880  0.07780  0.63240  Biso   1.000  C
  H26      1.0000 0.83650  0.09190  0.61320  Biso   1.000  H
  C78      1.0000 0.67650  0.07280  0.64650  Biso   1.000  C
  H27      1.0000 0.63260  0.08370  0.63530  Biso   1.000  H
  C79      1.0000 0.12480  0.98800  0.77800  Biso   1.000  C
  C80      1.0000 0.73290  0.09690  0.61720  Biso   1.000  C
  C81      1.0000 0.72670  0.14390  0.57310  Biso   1.000  C
  O55      1.0000 0.57210  0.45550  0.66920  Biso   1.000  O
  O56      1.0000 0.36400  0.47790  0.73847  Biso   1.000  O
  O57      1.0000 0.43290  0.53180  0.79360  Biso   1.000  O
  O58      1.0000 0.61510  0.51680  0.73350  Biso   1.000  O
  O59      1.0000 0.72340  0.33560  0.55000  Biso   1.000  O
  O60      1.0000 0.83430  0.33860  0.56080  Biso   1.000  O
  C82      1.0000 0.81660  0.46530  0.69010  Biso   1.000  C
  C83      1.0000 0.62190  0.47890  0.69430  Biso   1.000  C
  C84      1.0000 0.69190  0.46180  0.67600  Biso   1.000  C
  C85      1.0000 0.74930  0.48470  0.70450  Biso   1.000  C
  H28      1.0000 0.74280  0.51290  0.73300  Biso   1.000  H
  C86      1.0000 0.70120  0.42220  0.63240  Biso   1.000  C
  H29      1.0000 0.66350  0.40810  0.61320  Biso   1.000  H
  C87      1.0000 0.82350  0.42720  0.64650  Biso   1.000  C
  H30      1.0000 0.86740  0.41630  0.63530  Biso   1.000  H
  C88      1.0000 0.37520  0.51200  0.77800  Biso   1.000  C
  C89      1.0000 0.76710  0.40310  0.61720  Biso   1.000  C
  C90      1.0000 0.77330  0.35610  0.57310  Biso   1.000  C
  O61      1.0000 0.45550  0.92790  0.16920  Biso   1.000  O
  O62      1.0000 0.47790  0.13600  0.23847  Biso   1.000  O
  O63      1.0000 0.53180  0.06710  0.29360  Biso   1.000  O
  O64      1.0000 0.51680  0.88490  0.23350  Biso   1.000  O
  O65      1.0000 0.33560  0.77660  0.05000  Biso   1.000  O
  O66      1.0000 0.33860  0.66570  0.06080  Biso   1.000  O
  C91      1.0000 0.46530  0.68340  0.19010  Biso   1.000  C
  C92      1.0000 0.47890  0.87810  0.19430  Biso   1.000  C
  C93      1.0000 0.46180  0.80810  0.17600  Biso   1.000  C
  C94      1.0000 0.48470  0.75070  0.20450  Biso   1.000  C
  H31      1.0000 0.51290  0.75720  0.23300  Biso   1.000  H
  C95      1.0000 0.42220  0.79880  0.13240  Biso   1.000  C
  H32      1.0000 0.40810  0.83650  0.11320  Biso   1.000  H
  C96      1.0000 0.42720  0.67650  0.14650  Biso   1.000  C
  H33      1.0000 0.41630  0.63260  0.13530  Biso   1.000  H
  C97      1.0000 0.51200  0.12480  0.27800  Biso   1.000  C
  C98      1.0000 0.40310  0.73290  0.11720  Biso   1.000  C
  C99      1.0000 0.35610  0.72670  0.07310  Biso   1.000  C
  O67      1.0000 0.04450  0.57210  0.16920  Biso   1.000  O
  O68      1.0000 0.02210  0.36400  0.23847  Biso   1.000  O
  O69      1.0000 0.96820  0.43290  0.29360  Biso   1.000  O
  O70      1.0000 0.98320  0.61510  0.23350  Biso   1.000  O
  O71      1.0000 0.16440  0.72340  0.05000  Biso   1.000  O
  O72      1.0000 0.16140  0.83430  0.06080  Biso   1.000  O
  C100     1.0000 0.03470  0.81660  0.19010  Biso   1.000  C
  C101     1.0000 0.02110  0.62190  0.19430  Biso   1.000  C
  C102     1.0000 0.03820  0.69190  0.17600  Biso   1.000  C
  C103     1.0000 0.01530  0.74930  0.20450  Biso   1.000  C
  H34      1.0000 0.98710  0.74280  0.23300  Biso   1.000  H
  C104     1.0000 0.07780  0.70120  0.13240  Biso   1.000  C
  H35      1.0000 0.09190  0.66350  0.11320  Biso   1.000  H
  C105     1.0000 0.07280  0.82350  0.14650  Biso   1.000  C
  H36      1.0000 0.08370  0.86740  0.13530  Biso   1.000  H
  C106     1.0000 0.98800  0.37520  0.27800  Biso   1.000  C
  C107     1.0000 0.09690  0.76710  0.11720  Biso   1.000  C
  C108     1.0000 0.14390  0.77330  0.07310  Biso   1.000  C
  O73      1.0000 0.07210  0.54450  0.83080  Biso   1.000  O
  O74      1.0000 0.86400  0.52210  0.76153  Biso   1.000  O
  O75      1.0000 0.93290  0.46820  0.70640  Biso   1.000  O
  O76      1.0000 0.11510  0.48320  0.76650  Biso   1.000  O
  O77      1.0000 0.22340  0.66440  0.95000  Biso   1.000  O
  O78      1.0000 0.33430  0.66140  0.93920  Biso   1.000  O
  C109     1.0000 0.31660  0.53470  0.80990  Biso   1.000  C
  C110     1.0000 0.12190  0.52110  0.80570  Biso   1.000  C
  C111     1.0000 0.19190  0.53820  0.82400  Biso   1.000  C
  C112     1.0000 0.24930  0.51530  0.79550  Biso   1.000  C
  H37      1.0000 0.24280  0.48710  0.76700  Biso   1.000  H
  C113     1.0000 0.20120  0.57780  0.86760  Biso   1.000  C
  H38      1.0000 0.16350  0.59190  0.88680  Biso   1.000  H
  C114     1.0000 0.32350  0.57280  0.85350  Biso   1.000  C
  H39      1.0000 0.36740  0.58370  0.86470  Biso   1.000  H
  C115     1.0000 0.87520  0.48800  0.72200  Biso   1.000  C
  C116     1.0000 0.26710  0.59690  0.88280  Biso   1.000  C
  C117     1.0000 0.27330  0.64390  0.92690  Biso   1.000  C
  O79      1.0000 0.42790  0.95550  0.83080  Biso   1.000  O
  O80      1.0000 0.63600  0.97790  0.76153  Biso   1.000  O
  O81      1.0000 0.56710  0.03180  0.70640  Biso   1.000  O
  O82      1.0000 0.38490  0.01680  0.76650  Biso   1.000  O
  O83      1.0000 0.27660  0.83560  0.95000  Biso   1.000  O
  O84      1.0000 0.16570  0.83860  0.93920  Biso   1.000  O
  C118     1.0000 0.18340  0.96530  0.80990  Biso   1.000  C
  C119     1.0000 0.37810  0.97890  0.80570  Biso   1.000  C
  C120     1.0000 0.30810  0.96180  0.82400  Biso   1.000  C
  C121     1.0000 0.25070  0.98470  0.79550  Biso   1.000  C
  H40      1.0000 0.25720  0.01290  0.76700  Biso   1.000  H
  C122     1.0000 0.29880  0.92220  0.86760  Biso   1.000  C
  H41      1.0000 0.33650  0.90810  0.88680  Biso   1.000  H
  C123     1.0000 0.17650  0.92720  0.85350  Biso   1.000  C
  H42      1.0000 0.13260  0.91630  0.86470  Biso   1.000  H
  C124     1.0000 0.62480  0.01200  0.72200  Biso   1.000  C
  C125     1.0000 0.23290  0.90310  0.88280  Biso   1.000  C
  C126     1.0000 0.22670  0.85610  0.92690  Biso   1.000  C
  O85      1.0000 0.54450  0.42790  0.33080  Biso   1.000  O
  O86      1.0000 0.52210  0.63600  0.26153  Biso   1.000  O
  O87      1.0000 0.46820  0.56710  0.20640  Biso   1.000  O
  O88      1.0000 0.48320  0.38490  0.26650  Biso   1.000  O
  O89      1.0000 0.66440  0.27660  0.45000  Biso   1.000  O
  O90      1.0000 0.66140  0.16570  0.43920  Biso   1.000  O
  C127     1.0000 0.53470  0.18340  0.30990  Biso   1.000  C
  C128     1.0000 0.52110  0.37810  0.30570  Biso   1.000  C
  C129     1.0000 0.53820  0.30810  0.32400  Biso   1.000  C
  C130     1.0000 0.51530  0.25070  0.29550  Biso   1.000  C
  H43      1.0000 0.48710  0.25720  0.26700  Biso   1.000  H
  C131     1.0000 0.57780  0.29880  0.36760  Biso   1.000  C
  H44      1.0000 0.59190  0.33650  0.38680  Biso   1.000  H
  C132     1.0000 0.57280  0.17650  0.35350  Biso   1.000  C
  H45      1.0000 0.58370  0.13260  0.36470  Biso   1.000  H
  C133     1.0000 0.48800  0.62480  0.22200  Biso   1.000  C
  C134     1.0000 0.59690  0.23290  0.38280  Biso   1.000  C
  C135     1.0000 0.64390  0.22670  0.42690  Biso   1.000  C
  O91      1.0000 0.95550  0.07210  0.33080  Biso   1.000  O
  O92      1.0000 0.97790  0.86400  0.26153  Biso   1.000  O
  O93      1.0000 0.03180  0.93290  0.20640  Biso   1.000  O
  O94      1.0000 0.01680  0.11510  0.26650  Biso   1.000  O
  O95      1.0000 0.83560  0.22340  0.45000  Biso   1.000  O
  O96      1.0000 0.83860  0.33430  0.43920  Biso   1.000  O
  C136     1.0000 0.96530  0.31660  0.30990  Biso   1.000  C
  C137     1.0000 0.97890  0.12190  0.30570  Biso   1.000  C
  C138     1.0000 0.96180  0.19190  0.32400  Biso   1.000  C
  C139     1.0000 0.98470  0.24930  0.29550  Biso   1.000  C
  H46      1.0000 0.01290  0.24280  0.26700  Biso   1.000  H
  C140     1.0000 0.92220  0.20120  0.36760  Biso   1.000  C
  H47      1.0000 0.90810  0.16350  0.38680  Biso   1.000  H
  C141     1.0000 0.92720  0.32350  0.35350  Biso   1.000  C
  H48      1.0000 0.91630  0.36740  0.36470  Biso   1.000  H
  C142     1.0000 0.01200  0.87520  0.22200  Biso   1.000  C
  C143     1.0000 0.90310  0.26710  0.38280  Biso   1.000  C
  C144     1.0000 0.85610  0.27330  0.42690  Biso   1.000  C
  Cd1      1.0000 0.96287  0.96287  0.30699  Biso   1.000  Cd
  Tb1      1.0000 0.05030  0.05030  0.19638  Biso   1.000  Tb
  Cd2      1.0000 0.53713  0.53713  0.30699  Biso   1.000  Cd
  Tb2      1.0000 0.44970  0.44970  0.19638  Biso   1.000  Tb
  Cd3      1.0000 0.53713  0.96287  0.80699  Biso   1.000  Cd
  Tb3      1.0000 0.44970  0.05030  0.69638  Biso   1.000  Tb
  Cd4      1.0000 0.96287  0.53713  0.80699  Biso   1.000  Cd
  Tb4      1.0000 0.05030  0.44970  0.69638  Biso   1.000  Tb
  Cd5      1.0000 0.03713  0.46287  0.19301  Biso   1.000  Cd
  Tb5      1.0000 0.94970  0.55030  0.30362  Biso   1.000  Tb
  Cd6      1.0000 0.46287  0.03713  0.19301  Biso   1.000  Cd
  Tb6      1.0000 0.55030  0.94970  0.30362  Biso   1.000  Tb
  Cd7      1.0000 0.46287  0.46287  0.69301  Biso   1.000  Cd
  Tb7      1.0000 0.55030  0.55030  0.80362  Biso   1.000  Tb
  Cd8      1.0000 0.03713  0.03713  0.69301  Biso   1.000  Cd
  Tb8      1.0000 0.94970  0.94970  0.80362  Biso   1.000  Tb
  Cd9      1.0000 0.26524  0.76524  0.50000  Biso   1.000  Cd
  Cd10     1.0000 0.23476  0.73476  0.50000  Biso   1.000  Cd
  Cd11     1.0000 0.73476  0.26524  0.00000  Biso   1.000  Cd
  Cd12     1.0000 0.76524  0.23476  0.00000  Biso   1.000  Cd
  Cd13     1.0000 0.73476  0.23476  0.50000  Biso   1.000  Cd
  Cd14     1.0000 0.76524  0.26524  0.50000  Biso   1.000  Cd
  Cd15     1.0000 0.26524  0.73476  0.00000  Biso   1.000  Cd
  Cd16     1.0000 0.23476  0.76524  0.00000  Biso   1.000  Cd
