data_image0
_cell_length_a       22.214
_cell_length_b       23.4645
_cell_length_c       6.6395
_cell_angle_alpha    90.398
_cell_angle_beta     108.236
_cell_angle_gamma    57.6

_symmetry_space_group_name_H-M    "P 1"
_symmetry_int_tables_number       1

loop_
  _symmetry_equiv_pos_as_xyz
  'x, y, z'

loop_
  _atom_site_label
  _atom_site_occupancy
  _atom_site_fract_x
  _atom_site_fract_y
  _atom_site_fract_z
  _atom_site_thermal_displace_type
  _atom_site_B_iso_or_equiv
  _atom_site_type_symbol
  Al1      1.0000 0.00000  0.00000  0.00000  Biso   1.000  Al
  Al2      1.0000 0.50750  0.99846  0.97339  Biso   1.000  Al
  Al3      1.0000 0.01032  0.48991  0.97344  Biso   1.000  Al
  Al4      1.0000 0.48157  0.50534  0.96676  Biso   1.000  Al
  Al5      1.0000 0.00664  0.00138  0.43567  Biso   1.000  Al
  Al6      1.0000 0.50045  0.98066  0.49493  Biso   1.000  Al
  Al7      1.0000 0.98542  0.49363  0.45363  Biso   1.000  Al
  Al8      1.0000 0.49977  0.49334  0.49921  Biso   1.000  Al
  O1       1.0000 0.00000  0.03750  0.75000  Biso   1.000  O
  O2       1.0000 0.50000  0.03750  0.75000  Biso   1.000  O
  O3       1.0000 0.00000  0.53750  0.75000  Biso   1.000  O
  O4       1.0000 0.50000  0.53750  0.75000  Biso   1.000  O
  O5       1.0000 0.00000  0.96250  0.25000  Biso   1.000  O
  O6       1.0000 0.50000  0.96250  0.25000  Biso   1.000  O
  O7       1.0000 0.00000  0.46250  0.25000  Biso   1.000  O
  O8       1.0000 0.50000  0.46250  0.25000  Biso   1.000  O
  H1       1.0000 0.00000  0.07030  0.75000  Biso   1.000  H
  H2       1.0000 0.50000  0.07030  0.75000  Biso   1.000  H
  H3       1.0000 0.00000  0.57030  0.75000  Biso   1.000  H
  H4       1.0000 0.50000  0.57030  0.75000  Biso   1.000  H
  H5       1.0000 0.00000  0.92970  0.25000  Biso   1.000  H
  H6       1.0000 0.50000  0.92970  0.25000  Biso   1.000  H
  H7       1.0000 0.00000  0.42970  0.25000  Biso   1.000  H
  H8       1.0000 0.50000  0.42970  0.25000  Biso   1.000  H
  C1       1.0000 0.09938  0.01028  0.37710  Biso   1.000  C
  C2       1.0000 0.16925  0.01250  0.41744  Biso   1.000  C
  C3       1.0000 0.19344  0.01452  0.25049  Biso   1.000  C
  C4       1.0000 0.20951  0.01254  0.62160  Biso   1.000  C
  C5       1.0000 0.25744  0.01655  0.28743  Biso   1.000  C
  C6       1.0000 0.27350  0.01458  0.65855  Biso   1.000  C
  C7       1.0000 0.29770  0.01660  0.49160  Biso   1.000  C
  C8       1.0000 0.36757  0.01882  0.53194  Biso   1.000  C
  O9       1.0000 0.06293  0.01024  0.19230  Biso   1.000  O
  O10      1.0000 0.07747  0.00846  0.52822  Biso   1.000  O
  O11      1.0000 0.40401  0.01886  0.71674  Biso   1.000  O
  O12      1.0000 0.38947  0.02064  0.38082  Biso   1.000  O
  N1       1.0000 0.16057  0.00366  0.05684  Biso   1.000  N
  H9       1.0000 0.11232  0.01424  0.01765  Biso   1.000  H
  H10      1.0000 0.18744  0.98602  0.97011  Biso   1.000  H
  C9       1.0000 0.59214  0.01339  0.28348  Biso   1.000  C
  C10      1.0000 0.66634  0.00915  0.37481  Biso   1.000  C
  C11      1.0000 0.70636  0.00508  0.24420  Biso   1.000  C
  C12      1.0000 0.69479  0.00930  0.58968  Biso   1.000  C
  C13      1.0000 0.77432  0.00119  0.32786  Biso   1.000  C
  C14      1.0000 0.76275  0.00541  0.67333  Biso   1.000  C
  C15      1.0000 0.80277  0.00134  0.54272  Biso   1.000  C
  C16      1.0000 0.87697  0.99710  0.63405  Biso   1.000  C
  O13      1.0000 0.56640  0.01325  0.08899  Biso   1.000  O
  O14      1.0000 0.55592  0.01707  0.40170  Biso   1.000  O
  O15      1.0000 0.90272  0.99723  0.82855  Biso   1.000  O
  O16      1.0000 0.91319  0.99341  0.51583  Biso   1.000  O
  N2       1.0000 0.68418  0.99417  0.04041  Biso   1.000  N
  H11      1.0000 0.63502  0.00831  0.97176  Biso   1.000  H
  H12      1.0000 0.71893  0.97295  0.97654  Biso   1.000  H
  C17      1.0000 0.38608  0.50341  0.63277  Biso   1.000  C
  C18      1.0000 0.31433  0.50328  0.55302  Biso   1.000  C
  C19      1.0000 0.27567  0.51560  0.33520  Biso   1.000  C
  C20      1.0000 0.28680  0.49084  0.69726  Biso   1.000  C
  C21      1.0000 0.20995  0.51548  0.26215  Biso   1.000  C
  C22      1.0000 0.22108  0.49072  0.62421  Biso   1.000  C
  C23      1.0000 0.18241  0.50304  0.40640  Biso   1.000  C
  C24      1.0000 0.11066  0.50291  0.32664  Biso   1.000  C
  O17      1.0000 0.41100  0.51467  0.50221  Biso   1.000  O
  O18      1.0000 0.42107  0.49225  0.82994  Biso   1.000  O
  O19      1.0000 0.08574  0.49165  0.45721  Biso   1.000  O
  O20      1.0000 0.07567  0.51406  0.12948  Biso   1.000  O
  N3       1.0000 0.29640  0.53837  0.19403  Biso   1.000  N
  H13      1.0000 0.34474  0.52745  0.23179  Biso   1.000  H
  H14      1.0000 0.26153  0.56408  0.06446  Biso   1.000  H
  C25      1.0000 0.59949  0.51441  0.36486  Biso   1.000  C
  C26      1.0000 0.67240  0.51242  0.42059  Biso   1.000  C
  C27      1.0000 0.69599  0.52127  0.25980  Biso   1.000  C
  C28      1.0000 0.71608  0.50173  0.63280  Biso   1.000  C
  C29      1.0000 0.76277  0.51945  0.31084  Biso   1.000  C
  C30      1.0000 0.78287  0.49990  0.68384  Biso   1.000  C
  C31      1.0000 0.80645  0.50876  0.52305  Biso   1.000  C
  C32      1.0000 0.87936  0.50677  0.57878  Biso   1.000  C
  O21      1.0000 0.55995  0.52409  0.17278  Biso   1.000  O
  O22      1.0000 0.57815  0.50639  0.51041  Biso   1.000  O
  O23      1.0000 0.91890  0.49709  0.77086  Biso   1.000  O
  O24      1.0000 0.90071  0.51478  0.43323  Biso   1.000  O
  N4       1.0000 0.65904  0.52108  0.05332  Biso   1.000  N
  H15      1.0000 0.60972  0.53437  0.01054  Biso   1.000  H
  H16      1.0000 0.68435  0.50766  0.96184  Biso   1.000  H
  C33      1.0000 0.61556  0.38243  0.85930  Biso   1.000  C
  C34      1.0000 0.68970  0.31100  0.94050  Biso   1.000  C
  C35      1.0000 0.72495  0.28206  0.15738  Biso   1.000  C
  C36      1.0000 0.72285  0.27403  0.79853  Biso   1.000  C
  C37      1.0000 0.79286  0.21663  0.23176  Biso   1.000  C
  C38      1.0000 0.79076  0.20860  0.87291  Biso   1.000  C
  C39      1.0000 0.82601  0.17966  0.08979  Biso   1.000  C
  C40      1.0000 0.90015  0.10823  0.17100  Biso   1.000  C
  O25      1.0000 0.58556  0.41590  0.98780  Biso   1.000  O
  O26      1.0000 0.58365  0.40863  0.66298  Biso   1.000  O
  O27      1.0000 0.93016  0.07476  0.04249  Biso   1.000  O
  O28      1.0000 0.93206  0.08203  0.36731  Biso   1.000  O
  N5       1.0000 0.69827  0.32314  0.29935  Biso   1.000  N
  H17      1.0000 0.64881  0.35962  0.25736  Biso   1.000  H
  H18      1.0000 0.73037  0.31336  0.43365  Biso   1.000  H
  C41      1.0000 0.10876  0.38282  0.84584  Biso   1.000  C
  C42      1.0000 0.18413  0.31227  0.91602  Biso   1.000  C
  C43      1.0000 0.21137  0.27163  0.11420  Biso   1.000  C
  C44      1.0000 0.22642  0.28781  0.78257  Biso   1.000  C
  C45      1.0000 0.28040  0.20700  0.17848  Biso   1.000  C
  C46      1.0000 0.29546  0.22319  0.84684  Biso   1.000  C
  C47      1.0000 0.32270  0.18255  0.04503  Biso   1.000  C
  C48      1.0000 0.39807  0.11199  0.11520  Biso   1.000  C
  O29      1.0000 0.07047  0.40496  0.96664  Biso   1.000  O
  O30      1.0000 0.08410  0.41961  0.66645  Biso   1.000  O
  O31      1.0000 0.43636  0.08986  0.99440  Biso   1.000  O
  O32      1.0000 0.42273  0.07521  0.29459  Biso   1.000  O
  N6       1.0000 0.17530  0.30055  0.25788  Biso   1.000  N
  H19      1.0000 0.12518  0.33583  0.21068  Biso   1.000  H
  H20      1.0000 0.20196  0.28408  0.39850  Biso   1.000  H
  C49      1.0000 0.90024  0.60890  0.12701  Biso   1.000  C
  C50      1.0000 0.82497  0.67941  0.04119  Biso   1.000  C
  C51      1.0000 0.79042  0.71711  0.17994  Biso   1.000  C
  C52      1.0000 0.79008  0.70677  0.82326  Biso   1.000  C
  C53      1.0000 0.72148  0.78169  0.10134  Biso   1.000  C
  C54      1.0000 0.72114  0.77136  0.74466  Biso   1.000  C
  C55      1.0000 0.68659  0.80905  0.88341  Biso   1.000  C
  C56      1.0000 0.61132  0.87956  0.79759  Biso   1.000  C
  O33      1.0000 0.93182  0.58414  0.32427  Biso   1.000  O
  O34      1.0000 0.93151  0.57478  0.00141  Biso   1.000  O
  O35      1.0000 0.57974  0.90433  0.60033  Biso   1.000  O
  O36      1.0000 0.58005  0.91368  0.92319  Biso   1.000  O
  N7       1.0000 0.81908  0.68521  0.39060  Biso   1.000  N
  H21      1.0000 0.86897  0.64996  0.45208  Biso   1.000  H
  H22      1.0000 0.78783  0.69971  0.46609  Biso   1.000  H
  C57      1.0000 0.40816  0.61076  0.14738  Biso   1.000  C
  C58      1.0000 0.33008  0.67892  0.06777  Biso   1.000  C
  C59      1.0000 0.29447  0.71179  0.21048  Biso   1.000  C
  C60      1.0000 0.29365  0.70893  0.85162  Biso   1.000  C
  C61      1.0000 0.22295  0.77422  0.13756  Biso   1.000  C
  C62      1.0000 0.22213  0.77136  0.77871  Biso   1.000  C
  C63      1.0000 0.18652  0.80423  0.92141  Biso   1.000  C
  C64      1.0000 0.10844  0.87240  0.84181  Biso   1.000  C
  O37      1.0000 0.44114  0.58359  0.34303  Biso   1.000  O
  O38      1.0000 0.44040  0.58100  0.01821  Biso   1.000  O
  O39      1.0000 0.07547  0.89956  0.64615  Biso   1.000  O
  O40      1.0000 0.07621  0.90215  0.97098  Biso   1.000  O
  N8       1.0000 0.32538  0.67662  0.41828  Biso   1.000  N
  H23      1.0000 0.37610  0.64330  0.47742  Biso   1.000  H
  H24      1.0000 0.29476  0.68706  0.49427  Biso   1.000  H
  N9       1.0000 0.19314  0.99977  0.79289  Biso   1.000  N
  N10      1.0000 0.27460  0.02934  0.11797  Biso   1.000  N
  N11      1.0000 0.30638  0.02544  0.85220  Biso   1.000  N
  H25      1.0000 0.16743  0.01449  0.11859  Biso   1.000  H
  H26      1.0000 0.19387  0.01124  0.72946  Biso   1.000  H
  H27      1.0000 0.27307  0.01785  0.17958  Biso   1.000  H
  H28      1.0000 0.29951  0.01461  0.79045  Biso   1.000  H
  H29      1.0000 0.14708  0.00692  0.77193  Biso   1.000  H
  H30      1.0000 0.22855  0.98432  0.92523  Biso   1.000  H
  H31      1.0000 0.32207  0.01886  0.13918  Biso   1.000  H
  H32      1.0000 0.23829  0.04814  0.98656  Biso   1.000  H
  H33      1.0000 0.35462  0.01486  0.89139  Biso   1.000  H
  H34      1.0000 0.27951  0.04308  0.93893  Biso   1.000  H
  N12      1.0000 0.66202  0.00250  0.72617  Biso   1.000  N
  N13      1.0000 0.80782  0.00796  0.19363  Biso   1.000  N
  N14      1.0000 0.78493  0.01632  0.87713  Biso   1.000  N
  H35      1.0000 0.68798  0.00498  0.10539  Biso   1.000  H
  H36      1.0000 0.66894  0.01193  0.67406  Biso   1.000  H
  H37      1.0000 0.80017  0.99856  0.24348  Biso   1.000  H
  H38      1.0000 0.78113  0.00551  0.81214  Biso   1.000  H
  H39      1.0000 0.61351  0.01354  0.67431  Biso   1.000  H
  H40      1.0000 0.68923  0.98702  0.86678  Biso   1.000  H
  H41      1.0000 0.85754  0.99362  0.24554  Biso   1.000  H
  H42      1.0000 0.77987  0.02671  0.05443  Biso   1.000  H
  H43      1.0000 0.83409  0.00218  0.94578  Biso   1.000  H
  H44      1.0000 0.75018  0.03754  0.94099  Biso   1.000  H
  N15      1.0000 0.31771  0.48928  0.91088  Biso   1.000  N
  N16      1.0000 0.17832  0.51694  0.04907  Biso   1.000  N
  N17      1.0000 0.20034  0.46795  0.76539  Biso   1.000  N
  H45      1.0000 0.29345  0.52363  0.24201  Biso   1.000  H
  H46      1.0000 0.31177  0.48288  0.83798  Biso   1.000  H
  H47      1.0000 0.18497  0.52344  0.12143  Biso   1.000  H
  H48      1.0000 0.20329  0.48268  0.71740  Biso   1.000  H
  H49      1.0000 0.36520  0.48052  0.96550  Biso   1.000  H
  H50      1.0000 0.29032  0.49703  0.99516  Biso   1.000  H
  H51      1.0000 0.12944  0.52905  0.99376  Biso   1.000  H
  H52      1.0000 0.20665  0.50578  0.96581  Biso   1.000  H
  H53      1.0000 0.15200  0.47886  0.72762  Biso   1.000  H
  H54      1.0000 0.23521  0.44223  0.89495  Biso   1.000  H
  N18      1.0000 0.69964  0.48231  0.79327  Biso   1.000  N
  N19      1.0000 0.78005  0.53877  0.15236  Biso   1.000  N
  N20      1.0000 0.81981  0.50010  0.89032  Biso   1.000  N
  H55      1.0000 0.66777  0.52818  0.12270  Biso   1.000  H
  H56      1.0000 0.70085  0.49601  0.73668  Biso   1.000  H
  H57      1.0000 0.77801  0.52517  0.20696  Biso   1.000  H
  H58      1.0000 0.81109  0.49299  0.82093  Biso   1.000  H
  H59      1.0000 0.65244  0.49146  0.76716  Biso   1.000  H
  H60      1.0000 0.73615  0.46053  0.92372  Biso   1.000  H
  H61      1.0000 0.82841  0.52643  0.17708  Biso   1.000  H
  H62      1.0000 0.74294  0.56368  0.02460  Biso   1.000  H
  H63      1.0000 0.86914  0.48681  0.93310  Biso   1.000  H
  H64      1.0000 0.79451  0.51352  0.98180  Biso   1.000  H
  N21      1.0000 0.69487  0.30646  0.58887  Biso   1.000  N
  N22      1.0000 0.82160  0.18342  0.44092  Biso   1.000  N
  N23      1.0000 0.81744  0.16752  0.73094  Biso   1.000  N
  H65      1.0000 0.70354  0.30595  0.24910  Biso   1.000  H
  H66      1.0000 0.70008  0.29272  0.65841  Biso   1.000  H
  H67      1.0000 0.81564  0.19794  0.37188  Biso   1.000  H
  H68      1.0000 0.81217  0.18471  0.78119  Biso   1.000  H
  H69      1.0000 0.64652  0.34464  0.53109  Biso   1.000  H
  H70      1.0000 0.72504  0.28937  0.51032  Biso   1.000  H
  H71      1.0000 0.87116  0.14733  0.50029  Biso   1.000  H
  H72      1.0000 0.79073  0.19792  0.51754  Biso   1.000  H
  H73      1.0000 0.86690  0.13104  0.77293  Biso   1.000  H
  H74      1.0000 0.78534  0.17730  0.59664  Biso   1.000  H
  N24      1.0000 0.20593  0.33189  0.60123  Biso   1.000  N
  N25      1.0000 0.30174  0.16225  0.35929  Biso   1.000  N
  N26      1.0000 0.33153  0.19427  0.70317  Biso   1.000  N
  H75      1.0000 0.18404  0.28743  0.20042  Biso   1.000  H
  H76      1.0000 0.20883  0.31407  0.65453  Biso   1.000  H
  H77      1.0000 0.29800  0.18075  0.30651  Biso   1.000  H
  H78      1.0000 0.32278  0.20739  0.76063  Biso   1.000  H
  H79      1.0000 0.15755  0.36997  0.54263  Biso   1.000  H
  H80      1.0000 0.24099  0.32247  0.54192  Biso   1.000  H
  H81      1.0000 0.35113  0.12619  0.42256  Biso   1.000  H
  H82      1.0000 0.26623  0.16921  0.41360  Biso   1.000  H
  H83      1.0000 0.38164  0.15899  0.75037  Biso   1.000  H
  H84      1.0000 0.30487  0.21074  0.56254  Biso   1.000  H
  N27      1.0000 0.81761  0.66545  0.68269  Biso   1.000  N
  N28      1.0000 0.69316  0.82371  0.23967  Biso   1.000  N
  N29      1.0000 0.69248  0.80326  0.53400  Biso   1.000  N
  H85      1.0000 0.81297  0.69943  0.32073  Biso   1.000  H
  H86      1.0000 0.81240  0.68242  0.73362  Biso   1.000  H
  H87      1.0000 0.69916  0.80605  0.19098  Biso   1.000  H
  H88      1.0000 0.69859  0.78903  0.60387  Biso   1.000  H
  H89      1.0000 0.86637  0.62763  0.72802  Biso   1.000  H
  H90      1.0000 0.78676  0.67641  0.54594  Biso   1.000  H
  H91      1.0000 0.64330  0.85945  0.19547  Biso   1.000  H
  H92      1.0000 0.72461  0.81528  0.37383  Biso   1.000  H
  H93      1.0000 0.64260  0.83850  0.47252  Biso   1.000  H
  H94      1.0000 0.72373  0.78876  0.45851  Biso   1.000  H
  N30      1.0000 0.32294  0.67165  0.70612  Biso   1.000  N
  N31      1.0000 0.19285  0.81220  0.28088  Biso   1.000  N
  N32      1.0000 0.19122  0.80653  0.57090  Biso   1.000  N
  H95      1.0000 0.31801  0.69240  0.35012  Biso   1.000  H
  H96      1.0000 0.31666  0.68769  0.75943  Biso   1.000  H
  H97      1.0000 0.19995  0.79546  0.22976  Biso   1.000  H
  H98      1.0000 0.19860  0.79075  0.63907  Biso   1.000  H
  H99      1.0000 0.37276  0.63590  0.74862  Biso   1.000  H
  H100     1.0000 0.29215  0.68317  0.56901  Biso   1.000  H
  H101     1.0000 0.14217  0.84565  0.23913  Biso   1.000  H
  H102     1.0000 0.22395  0.80344  0.41582  Biso   1.000  H
  H103     1.0000 0.14050  0.83985  0.51177  Biso   1.000  H
  H104     1.0000 0.22184  0.79609  0.49491  Biso   1.000  H
