data_image0
_cell_length_a       26.093
_cell_length_b       21.58
_cell_length_c       17.238
_cell_angle_alpha    90
_cell_angle_beta     92.593
_cell_angle_gamma    90

_symmetry_space_group_name_H-M    "P 1"
_symmetry_int_tables_number       1

loop_
  _symmetry_equiv_pos_as_xyz
  'x, y, z'

loop_
  _atom_site_label
  _atom_site_occupancy
  _atom_site_fract_x
  _atom_site_fract_y
  _atom_site_fract_z
  _atom_site_thermal_displace_type
  _atom_site_B_iso_or_equiv
  _atom_site_type_symbol
  Zn1      1.0000 0.13350  0.42747  0.30779  Biso   1.000  Zn
  O1       1.0000 0.13410  0.55120  0.41910  Biso   1.000  O
  O2       1.0000 0.06550  0.38710  0.29440  Biso   1.000  O
  O3       1.0000 0.03460  0.43050  0.18450  Biso   1.000  O
  O4       1.0000 0.68460  0.13290  0.30250  Biso   1.000  O
  O5       1.0000 0.70630  0.09150  0.18750  Biso   1.000  O
  O6       1.0000 0.21820  0.44980  0.79190  Biso   1.000  O
  O7       1.0000 0.91320  0.26690  0.38540  Biso   1.000  O
  C1       1.0000 0.02980  0.39350  0.24230  Biso   1.000  C
  C2       1.0000 0.98530  0.35330  0.24110  Biso   1.000  C
  C3       1.0000 0.97320  0.32240  0.30870  Biso   1.000  C
  H1       1.0000 0.99590  0.32440  0.35330  Biso   1.000  H
  C4       1.0000 0.92800  0.28860  0.31100  Biso   1.000  C
  C5       1.0000 0.89480  0.28560  0.24570  Biso   1.000  C
  C6       1.0000 0.90690  0.31650  0.17810  Biso   1.000  C
  H2       1.0000 0.88420  0.31450  0.13350  Biso   1.000  H
  C7       1.0000 0.95210  0.35030  0.17580  Biso   1.000  C
  H3       1.0000 0.96030  0.37140  0.12970  Biso   1.000  H
  C8       1.0000 0.84820  0.24440  0.24270  Biso   1.000  C
  C9       1.0000 0.81390  0.25310  0.30100  Biso   1.000  C
  H4       1.0000 0.82050  0.28360  0.33990  Biso   1.000  H
  C10      1.0000 0.76970  0.21710  0.30250  Biso   1.000  C
  H5       1.0000 0.74630  0.22300  0.34240  Biso   1.000  H
  C11      1.0000 0.76000  0.17240  0.24560  Biso   1.000  C
  C12      1.0000 0.79430  0.16380  0.18720  Biso   1.000  C
  H6       1.0000 0.78770  0.13320  0.14840  Biso   1.000  H
  C13      1.0000 0.83850  0.19980  0.18580  Biso   1.000  C
  H7       1.0000 0.86190  0.19380  0.14590  Biso   1.000  H
  C14      1.0000 0.71520  0.13180  0.24180  Biso   1.000  C
  C15      1.0000 0.17690  0.48020  0.91360  Biso   1.000  C
  H8       1.0000 0.20620  0.47130  0.94630  Biso   1.000  H
  C16      1.0000 0.18020  0.47240  0.83130  Biso   1.000  C
  C17      1.0000 0.09820  0.51970  0.82460  Biso   1.000  C
  H9       1.0000 0.06990  0.53450  0.79320  Biso   1.000  H
  C18      1.0000 0.09430  0.52050  0.90080  Biso   1.000  C
  H10      1.0000 0.06390  0.53570  0.92260  Biso   1.000  H
  C19      1.0000 0.13870  0.55230  0.65880  Biso   1.000  C
  H11      1.0000 0.13890  0.59040  0.68640  Biso   1.000  H
  C20      1.0000 0.13880  0.55490  0.57790  Biso   1.000  C
  H12      1.0000 0.14070  0.59360  0.55170  Biso   1.000  H
  C21      1.0000 0.25720  0.41080  0.83610  Biso   1.000  C
  H13      1.0000 0.24070  0.37330  0.85660  Biso   1.000  H
  H14      1.0000 0.27270  0.43460  0.88030  Biso   1.000  H
  Zn2      1.0000 0.63350  0.92747  0.30779  Biso   1.000  Zn
  O8       1.0000 0.63410  0.05120  0.41910  Biso   1.000  O
  O9       1.0000 0.56550  0.88710  0.29440  Biso   1.000  O
  O10      1.0000 0.53460  0.93050  0.18450  Biso   1.000  O
  O11      1.0000 0.18460  0.63290  0.30250  Biso   1.000  O
  O12      1.0000 0.20630  0.59150  0.18750  Biso   1.000  O
  O13      1.0000 0.71820  0.94980  0.79190  Biso   1.000  O
  O14      1.0000 0.41320  0.76690  0.38540  Biso   1.000  O
  C22      1.0000 0.52980  0.89350  0.24230  Biso   1.000  C
  C23      1.0000 0.48530  0.85330  0.24110  Biso   1.000  C
  C24      1.0000 0.47320  0.82240  0.30870  Biso   1.000  C
  H15      1.0000 0.49590  0.82440  0.35330  Biso   1.000  H
  C25      1.0000 0.42800  0.78860  0.31100  Biso   1.000  C
  C26      1.0000 0.39480  0.78560  0.24570  Biso   1.000  C
  C27      1.0000 0.40690  0.81650  0.17810  Biso   1.000  C
  H16      1.0000 0.38420  0.81450  0.13350  Biso   1.000  H
  C28      1.0000 0.45210  0.85030  0.17580  Biso   1.000  C
  H17      1.0000 0.46030  0.87140  0.12970  Biso   1.000  H
  C29      1.0000 0.34820  0.74440  0.24270  Biso   1.000  C
  C30      1.0000 0.31390  0.75310  0.30100  Biso   1.000  C
  H18      1.0000 0.32050  0.78360  0.33990  Biso   1.000  H
  C31      1.0000 0.26970  0.71710  0.30250  Biso   1.000  C
  H19      1.0000 0.24630  0.72300  0.34240  Biso   1.000  H
  C32      1.0000 0.26000  0.67240  0.24560  Biso   1.000  C
  C33      1.0000 0.29430  0.66380  0.18720  Biso   1.000  C
  H20      1.0000 0.28770  0.63320  0.14840  Biso   1.000  H
  C34      1.0000 0.33850  0.69980  0.18580  Biso   1.000  C
  H21      1.0000 0.36190  0.69380  0.14590  Biso   1.000  H
  C35      1.0000 0.21520  0.63180  0.24180  Biso   1.000  C
  C36      1.0000 0.67690  0.98020  0.91360  Biso   1.000  C
  H22      1.0000 0.70620  0.97130  0.94630  Biso   1.000  H
  C37      1.0000 0.68020  0.97240  0.83130  Biso   1.000  C
  C38      1.0000 0.59820  0.01970  0.82460  Biso   1.000  C
  H23      1.0000 0.56990  0.03450  0.79320  Biso   1.000  H
  C39      1.0000 0.59430  0.02050  0.90080  Biso   1.000  C
  H24      1.0000 0.56390  0.03570  0.92260  Biso   1.000  H
  C40      1.0000 0.63870  0.05230  0.65880  Biso   1.000  C
  H25      1.0000 0.63890  0.09040  0.68640  Biso   1.000  H
  C41      1.0000 0.63880  0.05490  0.57790  Biso   1.000  C
  H26      1.0000 0.64070  0.09360  0.55170  Biso   1.000  H
  C42      1.0000 0.75720  0.91080  0.83610  Biso   1.000  C
  H27      1.0000 0.74070  0.87330  0.85660  Biso   1.000  H
  H28      1.0000 0.77270  0.93460  0.88030  Biso   1.000  H
  Zn3      1.0000 0.13350  0.57253  0.30779  Biso   1.000  Zn
  O15      1.0000 0.13410  0.44880  0.41910  Biso   1.000  O
  O16      1.0000 0.06550  0.61290  0.29440  Biso   1.000  O
  O17      1.0000 0.03460  0.56950  0.18450  Biso   1.000  O
  O18      1.0000 0.68460  0.86710  0.30250  Biso   1.000  O
  O19      1.0000 0.70630  0.90850  0.18750  Biso   1.000  O
  O20      1.0000 0.21820  0.55020  0.79190  Biso   1.000  O
  O21      1.0000 0.91320  0.73310  0.38540  Biso   1.000  O
  C43      1.0000 0.02980  0.60650  0.24230  Biso   1.000  C
  C44      1.0000 0.98530  0.64670  0.24110  Biso   1.000  C
  C45      1.0000 0.97320  0.67760  0.30870  Biso   1.000  C
  H29      1.0000 0.99590  0.67560  0.35330  Biso   1.000  H
  C46      1.0000 0.92800  0.71140  0.31100  Biso   1.000  C
  C47      1.0000 0.89480  0.71440  0.24570  Biso   1.000  C
  C48      1.0000 0.90690  0.68350  0.17810  Biso   1.000  C
  H30      1.0000 0.88420  0.68550  0.13350  Biso   1.000  H
  C49      1.0000 0.95210  0.64970  0.17580  Biso   1.000  C
  H31      1.0000 0.96030  0.62860  0.12970  Biso   1.000  H
  C50      1.0000 0.84820  0.75560  0.24270  Biso   1.000  C
  C51      1.0000 0.81390  0.74690  0.30100  Biso   1.000  C
  H32      1.0000 0.82050  0.71640  0.33990  Biso   1.000  H
  C52      1.0000 0.76970  0.78290  0.30250  Biso   1.000  C
  H33      1.0000 0.74630  0.77700  0.34240  Biso   1.000  H
  C53      1.0000 0.76000  0.82760  0.24560  Biso   1.000  C
  C54      1.0000 0.79430  0.83620  0.18720  Biso   1.000  C
  H34      1.0000 0.78770  0.86680  0.14840  Biso   1.000  H
  C55      1.0000 0.83850  0.80020  0.18580  Biso   1.000  C
  H35      1.0000 0.86190  0.80620  0.14590  Biso   1.000  H
  C56      1.0000 0.71520  0.86820  0.24180  Biso   1.000  C
  C57      1.0000 0.17690  0.51980  0.91360  Biso   1.000  C
  H36      1.0000 0.20620  0.52870  0.94630  Biso   1.000  H
  C58      1.0000 0.18020  0.52760  0.83130  Biso   1.000  C
  C59      1.0000 0.09820  0.48030  0.82460  Biso   1.000  C
  H37      1.0000 0.06990  0.46550  0.79320  Biso   1.000  H
  C60      1.0000 0.09430  0.47950  0.90080  Biso   1.000  C
  H38      1.0000 0.06390  0.46430  0.92260  Biso   1.000  H
  C61      1.0000 0.13870  0.44770  0.65880  Biso   1.000  C
  H39      1.0000 0.13890  0.40960  0.68640  Biso   1.000  H
  C62      1.0000 0.13880  0.44510  0.57790  Biso   1.000  C
  H40      1.0000 0.14070  0.40640  0.55170  Biso   1.000  H
  C63      1.0000 0.25720  0.58920  0.83610  Biso   1.000  C
  H41      1.0000 0.24070  0.62670  0.85660  Biso   1.000  H
  H42      1.0000 0.27270  0.56540  0.88030  Biso   1.000  H
  Zn4      1.0000 0.63350  0.07253  0.30779  Biso   1.000  Zn
  O22      1.0000 0.63410  0.94880  0.41910  Biso   1.000  O
  O23      1.0000 0.56550  0.11290  0.29440  Biso   1.000  O
  O24      1.0000 0.53460  0.06950  0.18450  Biso   1.000  O
  O25      1.0000 0.18460  0.36710  0.30250  Biso   1.000  O
  O26      1.0000 0.20630  0.40850  0.18750  Biso   1.000  O
  O27      1.0000 0.71820  0.05020  0.79190  Biso   1.000  O
  O28      1.0000 0.41320  0.23310  0.38540  Biso   1.000  O
  C64      1.0000 0.52980  0.10650  0.24230  Biso   1.000  C
  C65      1.0000 0.48530  0.14670  0.24110  Biso   1.000  C
  C66      1.0000 0.47320  0.17760  0.30870  Biso   1.000  C
  H43      1.0000 0.49590  0.17560  0.35330  Biso   1.000  H
  C67      1.0000 0.42800  0.21140  0.31100  Biso   1.000  C
  C68      1.0000 0.39480  0.21440  0.24570  Biso   1.000  C
  C69      1.0000 0.40690  0.18350  0.17810  Biso   1.000  C
  H44      1.0000 0.38420  0.18550  0.13350  Biso   1.000  H
  C70      1.0000 0.45210  0.14970  0.17580  Biso   1.000  C
  H45      1.0000 0.46030  0.12860  0.12970  Biso   1.000  H
  C71      1.0000 0.34820  0.25560  0.24270  Biso   1.000  C
  C72      1.0000 0.31390  0.24690  0.30100  Biso   1.000  C
  H46      1.0000 0.32050  0.21640  0.33990  Biso   1.000  H
  C73      1.0000 0.26970  0.28290  0.30250  Biso   1.000  C
  H47      1.0000 0.24630  0.27700  0.34240  Biso   1.000  H
  C74      1.0000 0.26000  0.32760  0.24560  Biso   1.000  C
  C75      1.0000 0.29430  0.33620  0.18720  Biso   1.000  C
  H48      1.0000 0.28770  0.36680  0.14840  Biso   1.000  H
  C76      1.0000 0.33850  0.30020  0.18580  Biso   1.000  C
  H49      1.0000 0.36190  0.30620  0.14590  Biso   1.000  H
  C77      1.0000 0.21520  0.36820  0.24180  Biso   1.000  C
  C78      1.0000 0.67690  0.01980  0.91360  Biso   1.000  C
  H50      1.0000 0.70620  0.02870  0.94630  Biso   1.000  H
  C79      1.0000 0.68020  0.02760  0.83130  Biso   1.000  C
  C80      1.0000 0.59820  0.98030  0.82460  Biso   1.000  C
  H51      1.0000 0.56990  0.96550  0.79320  Biso   1.000  H
  C81      1.0000 0.59430  0.97950  0.90080  Biso   1.000  C
  H52      1.0000 0.56390  0.96430  0.92260  Biso   1.000  H
  C82      1.0000 0.63870  0.94770  0.65880  Biso   1.000  C
  H53      1.0000 0.63890  0.90960  0.68640  Biso   1.000  H
  C83      1.0000 0.63880  0.94510  0.57790  Biso   1.000  C
  H54      1.0000 0.64070  0.90640  0.55170  Biso   1.000  H
  C84      1.0000 0.75720  0.08920  0.83610  Biso   1.000  C
  H55      1.0000 0.74070  0.12670  0.85660  Biso   1.000  H
  H56      1.0000 0.77270  0.06540  0.88030  Biso   1.000  H
  Zn5      1.0000 0.07838  0.50000  0.17032  Biso   1.000  Zn
  Zn6      1.0000 0.20014  0.50000  0.18464  Biso   1.000  Zn
  O29      1.0000 0.13640  0.50000  0.24300  Biso   1.000  O
  O30      1.0000 0.08880  0.50000  0.06190  Biso   1.000  O
  O31      1.0000 0.17160  0.50000  0.07150  Biso   1.000  O
  C85      1.0000 0.13110  0.50000  0.03510  Biso   1.000  C
  C86      1.0000 0.13270  0.50000  0.94680  Biso   1.000  C
  C87      1.0000 0.13850  0.50000  0.78960  Biso   1.000  C
  C88      1.0000 0.13850  0.50000  0.70010  Biso   1.000  C
  C89      1.0000 0.13610  0.50000  0.53690  Biso   1.000  C
  C90      1.0000 0.13410  0.50000  0.45160  Biso   1.000  C
  Zn7      1.0000 0.57838  0.00000  0.17032  Biso   1.000  Zn
  Zn8      1.0000 0.70014  0.00000  0.18464  Biso   1.000  Zn
  O32      1.0000 0.63640  0.00000  0.24300  Biso   1.000  O
  O33      1.0000 0.58880  0.00000  0.06190  Biso   1.000  O
  O34      1.0000 0.67160  0.00000  0.07150  Biso   1.000  O
  C91      1.0000 0.63110  0.00000  0.03510  Biso   1.000  C
  C92      1.0000 0.63270  0.00000  0.94680  Biso   1.000  C
  C93      1.0000 0.63850  0.00000  0.78960  Biso   1.000  C
  C94      1.0000 0.63850  0.00000  0.70010  Biso   1.000  C
  C95      1.0000 0.63610  0.00000  0.53690  Biso   1.000  C
  C96      1.0000 0.63410  0.00000  0.45160  Biso   1.000  C
  Zn9      1.0000 0.86650  0.42747  0.69221  Biso   1.000  Zn
  O35      1.0000 0.86590  0.55120  0.58090  Biso   1.000  O
  O36      1.0000 0.93450  0.38710  0.70560  Biso   1.000  O
  O37      1.0000 0.96540  0.43050  0.81550  Biso   1.000  O
  O38      1.0000 0.31540  0.13290  0.69750  Biso   1.000  O
  O39      1.0000 0.29370  0.09150  0.81250  Biso   1.000  O
  O40      1.0000 0.78180  0.44980  0.20810  Biso   1.000  O
  O41      1.0000 0.08680  0.26690  0.61460  Biso   1.000  O
  C97      1.0000 0.97020  0.39350  0.75770  Biso   1.000  C
  C98      1.0000 0.01470  0.35330  0.75890  Biso   1.000  C
  C99      1.0000 0.02680  0.32240  0.69130  Biso   1.000  C
  H57      1.0000 0.00410  0.32440  0.64670  Biso   1.000  H
  C100     1.0000 0.07200  0.28860  0.68900  Biso   1.000  C
  C101     1.0000 0.10520  0.28560  0.75430  Biso   1.000  C
  C102     1.0000 0.09310  0.31650  0.82190  Biso   1.000  C
  H58      1.0000 0.11580  0.31450  0.86650  Biso   1.000  H
  C103     1.0000 0.04790  0.35030  0.82420  Biso   1.000  C
  H59      1.0000 0.03970  0.37140  0.87030  Biso   1.000  H
  C104     1.0000 0.15180  0.24440  0.75730  Biso   1.000  C
  C105     1.0000 0.18610  0.25310  0.69900  Biso   1.000  C
  H60      1.0000 0.17950  0.28360  0.66010  Biso   1.000  H
  C106     1.0000 0.23030  0.21710  0.69750  Biso   1.000  C
  H61      1.0000 0.25370  0.22300  0.65760  Biso   1.000  H
  C107     1.0000 0.24000  0.17240  0.75440  Biso   1.000  C
  C108     1.0000 0.20570  0.16380  0.81280  Biso   1.000  C
  H62      1.0000 0.21230  0.13320  0.85160  Biso   1.000  H
  C109     1.0000 0.16150  0.19980  0.81420  Biso   1.000  C
  H63      1.0000 0.13810  0.19380  0.85410  Biso   1.000  H
  C110     1.0000 0.28480  0.13180  0.75820  Biso   1.000  C
  C111     1.0000 0.82310  0.48020  0.08640  Biso   1.000  C
  H64      1.0000 0.79380  0.47130  0.05370  Biso   1.000  H
  C112     1.0000 0.81980  0.47240  0.16870  Biso   1.000  C
  C113     1.0000 0.90180  0.51970  0.17540  Biso   1.000  C
  H65      1.0000 0.93010  0.53450  0.20680  Biso   1.000  H
  C114     1.0000 0.90570  0.52050  0.09920  Biso   1.000  C
  H66      1.0000 0.93610  0.53570  0.07740  Biso   1.000  H
  C115     1.0000 0.86130  0.55230  0.34120  Biso   1.000  C
  H67      1.0000 0.86110  0.59040  0.31360  Biso   1.000  H
  C116     1.0000 0.86120  0.55490  0.42210  Biso   1.000  C
  H68      1.0000 0.85930  0.59360  0.44830  Biso   1.000  H
  C117     1.0000 0.74280  0.41080  0.16390  Biso   1.000  C
  H69      1.0000 0.75930  0.37330  0.14340  Biso   1.000  H
  H70      1.0000 0.72730  0.43460  0.11970  Biso   1.000  H
  Zn10     1.0000 0.36650  0.92747  0.69221  Biso   1.000  Zn
  O42      1.0000 0.36590  0.05120  0.58090  Biso   1.000  O
  O43      1.0000 0.43450  0.88710  0.70560  Biso   1.000  O
  O44      1.0000 0.46540  0.93050  0.81550  Biso   1.000  O
  O45      1.0000 0.81540  0.63290  0.69750  Biso   1.000  O
  O46      1.0000 0.79370  0.59150  0.81250  Biso   1.000  O
  O47      1.0000 0.28180  0.94980  0.20810  Biso   1.000  O
  O48      1.0000 0.58680  0.76690  0.61460  Biso   1.000  O
  C118     1.0000 0.47020  0.89350  0.75770  Biso   1.000  C
  C119     1.0000 0.51470  0.85330  0.75890  Biso   1.000  C
  C120     1.0000 0.52680  0.82240  0.69130  Biso   1.000  C
  H71      1.0000 0.50410  0.82440  0.64670  Biso   1.000  H
  C121     1.0000 0.57200  0.78860  0.68900  Biso   1.000  C
  C122     1.0000 0.60520  0.78560  0.75430  Biso   1.000  C
  C123     1.0000 0.59310  0.81650  0.82190  Biso   1.000  C
  H72      1.0000 0.61580  0.81450  0.86650  Biso   1.000  H
  C124     1.0000 0.54790  0.85030  0.82420  Biso   1.000  C
  H73      1.0000 0.53970  0.87140  0.87030  Biso   1.000  H
  C125     1.0000 0.65180  0.74440  0.75730  Biso   1.000  C
  C126     1.0000 0.68610  0.75310  0.69900  Biso   1.000  C
  H74      1.0000 0.67950  0.78360  0.66010  Biso   1.000  H
  C127     1.0000 0.73030  0.71710  0.69750  Biso   1.000  C
  H75      1.0000 0.75370  0.72300  0.65760  Biso   1.000  H
  C128     1.0000 0.74000  0.67240  0.75440  Biso   1.000  C
  C129     1.0000 0.70570  0.66380  0.81280  Biso   1.000  C
  H76      1.0000 0.71230  0.63320  0.85160  Biso   1.000  H
  C130     1.0000 0.66150  0.69980  0.81420  Biso   1.000  C
  H77      1.0000 0.63810  0.69380  0.85410  Biso   1.000  H
  C131     1.0000 0.78480  0.63180  0.75820  Biso   1.000  C
  C132     1.0000 0.32310  0.98020  0.08640  Biso   1.000  C
  H78      1.0000 0.29380  0.97130  0.05370  Biso   1.000  H
  C133     1.0000 0.31980  0.97240  0.16870  Biso   1.000  C
  C134     1.0000 0.40180  0.01970  0.17540  Biso   1.000  C
  H79      1.0000 0.43010  0.03450  0.20680  Biso   1.000  H
  C135     1.0000 0.40570  0.02050  0.09920  Biso   1.000  C
  H80      1.0000 0.43610  0.03570  0.07740  Biso   1.000  H
  C136     1.0000 0.36130  0.05230  0.34120  Biso   1.000  C
  H81      1.0000 0.36110  0.09040  0.31360  Biso   1.000  H
  C137     1.0000 0.36120  0.05490  0.42210  Biso   1.000  C
  H82      1.0000 0.35930  0.09360  0.44830  Biso   1.000  H
  C138     1.0000 0.24280  0.91080  0.16390  Biso   1.000  C
  H83      1.0000 0.25930  0.87330  0.14340  Biso   1.000  H
  H84      1.0000 0.22730  0.93460  0.11970  Biso   1.000  H
  Zn11     1.0000 0.86650  0.57253  0.69221  Biso   1.000  Zn
  O49      1.0000 0.86590  0.44880  0.58090  Biso   1.000  O
  O50      1.0000 0.93450  0.61290  0.70560  Biso   1.000  O
  O51      1.0000 0.96540  0.56950  0.81550  Biso   1.000  O
  O52      1.0000 0.31540  0.86710  0.69750  Biso   1.000  O
  O53      1.0000 0.29370  0.90850  0.81250  Biso   1.000  O
  O54      1.0000 0.78180  0.55020  0.20810  Biso   1.000  O
  O55      1.0000 0.08680  0.73310  0.61460  Biso   1.000  O
  C139     1.0000 0.97020  0.60650  0.75770  Biso   1.000  C
  C140     1.0000 0.01470  0.64670  0.75890  Biso   1.000  C
  C141     1.0000 0.02680  0.67760  0.69130  Biso   1.000  C
  H85      1.0000 0.00410  0.67560  0.64670  Biso   1.000  H
  C142     1.0000 0.07200  0.71140  0.68900  Biso   1.000  C
  C143     1.0000 0.10520  0.71440  0.75430  Biso   1.000  C
  C144     1.0000 0.09310  0.68350  0.82190  Biso   1.000  C
  H86      1.0000 0.11580  0.68550  0.86650  Biso   1.000  H
  C145     1.0000 0.04790  0.64970  0.82420  Biso   1.000  C
  H87      1.0000 0.03970  0.62860  0.87030  Biso   1.000  H
  C146     1.0000 0.15180  0.75560  0.75730  Biso   1.000  C
  C147     1.0000 0.18610  0.74690  0.69900  Biso   1.000  C
  H88      1.0000 0.17950  0.71640  0.66010  Biso   1.000  H
  C148     1.0000 0.23030  0.78290  0.69750  Biso   1.000  C
  H89      1.0000 0.25370  0.77700  0.65760  Biso   1.000  H
  C149     1.0000 0.24000  0.82760  0.75440  Biso   1.000  C
  C150     1.0000 0.20570  0.83620  0.81280  Biso   1.000  C
  H90      1.0000 0.21230  0.86680  0.85160  Biso   1.000  H
  C151     1.0000 0.16150  0.80020  0.81420  Biso   1.000  C
  H91      1.0000 0.13810  0.80620  0.85410  Biso   1.000  H
  C152     1.0000 0.28480  0.86820  0.75820  Biso   1.000  C
  C153     1.0000 0.82310  0.51980  0.08640  Biso   1.000  C
  H92      1.0000 0.79380  0.52870  0.05370  Biso   1.000  H
  C154     1.0000 0.81980  0.52760  0.16870  Biso   1.000  C
  C155     1.0000 0.90180  0.48030  0.17540  Biso   1.000  C
  H93      1.0000 0.93010  0.46550  0.20680  Biso   1.000  H
  C156     1.0000 0.90570  0.47950  0.09920  Biso   1.000  C
  H94      1.0000 0.93610  0.46430  0.07740  Biso   1.000  H
  C157     1.0000 0.86130  0.44770  0.34120  Biso   1.000  C
  H95      1.0000 0.86110  0.40960  0.31360  Biso   1.000  H
  C158     1.0000 0.86120  0.44510  0.42210  Biso   1.000  C
  H96      1.0000 0.85930  0.40640  0.44830  Biso   1.000  H
  C159     1.0000 0.74280  0.58920  0.16390  Biso   1.000  C
  H97      1.0000 0.75930  0.62670  0.14340  Biso   1.000  H
  H98      1.0000 0.72730  0.56540  0.11970  Biso   1.000  H
  Zn12     1.0000 0.36650  0.07253  0.69221  Biso   1.000  Zn
  O56      1.0000 0.36590  0.94880  0.58090  Biso   1.000  O
  O57      1.0000 0.43450  0.11290  0.70560  Biso   1.000  O
  O58      1.0000 0.46540  0.06950  0.81550  Biso   1.000  O
  O59      1.0000 0.81540  0.36710  0.69750  Biso   1.000  O
  O60      1.0000 0.79370  0.40850  0.81250  Biso   1.000  O
  O61      1.0000 0.28180  0.05020  0.20810  Biso   1.000  O
  O62      1.0000 0.58680  0.23310  0.61460  Biso   1.000  O
  C160     1.0000 0.47020  0.10650  0.75770  Biso   1.000  C
  C161     1.0000 0.51470  0.14670  0.75890  Biso   1.000  C
  C162     1.0000 0.52680  0.17760  0.69130  Biso   1.000  C
  H99      1.0000 0.50410  0.17560  0.64670  Biso   1.000  H
  C163     1.0000 0.57200  0.21140  0.68900  Biso   1.000  C
  C164     1.0000 0.60520  0.21440  0.75430  Biso   1.000  C
  C165     1.0000 0.59310  0.18350  0.82190  Biso   1.000  C
  H100     1.0000 0.61580  0.18550  0.86650  Biso   1.000  H
  C166     1.0000 0.54790  0.14970  0.82420  Biso   1.000  C
  H101     1.0000 0.53970  0.12860  0.87030  Biso   1.000  H
  C167     1.0000 0.65180  0.25560  0.75730  Biso   1.000  C
  C168     1.0000 0.68610  0.24690  0.69900  Biso   1.000  C
  H102     1.0000 0.67950  0.21640  0.66010  Biso   1.000  H
  C169     1.0000 0.73030  0.28290  0.69750  Biso   1.000  C
  H103     1.0000 0.75370  0.27700  0.65760  Biso   1.000  H
  C170     1.0000 0.74000  0.32760  0.75440  Biso   1.000  C
  C171     1.0000 0.70570  0.33620  0.81280  Biso   1.000  C
  H104     1.0000 0.71230  0.36680  0.85160  Biso   1.000  H
  C172     1.0000 0.66150  0.30020  0.81420  Biso   1.000  C
  H105     1.0000 0.63810  0.30620  0.85410  Biso   1.000  H
  C173     1.0000 0.78480  0.36820  0.75820  Biso   1.000  C
  C174     1.0000 0.32310  0.01980  0.08640  Biso   1.000  C
  H106     1.0000 0.29380  0.02870  0.05370  Biso   1.000  H
  C175     1.0000 0.31980  0.02760  0.16870  Biso   1.000  C
  C176     1.0000 0.40180  0.98030  0.17540  Biso   1.000  C
  H107     1.0000 0.43010  0.96550  0.20680  Biso   1.000  H
  C177     1.0000 0.40570  0.97950  0.09920  Biso   1.000  C
  H108     1.0000 0.43610  0.96430  0.07740  Biso   1.000  H
  C178     1.0000 0.36130  0.94770  0.34120  Biso   1.000  C
  H109     1.0000 0.36110  0.90960  0.31360  Biso   1.000  H
  C179     1.0000 0.36120  0.94510  0.42210  Biso   1.000  C
  H110     1.0000 0.35930  0.90640  0.44830  Biso   1.000  H
  C180     1.0000 0.24280  0.08920  0.16390  Biso   1.000  C
  H111     1.0000 0.25930  0.12670  0.14340  Biso   1.000  H
  H112     1.0000 0.22730  0.06540  0.11970  Biso   1.000  H
  Zn13     1.0000 0.92162  0.50000  0.82968  Biso   1.000  Zn
  Zn14     1.0000 0.79986  0.50000  0.81536  Biso   1.000  Zn
  O63      1.0000 0.86360  0.50000  0.75700  Biso   1.000  O
  O64      1.0000 0.91120  0.50000  0.93810  Biso   1.000  O
  O65      1.0000 0.82840  0.50000  0.92850  Biso   1.000  O
  C181     1.0000 0.86890  0.50000  0.96490  Biso   1.000  C
  C182     1.0000 0.86730  0.50000  0.05320  Biso   1.000  C
  C183     1.0000 0.86150  0.50000  0.21040  Biso   1.000  C
  C184     1.0000 0.86150  0.50000  0.29990  Biso   1.000  C
  C185     1.0000 0.86390  0.50000  0.46310  Biso   1.000  C
  C186     1.0000 0.86590  0.50000  0.54840  Biso   1.000  C
  Zn15     1.0000 0.42162  0.00000  0.82968  Biso   1.000  Zn
  Zn16     1.0000 0.29986  0.00000  0.81536  Biso   1.000  Zn
  O66      1.0000 0.36360  0.00000  0.75700  Biso   1.000  O
  O67      1.0000 0.41120  0.00000  0.93810  Biso   1.000  O
  O68      1.0000 0.32840  0.00000  0.92850  Biso   1.000  O
  C187     1.0000 0.36890  0.00000  0.96490  Biso   1.000  C
  C188     1.0000 0.36730  0.00000  0.05320  Biso   1.000  C
  C189     1.0000 0.36150  0.00000  0.21040  Biso   1.000  C
  C190     1.0000 0.36150  0.00000  0.29990  Biso   1.000  C
  C191     1.0000 0.36390  0.00000  0.46310  Biso   1.000  C
  C192     1.0000 0.36590  0.00000  0.54840  Biso   1.000  C
