data_image0
_cell_length_a       16.49
_cell_length_b       16.49
_cell_length_c       14.05
_cell_angle_alpha    90
_cell_angle_beta     90
_cell_angle_gamma    120

_symmetry_space_group_name_H-M    "P 1"
_symmetry_int_tables_number       1

loop_
  _symmetry_equiv_pos_as_xyz
  'x, y, z'

loop_
  _atom_site_label
  _atom_site_occupancy
  _atom_site_fract_x
  _atom_site_fract_y
  _atom_site_fract_z
  _atom_site_thermal_displace_type
  _atom_site_B_iso_or_equiv
  _atom_site_type_symbol
  O1       1.0000 0.05420  0.17870  0.86270  Biso   1.000  O
  O2       1.0000 0.77430  0.33570  0.83010  Biso   1.000  O
  O3       1.0000 0.75490  0.29180  0.98040  Biso   1.000  O
  N1       1.0000 0.93270  0.02600  0.86680  Biso   1.000  N
  C1       1.0000 0.96730  0.24140  0.79080  Biso   1.000  C
  H1       1.0000 0.99300  0.24160  0.73190  Biso   1.000  H
  C2       1.0000 0.95150  0.20630  0.96010  Biso   1.000  C
  H2       1.0000 0.96890  0.18460  0.01300  Biso   1.000  H
  C3       1.0000 0.02380  0.08580  0.86630  Biso   1.000  C
  C4       1.0000 0.90460  0.27600  0.80290  Biso   1.000  C
  H3       1.0000 0.89080  0.30240  0.75140  Biso   1.000  H
  C5       1.0000 0.79220  0.30140  0.89560  Biso   1.000  C
  C6       1.0000 0.86450  0.27120  0.88850  Biso   1.000  C
  C7       1.0000 0.98790  0.20760  0.87160  Biso   1.000  C
  C8       1.0000 0.88840  0.23810  0.96830  Biso   1.000  C
  H4       1.0000 0.86210  0.23730  0.02710  Biso   1.000  H
  O4       1.0000 0.63000  0.33000  0.14280  Biso   1.000  O
  O5       1.0000 0.82130  0.87550  0.86270  Biso   1.000  O
  O6       1.0000 0.66430  0.43860  0.83010  Biso   1.000  O
  O7       1.0000 0.70820  0.46310  0.98040  Biso   1.000  O
  N2       1.0000 0.97400  0.90670  0.86680  Biso   1.000  N
  C9       1.0000 0.75860  0.72590  0.79080  Biso   1.000  C
  H5       1.0000 0.75840  0.75140  0.73190  Biso   1.000  H
  C10      1.0000 0.79370  0.74520  0.96010  Biso   1.000  C
  H6       1.0000 0.81540  0.78430  0.01300  Biso   1.000  H
  C11      1.0000 0.91420  0.93800  0.86630  Biso   1.000  C
  C12      1.0000 0.72400  0.62860  0.80290  Biso   1.000  C
  H7       1.0000 0.69760  0.58840  0.75140  Biso   1.000  H
  C13      1.0000 0.69860  0.49080  0.89560  Biso   1.000  C
  C14      1.0000 0.72880  0.59330  0.88850  Biso   1.000  C
  C15      1.0000 0.79240  0.78030  0.87160  Biso   1.000  C
  C16      1.0000 0.76190  0.65030  0.96830  Biso   1.000  C
  H8       1.0000 0.76270  0.62480  0.02710  Biso   1.000  H
  O8       1.0000 0.67000  0.30000  0.14280  Biso   1.000  O
  O9       1.0000 0.12450  0.94580  0.86270  Biso   1.000  O
  O10      1.0000 0.56140  0.22570  0.83010  Biso   1.000  O
  O11      1.0000 0.53690  0.24510  0.98040  Biso   1.000  O
  N3       1.0000 0.09330  0.06730  0.86680  Biso   1.000  N
  C17      1.0000 0.27410  0.03270  0.79080  Biso   1.000  C
  H9       1.0000 0.24860  0.00700  0.73190  Biso   1.000  H
  C18      1.0000 0.25480  0.04850  0.96010  Biso   1.000  C
  H10      1.0000 0.21570  0.03110  0.01300  Biso   1.000  H
  C19      1.0000 0.06200  0.97620  0.86630  Biso   1.000  C
  C20      1.0000 0.37140  0.09540  0.80290  Biso   1.000  C
  H11      1.0000 0.41160  0.10920  0.75140  Biso   1.000  H
  C21      1.0000 0.50920  0.20780  0.89560  Biso   1.000  C
  C22      1.0000 0.40670  0.13550  0.88850  Biso   1.000  C
  C23      1.0000 0.21970  0.01210  0.87160  Biso   1.000  C
  C24      1.0000 0.34970  0.11160  0.96830  Biso   1.000  C
  H12      1.0000 0.37520  0.13790  0.02710  Biso   1.000  H
  O12      1.0000 0.70000  0.37000  0.14280  Biso   1.000  O
  O13      1.0000 0.82130  0.94580  0.63730  Biso   1.000  O
  O14      1.0000 0.66430  0.22570  0.66990  Biso   1.000  O
  O15      1.0000 0.70820  0.24510  0.51960  Biso   1.000  O
  N4       1.0000 0.97400  0.06730  0.63320  Biso   1.000  N
  C25      1.0000 0.75860  0.03270  0.70920  Biso   1.000  C
  H13      1.0000 0.75840  0.00700  0.76810  Biso   1.000  H
  C26      1.0000 0.79370  0.04850  0.53990  Biso   1.000  C
  H14      1.0000 0.81540  0.03110  0.48700  Biso   1.000  H
  C27      1.0000 0.91420  0.97620  0.63370  Biso   1.000  C
  C28      1.0000 0.72400  0.09540  0.69710  Biso   1.000  C
  H15      1.0000 0.69760  0.10920  0.74860  Biso   1.000  H
  C29      1.0000 0.69860  0.20780  0.60440  Biso   1.000  C
  C30      1.0000 0.72880  0.13550  0.61150  Biso   1.000  C
  C31      1.0000 0.79240  0.01210  0.62840  Biso   1.000  C
  C32      1.0000 0.76190  0.11160  0.53170  Biso   1.000  C
  H16      1.0000 0.76270  0.13790  0.47290  Biso   1.000  H
  O16      1.0000 0.67000  0.37000  0.35720  Biso   1.000  O
  O17      1.0000 0.12450  0.17870  0.63730  Biso   1.000  O
  O18      1.0000 0.56140  0.33570  0.66990  Biso   1.000  O
  O19      1.0000 0.53690  0.29180  0.51960  Biso   1.000  O
  N5       1.0000 0.09330  0.02600  0.63320  Biso   1.000  N
  C33      1.0000 0.27410  0.24140  0.70920  Biso   1.000  C
  H17      1.0000 0.24860  0.24160  0.76810  Biso   1.000  H
  C34      1.0000 0.25480  0.20630  0.53990  Biso   1.000  C
  H18      1.0000 0.21570  0.18460  0.48700  Biso   1.000  H
  C35      1.0000 0.06200  0.08580  0.63370  Biso   1.000  C
  C36      1.0000 0.37140  0.27600  0.69710  Biso   1.000  C
  H19      1.0000 0.41160  0.30240  0.74860  Biso   1.000  H
  C37      1.0000 0.50920  0.30140  0.60440  Biso   1.000  C
  C38      1.0000 0.40670  0.27120  0.61150  Biso   1.000  C
  C39      1.0000 0.21970  0.20760  0.62840  Biso   1.000  C
  C40      1.0000 0.34970  0.23810  0.53170  Biso   1.000  C
  H20      1.0000 0.37520  0.23730  0.47290  Biso   1.000  H
  O20      1.0000 0.70000  0.33000  0.35720  Biso   1.000  O
  O21      1.0000 0.05420  0.87550  0.63730  Biso   1.000  O
  O22      1.0000 0.77430  0.43860  0.66990  Biso   1.000  O
  O23      1.0000 0.75490  0.46310  0.51960  Biso   1.000  O
  N6       1.0000 0.93270  0.90670  0.63320  Biso   1.000  N
  C41      1.0000 0.96730  0.72590  0.70920  Biso   1.000  C
  H21      1.0000 0.99300  0.75140  0.76810  Biso   1.000  H
  C42      1.0000 0.95150  0.74520  0.53990  Biso   1.000  C
  H22      1.0000 0.96890  0.78430  0.48700  Biso   1.000  H
  C43      1.0000 0.02380  0.93800  0.63370  Biso   1.000  C
  C44      1.0000 0.90460  0.62860  0.69710  Biso   1.000  C
  H23      1.0000 0.89080  0.58840  0.74860  Biso   1.000  H
  C45      1.0000 0.79220  0.49080  0.60440  Biso   1.000  C
  C46      1.0000 0.86450  0.59330  0.61150  Biso   1.000  C
  C47      1.0000 0.98790  0.78030  0.62840  Biso   1.000  C
  C48      1.0000 0.88840  0.65030  0.53170  Biso   1.000  C
  H24      1.0000 0.86210  0.62480  0.47290  Biso   1.000  H
  O24      1.0000 0.63000  0.30000  0.35720  Biso   1.000  O
  Zn1      1.0000 0.66667  0.33333  0.75000  Biso   1.000  Zn
  Zn2      1.0000 0.66667  0.33333  0.00231  Biso   1.000  Zn
  Zn3      1.0000 0.66667  0.33333  0.49769  Biso   1.000  Zn
  C49      1.0000 0.66667  0.33333  0.25000  Biso   1.000  C
  O25      1.0000 0.94580  0.82130  0.13730  Biso   1.000  O
  O26      1.0000 0.22570  0.66430  0.16990  Biso   1.000  O
  O27      1.0000 0.24510  0.70820  0.01960  Biso   1.000  O
  N7       1.0000 0.06730  0.97400  0.13320  Biso   1.000  N
  C50      1.0000 0.03270  0.75860  0.20920  Biso   1.000  C
  H25      1.0000 0.00700  0.75840  0.26810  Biso   1.000  H
  C51      1.0000 0.04850  0.79370  0.03990  Biso   1.000  C
  H26      1.0000 0.03110  0.81540  0.98700  Biso   1.000  H
  C52      1.0000 0.97620  0.91420  0.13370  Biso   1.000  C
  C53      1.0000 0.09540  0.72400  0.19710  Biso   1.000  C
  H27      1.0000 0.10920  0.69760  0.24860  Biso   1.000  H
  C54      1.0000 0.20780  0.69860  0.10440  Biso   1.000  C
  C55      1.0000 0.13550  0.72880  0.11150  Biso   1.000  C
  C56      1.0000 0.01210  0.79240  0.12840  Biso   1.000  C
  C57      1.0000 0.11160  0.76190  0.03170  Biso   1.000  C
  H28      1.0000 0.13790  0.76270  0.97290  Biso   1.000  H
  O28      1.0000 0.37000  0.67000  0.85720  Biso   1.000  O
  O29      1.0000 0.17870  0.12450  0.13730  Biso   1.000  O
  O30      1.0000 0.33570  0.56140  0.16990  Biso   1.000  O
  O31      1.0000 0.29180  0.53690  0.01960  Biso   1.000  O
  N8       1.0000 0.02600  0.09330  0.13320  Biso   1.000  N
  C58      1.0000 0.24140  0.27410  0.20920  Biso   1.000  C
  H29      1.0000 0.24160  0.24860  0.26810  Biso   1.000  H
  C59      1.0000 0.20630  0.25480  0.03990  Biso   1.000  C
  H30      1.0000 0.18460  0.21570  0.98700  Biso   1.000  H
  C60      1.0000 0.08580  0.06200  0.13370  Biso   1.000  C
  C61      1.0000 0.27600  0.37140  0.19710  Biso   1.000  C
  H31      1.0000 0.30240  0.41160  0.24860  Biso   1.000  H
  C62      1.0000 0.30140  0.50920  0.10440  Biso   1.000  C
  C63      1.0000 0.27120  0.40670  0.11150  Biso   1.000  C
  C64      1.0000 0.20760  0.21970  0.12840  Biso   1.000  C
  C65      1.0000 0.23810  0.34970  0.03170  Biso   1.000  C
  H32      1.0000 0.23730  0.37520  0.97290  Biso   1.000  H
  O32      1.0000 0.33000  0.70000  0.85720  Biso   1.000  O
  O33      1.0000 0.87550  0.05420  0.13730  Biso   1.000  O
  O34      1.0000 0.43860  0.77430  0.16990  Biso   1.000  O
  O35      1.0000 0.46310  0.75490  0.01960  Biso   1.000  O
  N9       1.0000 0.90670  0.93270  0.13320  Biso   1.000  N
  C66      1.0000 0.72590  0.96730  0.20920  Biso   1.000  C
  H33      1.0000 0.75140  0.99300  0.26810  Biso   1.000  H
  C67      1.0000 0.74520  0.95150  0.03990  Biso   1.000  C
  H34      1.0000 0.78430  0.96890  0.98700  Biso   1.000  H
  C68      1.0000 0.93800  0.02380  0.13370  Biso   1.000  C
  C69      1.0000 0.62860  0.90460  0.19710  Biso   1.000  C
  H35      1.0000 0.58840  0.89080  0.24860  Biso   1.000  H
  C70      1.0000 0.49080  0.79220  0.10440  Biso   1.000  C
  C71      1.0000 0.59330  0.86450  0.11150  Biso   1.000  C
  C72      1.0000 0.78030  0.98790  0.12840  Biso   1.000  C
  C73      1.0000 0.65030  0.88840  0.03170  Biso   1.000  C
  H36      1.0000 0.62480  0.86210  0.97290  Biso   1.000  H
  O36      1.0000 0.30000  0.63000  0.85720  Biso   1.000  O
  O37      1.0000 0.17870  0.05420  0.36270  Biso   1.000  O
  O38      1.0000 0.33570  0.77430  0.33010  Biso   1.000  O
  O39      1.0000 0.29180  0.75490  0.48040  Biso   1.000  O
  N10      1.0000 0.02600  0.93270  0.36680  Biso   1.000  N
  C74      1.0000 0.24140  0.96730  0.29080  Biso   1.000  C
  H37      1.0000 0.24160  0.99300  0.23190  Biso   1.000  H
  C75      1.0000 0.20630  0.95150  0.46010  Biso   1.000  C
  H38      1.0000 0.18460  0.96890  0.51300  Biso   1.000  H
  C76      1.0000 0.08580  0.02380  0.36630  Biso   1.000  C
  C77      1.0000 0.27600  0.90460  0.30290  Biso   1.000  C
  H39      1.0000 0.30240  0.89080  0.25140  Biso   1.000  H
  C78      1.0000 0.30140  0.79220  0.39560  Biso   1.000  C
  C79      1.0000 0.27120  0.86450  0.38850  Biso   1.000  C
  C80      1.0000 0.20760  0.98790  0.37160  Biso   1.000  C
  C81      1.0000 0.23810  0.88840  0.46830  Biso   1.000  C
  H40      1.0000 0.23730  0.86210  0.52710  Biso   1.000  H
  O40      1.0000 0.33000  0.63000  0.64280  Biso   1.000  O
  O41      1.0000 0.87550  0.82130  0.36270  Biso   1.000  O
  O42      1.0000 0.43860  0.66430  0.33010  Biso   1.000  O
  O43      1.0000 0.46310  0.70820  0.48040  Biso   1.000  O
  N11      1.0000 0.90670  0.97400  0.36680  Biso   1.000  N
  C82      1.0000 0.72590  0.75860  0.29080  Biso   1.000  C
  H41      1.0000 0.75140  0.75840  0.23190  Biso   1.000  H
  C83      1.0000 0.74520  0.79370  0.46010  Biso   1.000  C
  H42      1.0000 0.78430  0.81540  0.51300  Biso   1.000  H
  C84      1.0000 0.93800  0.91420  0.36630  Biso   1.000  C
  C85      1.0000 0.62860  0.72400  0.30290  Biso   1.000  C
  H43      1.0000 0.58840  0.69760  0.25140  Biso   1.000  H
  C86      1.0000 0.49080  0.69860  0.39560  Biso   1.000  C
  C87      1.0000 0.59330  0.72880  0.38850  Biso   1.000  C
  C88      1.0000 0.78030  0.79240  0.37160  Biso   1.000  C
  C89      1.0000 0.65030  0.76190  0.46830  Biso   1.000  C
  H44      1.0000 0.62480  0.76270  0.52710  Biso   1.000  H
  O44      1.0000 0.30000  0.67000  0.64280  Biso   1.000  O
  O45      1.0000 0.94580  0.12450  0.36270  Biso   1.000  O
  O46      1.0000 0.22570  0.56140  0.33010  Biso   1.000  O
  O47      1.0000 0.24510  0.53690  0.48040  Biso   1.000  O
  N12      1.0000 0.06730  0.09330  0.36680  Biso   1.000  N
  C90      1.0000 0.03270  0.27410  0.29080  Biso   1.000  C
  H45      1.0000 0.00700  0.24860  0.23190  Biso   1.000  H
  C91      1.0000 0.04850  0.25480  0.46010  Biso   1.000  C
  H46      1.0000 0.03110  0.21570  0.51300  Biso   1.000  H
  C92      1.0000 0.97620  0.06200  0.36630  Biso   1.000  C
  C93      1.0000 0.09540  0.37140  0.30290  Biso   1.000  C
  H47      1.0000 0.10920  0.41160  0.25140  Biso   1.000  H
  C94      1.0000 0.20780  0.50920  0.39560  Biso   1.000  C
  C95      1.0000 0.13550  0.40670  0.38850  Biso   1.000  C
  C96      1.0000 0.01210  0.21970  0.37160  Biso   1.000  C
  C97      1.0000 0.11160  0.34970  0.46830  Biso   1.000  C
  H48      1.0000 0.13790  0.37520  0.52710  Biso   1.000  H
  O48      1.0000 0.37000  0.70000  0.64280  Biso   1.000  O
  Zn4      1.0000 0.33333  0.66667  0.25000  Biso   1.000  Zn
  Zn5      1.0000 0.33333  0.66667  0.99769  Biso   1.000  Zn
  Zn6      1.0000 0.33333  0.66667  0.50231  Biso   1.000  Zn
  C98      1.0000 0.33333  0.66667  0.75000  Biso   1.000  C
