data_image0
_cell_length_a       12.795
_cell_length_b       13.032
_cell_length_c       20.864
_cell_angle_alpha    81.911
_cell_angle_beta     84.45
_cell_angle_gamma    70.545

_symmetry_space_group_name_H-M    "P 1"
_symmetry_int_tables_number       1

loop_
  _symmetry_equiv_pos_as_xyz
  'x, y, z'

loop_
  _atom_site_label
  _atom_site_occupancy
  _atom_site_fract_x
  _atom_site_fract_y
  _atom_site_fract_z
  _atom_site_thermal_displace_type
  _atom_site_B_iso_or_equiv
  _atom_site_type_symbol
  Ag1      1.0000 0.91860  0.43290  0.30638  Biso   1.000  Ag
  Ag2      1.0000 0.14855  0.32809  0.26204  Biso   1.000  Ag
  Ag3      1.0000 0.80187  0.66095  0.26477  Biso   1.000  Ag
  Ag4      1.0000 0.20669  0.52654  0.25698  Biso   1.000  Ag
  Ag5      1.0000 0.11927  0.47778  0.13943  Biso   1.000  Ag
  Ag6      1.0000 0.90926  0.65626  0.13812  Biso   1.000  Ag
  Ag7      1.0000 0.99069  0.73702  0.24355  Biso   1.000  Ag
  Ag8      1.0000 0.79101  0.97325  0.74098  Biso   1.000  Ag
  Ag9      1.0000 0.59591  0.90004  0.72715  Biso   1.000  Ag
  Ag10     1.0000 0.75074  0.21903  0.72844  Biso   1.000  Ag
  Ag11     1.0000 0.43489  0.09629  0.74351  Biso   1.000  Ag
  Ag12     1.0000 0.58107  0.03437  0.60031  Biso   1.000  Ag
  Ag13     1.0000 0.69515  0.19372  0.60157  Biso   1.000  Ag
  Ag14     1.0000 0.51216  0.29144  0.71130  Biso   1.000  Ag
  Ag15     1.0000 0.26324  0.37908  0.99446  Biso   1.000  Ag
  Ag16     1.0000 0.81637  0.31569  0.45734  Biso   1.000  Ag
  C1       1.0000 0.05160  0.49790  0.24220  Biso   1.000  C
  C2       1.0000 0.97080  0.57640  0.23390  Biso   1.000  C
  C3       1.0000 0.64750  0.13400  0.69970  Biso   1.000  C
  C4       1.0000 0.60280  0.06750  0.69870  Biso   1.000  C
  O1       1.0000 0.87470  0.30280  0.66560  Biso   1.000  O
  O2       1.0000 0.82480  0.28720  0.56880  Biso   1.000  O
  O3       1.0000 0.95910  0.67150  0.03180  Biso   1.000  O
  O4       1.0000 0.10680  0.52460  0.03060  Biso   1.000  O
  O5       1.0000 0.22590  0.19190  0.19370  Biso   1.000  O
  O6       1.0000 0.23540  0.30620  0.10720  Biso   1.000  O
  O7       1.0000 0.31600  0.24310  0.32920  Biso   1.000  O
  O8       1.0000 0.36400  0.14780  0.42570  Biso   1.000  O
  O9       1.0000 0.50110  0.85360  0.81590  Biso   1.000  O
  O10      1.0000 0.36230  0.00820  0.82790  Biso   1.000  O
  O11      1.0000 0.77640  0.48270  0.38960  Biso   1.000  O
  O12      1.0000 0.33230  0.35970  0.65910  Biso   1.000  O
  O13      1.0000 0.45780  0.45990  0.74250  Biso   1.000  O
  O14      1.0000 0.63690  0.44820  0.72790  Biso   1.000  O
  O15      1.0000 0.95930  0.27450  0.37690  Biso   1.000  O
  O16      1.0000 0.11360  0.17750  0.32440  Biso   1.000  O
  O17      1.0000 0.35390  0.26900  0.79930  Biso   1.000  O
  O18      1.0000 0.27410  0.33290  0.89050  Biso   1.000  O
  O19      1.0000 0.91710  0.90910  0.25970  Biso   1.000  O
  O20      1.0000 0.07170  0.95330  0.24850  Biso   1.000  O
  O21      1.0000 0.61540  0.08690  0.48950  Biso   1.000  O
  O22      1.0000 0.69230  0.21600  0.49340  Biso   1.000  O
  C5       1.0000 0.88320  0.30780  0.60600  Biso   1.000  C
  C6       1.0000 0.98010  0.33980  0.57450  Biso   1.000  C
  F1       1.0000 0.06710  0.25190  0.56500  Biso   1.000  F
  F2       1.0000 0.96230  0.39730  0.51640  Biso   1.000  F
  F3       1.0000 0.01740  0.39880  0.60780  Biso   1.000  F
  C7       1.0000 0.04190  0.61040  0.01070  Biso   1.000  C
  C8       1.0000 0.07180  0.64280  0.94160  Biso   1.000  C
  F4       1.0000 0.99590  0.72240  0.90890  Biso   1.000  F
  F5       1.0000 0.09950  0.56730  0.90110  Biso   1.000  F
  F6       1.0000 0.15810  0.67810  0.93220  Biso   1.000  F
  C9       1.0000 0.24410  0.21890  0.13650  Biso   1.000  C
  C10      1.0000 0.28120  0.12440  0.09700  Biso   1.000  C
  F7       1.0000 0.20160  0.09480  0.07700  Biso   1.000  F
  F8       1.0000 0.34610  0.03050  0.12510  Biso   1.000  F
  F9       1.0000 0.33800  0.14140  0.04250  Biso   1.000  F
  C11      1.0000 0.32210  0.23050  0.38860  Biso   1.000  C
  C12      1.0000 0.25400  0.33000  0.42010  Biso   1.000  C
  F10      1.0000 0.26290  0.32190  0.48360  Biso   1.000  F
  F11      1.0000 0.14550  0.36240  0.41220  Biso   1.000  F
  F12      1.0000 0.28220  0.41830  0.39790  Biso   1.000  F
  C13      1.0000 0.41970  0.91420  0.83980  Biso   1.000  C
  C14      1.0000 0.38390  0.86250  0.90310  Biso   1.000  C
  F13      1.0000 0.29370  0.83600  0.90010  Biso   1.000  F
  F14      1.0000 0.45000  0.76960  0.93200  Biso   1.000  F
  F15      1.0000 0.35700  0.92270  0.95200  Biso   1.000  F
  C15      1.0000 0.69020  0.55930  0.38390  Biso   1.000  C
  C16      1.0000 0.59650  0.56090  0.43340  Biso   1.000  C
  F16      1.0000 0.54230  0.66030  0.45010  Biso   1.000  F
  F17      1.0000 0.52110  0.52810  0.41040  Biso   1.000  F
  F18      1.0000 0.62750  0.49700  0.48820  Biso   1.000  F
  C17      1.0000 0.54060  0.48950  0.74680  Biso   1.000  C
  C18      1.0000 0.51130  0.59020  0.78090  Biso   1.000  C
  F19      1.0000 0.59470  0.62500  0.78860  Biso   1.000  F
  F20      1.0000 0.43530  0.67720  0.75320  Biso   1.000  F
  F21      1.0000 0.46730  0.57860  0.84070  Biso   1.000  F
  C19      1.0000 0.03610  0.19280  0.36830  Biso   1.000  C
  C20      1.0000 0.05060  0.09260  0.41600  Biso   1.000  C
  F22      1.0000 0.13380  0.07280  0.45430  Biso   1.000  F
  F23      1.0000 0.07090  0.99760  0.39330  Biso   1.000  F
  F24      1.0000 0.96390  0.09970  0.45730  Biso   1.000  F
  C21      1.0000 0.35130  0.28730  0.85390  Biso   1.000  C
  C22      1.0000 0.45920  0.25170  0.88610  Biso   1.000  C
  F25      1.0000 0.55010  0.21200  0.84930  Biso   1.000  F
  F26      1.0000 0.47290  0.17300  0.93540  Biso   1.000  F
  F27      1.0000 0.48540  0.32610  0.91250  Biso   1.000  F
  C23      1.0000 0.97430  0.97100  0.25090  Biso   1.000  C
  C24      1.0000 0.90420  0.08520  0.22840  Biso   1.000  C
  F28      1.0000 0.92750  0.15310  0.26190  Biso   1.000  F
  F29      1.0000 0.79450  0.11620  0.23570  Biso   1.000  F
  F30      1.0000 0.92100  0.12300  0.16740  Biso   1.000  F
  C25      1.0000 0.65280  0.15880  0.46730  Biso   1.000  C
  C26      1.0000 0.63180  0.19950  0.39740  Biso   1.000  C
  F31      1.0000 0.53490  0.27930  0.38980  Biso   1.000  F
  F32      1.0000 0.70740  0.23970  0.36600  Biso   1.000  F
  F33      1.0000 0.62540  0.12260  0.36380  Biso   1.000  F
  Ag17     1.0000 0.08140  0.56710  0.69362  Biso   1.000  Ag
  Ag18     1.0000 0.85145  0.67191  0.73796  Biso   1.000  Ag
  Ag19     1.0000 0.19813  0.33905  0.73523  Biso   1.000  Ag
  Ag20     1.0000 0.79331  0.47346  0.74302  Biso   1.000  Ag
  Ag21     1.0000 0.88073  0.52222  0.86057  Biso   1.000  Ag
  Ag22     1.0000 0.09074  0.34374  0.86188  Biso   1.000  Ag
  Ag23     1.0000 0.00931  0.26298  0.75645  Biso   1.000  Ag
  Ag24     1.0000 0.20899  0.02675  0.25902  Biso   1.000  Ag
  Ag25     1.0000 0.40409  0.09996  0.27285  Biso   1.000  Ag
  Ag26     1.0000 0.24926  0.78097  0.27156  Biso   1.000  Ag
  Ag27     1.0000 0.56511  0.90371  0.25649  Biso   1.000  Ag
  Ag28     1.0000 0.41893  0.96563  0.39969  Biso   1.000  Ag
  Ag29     1.0000 0.30485  0.80628  0.39843  Biso   1.000  Ag
  Ag30     1.0000 0.48784  0.70856  0.28870  Biso   1.000  Ag
  Ag31     1.0000 0.73676  0.62092  0.00554  Biso   1.000  Ag
  Ag32     1.0000 0.18363  0.68431  0.54266  Biso   1.000  Ag
  C27      1.0000 0.94840  0.50210  0.75780  Biso   1.000  C
  C28      1.0000 0.02920  0.42360  0.76610  Biso   1.000  C
  C29      1.0000 0.35250  0.86600  0.30030  Biso   1.000  C
  C30      1.0000 0.39720  0.93250  0.30130  Biso   1.000  C
  O23      1.0000 0.12530  0.69720  0.33440  Biso   1.000  O
  O24      1.0000 0.17520  0.71280  0.43120  Biso   1.000  O
  O25      1.0000 0.04090  0.32850  0.96820  Biso   1.000  O
  O26      1.0000 0.89320  0.47540  0.96940  Biso   1.000  O
  O27      1.0000 0.77410  0.80810  0.80630  Biso   1.000  O
  O28      1.0000 0.76460  0.69380  0.89280  Biso   1.000  O
  O29      1.0000 0.68400  0.75690  0.67080  Biso   1.000  O
  O30      1.0000 0.63600  0.85220  0.57430  Biso   1.000  O
  O31      1.0000 0.49890  0.14640  0.18410  Biso   1.000  O
  O32      1.0000 0.63770  0.99180  0.17210  Biso   1.000  O
  O33      1.0000 0.22360  0.51730  0.61040  Biso   1.000  O
  O34      1.0000 0.66770  0.64030  0.34090  Biso   1.000  O
  O35      1.0000 0.54220  0.54010  0.25750  Biso   1.000  O
  O36      1.0000 0.36310  0.55180  0.27210  Biso   1.000  O
  O37      1.0000 0.04070  0.72550  0.62310  Biso   1.000  O
  O38      1.0000 0.88640  0.82250  0.67560  Biso   1.000  O
  O39      1.0000 0.64610  0.73100  0.20070  Biso   1.000  O
  O40      1.0000 0.72590  0.66710  0.10950  Biso   1.000  O
  O41      1.0000 0.08290  0.09090  0.74030  Biso   1.000  O
  O42      1.0000 0.92830  0.04670  0.75150  Biso   1.000  O
  O43      1.0000 0.38460  0.91310  0.51050  Biso   1.000  O
  O44      1.0000 0.30770  0.78400  0.50660  Biso   1.000  O
  C31      1.0000 0.11680  0.69220  0.39400  Biso   1.000  C
  C32      1.0000 0.01990  0.66020  0.42550  Biso   1.000  C
  F34      1.0000 0.93290  0.74810  0.43500  Biso   1.000  F
  F35      1.0000 0.03770  0.60270  0.48360  Biso   1.000  F
  F36      1.0000 0.98260  0.60120  0.39220  Biso   1.000  F
  C33      1.0000 0.95810  0.38960  0.98930  Biso   1.000  C
  C34      1.0000 0.92820  0.35720  0.05840  Biso   1.000  C
  F37      1.0000 0.00410  0.27760  0.09110  Biso   1.000  F
  F38      1.0000 0.90050  0.43270  0.09890  Biso   1.000  F
  F39      1.0000 0.84190  0.32190  0.06780  Biso   1.000  F
  C35      1.0000 0.75590  0.78110  0.86350  Biso   1.000  C
  C36      1.0000 0.71880  0.87560  0.90300  Biso   1.000  C
  F40      1.0000 0.79840  0.90520  0.92300  Biso   1.000  F
  F41      1.0000 0.65390  0.96950  0.87490  Biso   1.000  F
  F42      1.0000 0.66200  0.85860  0.95750  Biso   1.000  F
  C37      1.0000 0.67790  0.76950  0.61140  Biso   1.000  C
  C38      1.0000 0.74600  0.67000  0.57990  Biso   1.000  C
  F43      1.0000 0.73710  0.67810  0.51640  Biso   1.000  F
  F44      1.0000 0.85450  0.63760  0.58780  Biso   1.000  F
  F45      1.0000 0.71780  0.58170  0.60210  Biso   1.000  F
  C39      1.0000 0.58030  0.08580  0.16020  Biso   1.000  C
  C40      1.0000 0.61610  0.13750  0.09690  Biso   1.000  C
  F46      1.0000 0.70630  0.16400  0.09990  Biso   1.000  F
  F47      1.0000 0.55000  0.23040  0.06800  Biso   1.000  F
  F48      1.0000 0.64300  0.07730  0.04800  Biso   1.000  F
  C41      1.0000 0.30980  0.44070  0.61610  Biso   1.000  C
  C42      1.0000 0.40350  0.43910  0.56660  Biso   1.000  C
  F49      1.0000 0.45770  0.33970  0.54990  Biso   1.000  F
  F50      1.0000 0.47890  0.47190  0.58960  Biso   1.000  F
  F51      1.0000 0.37250  0.50300  0.51180  Biso   1.000  F
  C43      1.0000 0.45940  0.51050  0.25320  Biso   1.000  C
  C44      1.0000 0.48870  0.40980  0.21910  Biso   1.000  C
  F52      1.0000 0.40530  0.37500  0.21140  Biso   1.000  F
  F53      1.0000 0.56470  0.32280  0.24680  Biso   1.000  F
  F54      1.0000 0.53270  0.42140  0.15930  Biso   1.000  F
  C45      1.0000 0.96390  0.80720  0.63170  Biso   1.000  C
  C46      1.0000 0.94940  0.90740  0.58400  Biso   1.000  C
  F55      1.0000 0.86620  0.92720  0.54570  Biso   1.000  F
  F56      1.0000 0.92910  0.00240  0.60670  Biso   1.000  F
  F57      1.0000 0.03610  0.90030  0.54270  Biso   1.000  F
  C47      1.0000 0.64870  0.71270  0.14610  Biso   1.000  C
  C48      1.0000 0.54080  0.74830  0.11390  Biso   1.000  C
  F58      1.0000 0.44990  0.78800  0.15070  Biso   1.000  F
  F59      1.0000 0.52710  0.82700  0.06460  Biso   1.000  F
  F60      1.0000 0.51460  0.67390  0.08750  Biso   1.000  F
  C49      1.0000 0.02570  0.02900  0.74910  Biso   1.000  C
  C50      1.0000 0.09580  0.91480  0.77160  Biso   1.000  C
  F61      1.0000 0.07250  0.84690  0.73810  Biso   1.000  F
  F62      1.0000 0.20550  0.88380  0.76430  Biso   1.000  F
  F63      1.0000 0.07900  0.87700  0.83260  Biso   1.000  F
  C51      1.0000 0.34720  0.84120  0.53270  Biso   1.000  C
  C52      1.0000 0.36820  0.80050  0.60260  Biso   1.000  C
  F64      1.0000 0.46510  0.72070  0.61020  Biso   1.000  F
  F65      1.0000 0.29260  0.76030  0.63400  Biso   1.000  F
  F66      1.0000 0.37460  0.87740  0.63620  Biso   1.000  F
