data_image0
_cell_length_a       21.148
_cell_length_b       9.2771
_cell_length_c       17.264
_cell_angle_alpha    90
_cell_angle_beta     106.404
_cell_angle_gamma    90

_symmetry_space_group_name_H-M    "P 1"
_symmetry_int_tables_number       1

loop_
  _symmetry_equiv_pos_as_xyz
  'x, y, z'

loop_
  _atom_site_label
  _atom_site_occupancy
  _atom_site_fract_x
  _atom_site_fract_y
  _atom_site_fract_z
  _atom_site_thermal_displace_type
  _atom_site_B_iso_or_equiv
  _atom_site_type_symbol
  Nd1      1.0000 0.98629  0.68394  0.42683  Biso   1.000  Nd
  N1       1.0000 0.72266  0.45380  0.56876  Biso   1.000  N
  N2       1.0000 0.86587  0.84530  0.78122  Biso   1.000  N
  C1       1.0000 0.91870  0.86700  0.67690  Biso   1.000  C
  H1       1.0000 0.93400  0.92680  0.64290  Biso   1.000  H
  C2       1.0000 0.92481  0.72000  0.67308  Biso   1.000  C
  C3       1.0000 0.89921  0.63620  0.72260  Biso   1.000  C
  H2       1.0000 0.90190  0.53630  0.72100  Biso   1.000  H
  C4       1.0000 0.86946  0.70260  0.77460  Biso   1.000  C
  H3       1.0000 0.85100  0.64510  0.80670  Biso   1.000  H
  C5       1.0000 0.88960  0.92430  0.73190  Biso   1.000  C
  H4       1.0000 0.88650  0.02410  0.73470  Biso   1.000  H
  C6       1.0000 0.77606  0.37100  0.58360  Biso   1.000  C
  H5       1.0000 0.78190  0.30030  0.62310  Biso   1.000  H
  C7       1.0000 0.71400  0.54860  0.50930  Biso   1.000  C
  H6       1.0000 0.67540  0.60280  0.49540  Biso   1.000  H
  C8       1.0000 0.75993  0.57030  0.46700  Biso   1.000  C
  H7       1.0000 0.75250  0.63940  0.42640  Biso   1.000  H
  C9       1.0000 0.82301  0.38520  0.54300  Biso   1.000  C
  H8       1.0000 0.85930  0.32380  0.55480  Biso   1.000  H
  C10      1.0000 0.03775  0.74380  0.26829  Biso   1.000  C
  C11      1.0000 0.96370  0.01600  0.47647  Biso   1.000  C
  Cu1      1.0000 0.66642  0.44600  0.64030  Biso   1.000  Cu
  Cu2      1.0000 0.83950  0.10040  0.37620  Biso   1.000  Cu
  O1       1.0000 0.05847  0.76520  0.34269  Biso   1.000  O
  O2       1.0000 0.93545  0.92830  0.42293  Biso   1.000  O
  O3       1.0000 0.07140  0.72640  0.21968  Biso   1.000  O
  O4       1.0000 0.93876  0.12810  0.49559  Biso   1.000  O
  C12      1.0000 0.81652  0.48910  0.48538  Biso   1.000  C
  C13      1.0000 0.87218  0.52170  0.44922  Biso   1.000  C
  O5       1.0000 0.86559  0.62370  0.40065  Biso   1.000  O
  O6       1.0000 0.92493  0.45020  0.47276  Biso   1.000  O
  C14      1.0000 0.95934  0.65110  0.61714  Biso   1.000  C
  O7       1.0000 0.96137  0.72270  0.55645  Biso   1.000  O
  O8       1.0000 0.98236  0.52740  0.63561  Biso   1.000  O
  Nd2      1.0000 0.48629  0.18394  0.42683  Biso   1.000  Nd
  N3       1.0000 0.22266  0.95380  0.56876  Biso   1.000  N
  N4       1.0000 0.36587  0.34530  0.78122  Biso   1.000  N
  C15      1.0000 0.41870  0.36700  0.67690  Biso   1.000  C
  H9       1.0000 0.43400  0.42680  0.64290  Biso   1.000  H
  C16      1.0000 0.42481  0.22000  0.67308  Biso   1.000  C
  C17      1.0000 0.39921  0.13620  0.72260  Biso   1.000  C
  H10      1.0000 0.40190  0.03630  0.72100  Biso   1.000  H
  C18      1.0000 0.36946  0.20260  0.77460  Biso   1.000  C
  H11      1.0000 0.35100  0.14510  0.80670  Biso   1.000  H
  C19      1.0000 0.38960  0.42430  0.73190  Biso   1.000  C
  H12      1.0000 0.38650  0.52410  0.73470  Biso   1.000  H
  C20      1.0000 0.27606  0.87100  0.58360  Biso   1.000  C
  H13      1.0000 0.28190  0.80030  0.62310  Biso   1.000  H
  C21      1.0000 0.21400  0.04860  0.50930  Biso   1.000  C
  H14      1.0000 0.17540  0.10280  0.49540  Biso   1.000  H
  C22      1.0000 0.25993  0.07030  0.46700  Biso   1.000  C
  H15      1.0000 0.25250  0.13940  0.42640  Biso   1.000  H
  C23      1.0000 0.32301  0.88520  0.54300  Biso   1.000  C
  H16      1.0000 0.35930  0.82380  0.55480  Biso   1.000  H
  C24      1.0000 0.53775  0.24380  0.26829  Biso   1.000  C
  C25      1.0000 0.46370  0.51600  0.47647  Biso   1.000  C
  Cu3      1.0000 0.16642  0.94600  0.64030  Biso   1.000  Cu
  Cu4      1.0000 0.33950  0.60040  0.37620  Biso   1.000  Cu
  O9       1.0000 0.55847  0.26520  0.34269  Biso   1.000  O
  O10      1.0000 0.43545  0.42830  0.42293  Biso   1.000  O
  O11      1.0000 0.57140  0.22640  0.21968  Biso   1.000  O
  O12      1.0000 0.43876  0.62810  0.49559  Biso   1.000  O
  C26      1.0000 0.31652  0.98910  0.48538  Biso   1.000  C
  C27      1.0000 0.37218  0.02170  0.44922  Biso   1.000  C
  O13      1.0000 0.36559  0.12370  0.40065  Biso   1.000  O
  O14      1.0000 0.42493  0.95020  0.47276  Biso   1.000  O
  C28      1.0000 0.45934  0.15110  0.61714  Biso   1.000  C
  O15      1.0000 0.46137  0.22270  0.55645  Biso   1.000  O
  O16      1.0000 0.48236  0.02740  0.63561  Biso   1.000  O
  Nd3      1.0000 0.01371  0.68394  0.07317  Biso   1.000  Nd
  N5       1.0000 0.27734  0.45380  0.93124  Biso   1.000  N
  N6       1.0000 0.13413  0.84530  0.71878  Biso   1.000  N
  C29      1.0000 0.08130  0.86700  0.82310  Biso   1.000  C
  H17      1.0000 0.06600  0.92680  0.85710  Biso   1.000  H
  C30      1.0000 0.07519  0.72000  0.82692  Biso   1.000  C
  C31      1.0000 0.10079  0.63620  0.77740  Biso   1.000  C
  H18      1.0000 0.09810  0.53630  0.77900  Biso   1.000  H
  C32      1.0000 0.13054  0.70260  0.72540  Biso   1.000  C
  H19      1.0000 0.14900  0.64510  0.69330  Biso   1.000  H
  C33      1.0000 0.11040  0.92430  0.76810  Biso   1.000  C
  H20      1.0000 0.11350  0.02410  0.76530  Biso   1.000  H
  C34      1.0000 0.22394  0.37100  0.91640  Biso   1.000  C
  H21      1.0000 0.21810  0.30030  0.87690  Biso   1.000  H
  C35      1.0000 0.28600  0.54860  0.99070  Biso   1.000  C
  H22      1.0000 0.32460  0.60280  0.00460  Biso   1.000  H
  C36      1.0000 0.24007  0.57030  0.03300  Biso   1.000  C
  H23      1.0000 0.24750  0.63940  0.07360  Biso   1.000  H
  C37      1.0000 0.17699  0.38520  0.95700  Biso   1.000  C
  H24      1.0000 0.14070  0.32380  0.94520  Biso   1.000  H
  C38      1.0000 0.96225  0.74380  0.23171  Biso   1.000  C
  C39      1.0000 0.03630  0.01600  0.02353  Biso   1.000  C
  Cu5      1.0000 0.33358  0.44600  0.85970  Biso   1.000  Cu
  Cu6      1.0000 0.16050  0.10040  0.12380  Biso   1.000  Cu
  O17      1.0000 0.94153  0.76520  0.15731  Biso   1.000  O
  O18      1.0000 0.06455  0.92830  0.07707  Biso   1.000  O
  O19      1.0000 0.92860  0.72640  0.28032  Biso   1.000  O
  O20      1.0000 0.06124  0.12810  0.00441  Biso   1.000  O
  C40      1.0000 0.18348  0.48910  0.01462  Biso   1.000  C
  C41      1.0000 0.12782  0.52170  0.05078  Biso   1.000  C
  O21      1.0000 0.13441  0.62370  0.09935  Biso   1.000  O
  O22      1.0000 0.07507  0.45020  0.02724  Biso   1.000  O
  C42      1.0000 0.04066  0.65110  0.88286  Biso   1.000  C
  O23      1.0000 0.03863  0.72270  0.94355  Biso   1.000  O
  O24      1.0000 0.01764  0.52740  0.86439  Biso   1.000  O
  Nd4      1.0000 0.51371  0.18394  0.07317  Biso   1.000  Nd
  N7       1.0000 0.77734  0.95380  0.93124  Biso   1.000  N
  N8       1.0000 0.63413  0.34530  0.71878  Biso   1.000  N
  C43      1.0000 0.58130  0.36700  0.82310  Biso   1.000  C
  H25      1.0000 0.56600  0.42680  0.85710  Biso   1.000  H
  C44      1.0000 0.57519  0.22000  0.82692  Biso   1.000  C
  C45      1.0000 0.60079  0.13620  0.77740  Biso   1.000  C
  H26      1.0000 0.59810  0.03630  0.77900  Biso   1.000  H
  C46      1.0000 0.63054  0.20260  0.72540  Biso   1.000  C
  H27      1.0000 0.64900  0.14510  0.69330  Biso   1.000  H
  C47      1.0000 0.61040  0.42430  0.76810  Biso   1.000  C
  H28      1.0000 0.61350  0.52410  0.76530  Biso   1.000  H
  C48      1.0000 0.72394  0.87100  0.91640  Biso   1.000  C
  H29      1.0000 0.71810  0.80030  0.87690  Biso   1.000  H
  C49      1.0000 0.78600  0.04860  0.99070  Biso   1.000  C
  H30      1.0000 0.82460  0.10280  0.00460  Biso   1.000  H
  C50      1.0000 0.74007  0.07030  0.03300  Biso   1.000  C
  H31      1.0000 0.74750  0.13940  0.07360  Biso   1.000  H
  C51      1.0000 0.67699  0.88520  0.95700  Biso   1.000  C
  H32      1.0000 0.64070  0.82380  0.94520  Biso   1.000  H
  C52      1.0000 0.46225  0.24380  0.23171  Biso   1.000  C
  C53      1.0000 0.53630  0.51600  0.02353  Biso   1.000  C
  Cu7      1.0000 0.83358  0.94600  0.85970  Biso   1.000  Cu
  Cu8      1.0000 0.66050  0.60040  0.12380  Biso   1.000  Cu
  O25      1.0000 0.44153  0.26520  0.15731  Biso   1.000  O
  O26      1.0000 0.56455  0.42830  0.07707  Biso   1.000  O
  O27      1.0000 0.42860  0.22640  0.28032  Biso   1.000  O
  O28      1.0000 0.56124  0.62810  0.00441  Biso   1.000  O
  C54      1.0000 0.68348  0.98910  0.01462  Biso   1.000  C
  C55      1.0000 0.62782  0.02170  0.05078  Biso   1.000  C
  O29      1.0000 0.63441  0.12370  0.09935  Biso   1.000  O
  O30      1.0000 0.57507  0.95020  0.02724  Biso   1.000  O
  C56      1.0000 0.54066  0.15110  0.88286  Biso   1.000  C
  O31      1.0000 0.53863  0.22270  0.94355  Biso   1.000  O
  O32      1.0000 0.51764  0.02740  0.86439  Biso   1.000  O
  Nd5      1.0000 0.01371  0.31606  0.57317  Biso   1.000  Nd
  N9       1.0000 0.27734  0.54620  0.43124  Biso   1.000  N
  N10      1.0000 0.13413  0.15470  0.21878  Biso   1.000  N
  C57      1.0000 0.08130  0.13300  0.32310  Biso   1.000  C
  H33      1.0000 0.06600  0.07320  0.35710  Biso   1.000  H
  C58      1.0000 0.07519  0.28000  0.32692  Biso   1.000  C
  C59      1.0000 0.10079  0.36380  0.27740  Biso   1.000  C
  H34      1.0000 0.09810  0.46370  0.27900  Biso   1.000  H
  C60      1.0000 0.13054  0.29740  0.22540  Biso   1.000  C
  H35      1.0000 0.14900  0.35490  0.19330  Biso   1.000  H
  C61      1.0000 0.11040  0.07570  0.26810  Biso   1.000  C
  H36      1.0000 0.11350  0.97590  0.26530  Biso   1.000  H
  C62      1.0000 0.22394  0.62900  0.41640  Biso   1.000  C
  H37      1.0000 0.21810  0.69970  0.37690  Biso   1.000  H
  C63      1.0000 0.28600  0.45140  0.49070  Biso   1.000  C
  H38      1.0000 0.32460  0.39720  0.50460  Biso   1.000  H
  C64      1.0000 0.24007  0.42970  0.53300  Biso   1.000  C
  H39      1.0000 0.24750  0.36060  0.57360  Biso   1.000  H
  C65      1.0000 0.17699  0.61480  0.45700  Biso   1.000  C
  H40      1.0000 0.14070  0.67620  0.44520  Biso   1.000  H
  C66      1.0000 0.96225  0.25620  0.73171  Biso   1.000  C
  C67      1.0000 0.03630  0.98400  0.52353  Biso   1.000  C
  Cu9      1.0000 0.33358  0.55400  0.35970  Biso   1.000  Cu
  Cu10     1.0000 0.16050  0.89960  0.62380  Biso   1.000  Cu
  O33      1.0000 0.94153  0.23480  0.65731  Biso   1.000  O
  O34      1.0000 0.06455  0.07170  0.57707  Biso   1.000  O
  O35      1.0000 0.92860  0.27360  0.78032  Biso   1.000  O
  O36      1.0000 0.06124  0.87190  0.50441  Biso   1.000  O
  C68      1.0000 0.18348  0.51090  0.51462  Biso   1.000  C
  C69      1.0000 0.12782  0.47830  0.55078  Biso   1.000  C
  O37      1.0000 0.13441  0.37630  0.59935  Biso   1.000  O
  O38      1.0000 0.07507  0.54980  0.52724  Biso   1.000  O
  C70      1.0000 0.04066  0.34890  0.38286  Biso   1.000  C
  O39      1.0000 0.03863  0.27730  0.44355  Biso   1.000  O
  O40      1.0000 0.01764  0.47260  0.36439  Biso   1.000  O
  Nd6      1.0000 0.51371  0.81606  0.57317  Biso   1.000  Nd
  N11      1.0000 0.77734  0.04620  0.43124  Biso   1.000  N
  N12      1.0000 0.63413  0.65470  0.21878  Biso   1.000  N
  C71      1.0000 0.58130  0.63300  0.32310  Biso   1.000  C
  H41      1.0000 0.56600  0.57320  0.35710  Biso   1.000  H
  C72      1.0000 0.57519  0.78000  0.32692  Biso   1.000  C
  C73      1.0000 0.60079  0.86380  0.27740  Biso   1.000  C
  H42      1.0000 0.59810  0.96370  0.27900  Biso   1.000  H
  C74      1.0000 0.63054  0.79740  0.22540  Biso   1.000  C
  H43      1.0000 0.64900  0.85490  0.19330  Biso   1.000  H
  C75      1.0000 0.61040  0.57570  0.26810  Biso   1.000  C
  H44      1.0000 0.61350  0.47590  0.26530  Biso   1.000  H
  C76      1.0000 0.72394  0.12900  0.41640  Biso   1.000  C
  H45      1.0000 0.71810  0.19970  0.37690  Biso   1.000  H
  C77      1.0000 0.78600  0.95140  0.49070  Biso   1.000  C
  H46      1.0000 0.82460  0.89720  0.50460  Biso   1.000  H
  C78      1.0000 0.74007  0.92970  0.53300  Biso   1.000  C
  H47      1.0000 0.74750  0.86060  0.57360  Biso   1.000  H
  C79      1.0000 0.67699  0.11480  0.45700  Biso   1.000  C
  H48      1.0000 0.64070  0.17620  0.44520  Biso   1.000  H
  C80      1.0000 0.46225  0.75620  0.73171  Biso   1.000  C
  C81      1.0000 0.53630  0.48400  0.52353  Biso   1.000  C
  Cu11     1.0000 0.83358  0.05400  0.35970  Biso   1.000  Cu
  Cu12     1.0000 0.66050  0.39960  0.62380  Biso   1.000  Cu
  O41      1.0000 0.44153  0.73480  0.65731  Biso   1.000  O
  O42      1.0000 0.56455  0.57170  0.57707  Biso   1.000  O
  O43      1.0000 0.42860  0.77360  0.78032  Biso   1.000  O
  O44      1.0000 0.56124  0.37190  0.50441  Biso   1.000  O
  C82      1.0000 0.68348  0.01090  0.51462  Biso   1.000  C
  C83      1.0000 0.62782  0.97830  0.55078  Biso   1.000  C
  O45      1.0000 0.63441  0.87630  0.59935  Biso   1.000  O
  O46      1.0000 0.57507  0.04980  0.52724  Biso   1.000  O
  C84      1.0000 0.54066  0.84890  0.38286  Biso   1.000  C
  O47      1.0000 0.53863  0.77730  0.44355  Biso   1.000  O
  O48      1.0000 0.51764  0.97260  0.36439  Biso   1.000  O
  Nd7      1.0000 0.98629  0.31606  0.92683  Biso   1.000  Nd
  N13      1.0000 0.72266  0.54620  0.06876  Biso   1.000  N
  N14      1.0000 0.86587  0.15470  0.28122  Biso   1.000  N
  C85      1.0000 0.91870  0.13300  0.17690  Biso   1.000  C
  H49      1.0000 0.93400  0.07320  0.14290  Biso   1.000  H
  C86      1.0000 0.92481  0.28000  0.17308  Biso   1.000  C
  C87      1.0000 0.89921  0.36380  0.22260  Biso   1.000  C
  H50      1.0000 0.90190  0.46370  0.22100  Biso   1.000  H
  C88      1.0000 0.86946  0.29740  0.27460  Biso   1.000  C
  H51      1.0000 0.85100  0.35490  0.30670  Biso   1.000  H
  C89      1.0000 0.88960  0.07570  0.23190  Biso   1.000  C
  H52      1.0000 0.88650  0.97590  0.23470  Biso   1.000  H
  C90      1.0000 0.77606  0.62900  0.08360  Biso   1.000  C
  H53      1.0000 0.78190  0.69970  0.12310  Biso   1.000  H
  C91      1.0000 0.71400  0.45140  0.00930  Biso   1.000  C
  H54      1.0000 0.67540  0.39720  0.99540  Biso   1.000  H
  C92      1.0000 0.75993  0.42970  0.96700  Biso   1.000  C
  H55      1.0000 0.75250  0.36060  0.92640  Biso   1.000  H
  C93      1.0000 0.82301  0.61480  0.04300  Biso   1.000  C
  H56      1.0000 0.85930  0.67620  0.05480  Biso   1.000  H
  C94      1.0000 0.03775  0.25620  0.76829  Biso   1.000  C
  C95      1.0000 0.96370  0.98400  0.97647  Biso   1.000  C
  Cu13     1.0000 0.66642  0.55400  0.14030  Biso   1.000  Cu
  Cu14     1.0000 0.83950  0.89960  0.87620  Biso   1.000  Cu
  O49      1.0000 0.05847  0.23480  0.84269  Biso   1.000  O
  O50      1.0000 0.93545  0.07170  0.92293  Biso   1.000  O
  O51      1.0000 0.07140  0.27360  0.71968  Biso   1.000  O
  O52      1.0000 0.93876  0.87190  0.99559  Biso   1.000  O
  C96      1.0000 0.81652  0.51090  0.98538  Biso   1.000  C
  C97      1.0000 0.87218  0.47830  0.94922  Biso   1.000  C
  O53      1.0000 0.86559  0.37630  0.90065  Biso   1.000  O
  O54      1.0000 0.92493  0.54980  0.97276  Biso   1.000  O
  C98      1.0000 0.95934  0.34890  0.11714  Biso   1.000  C
  O55      1.0000 0.96137  0.27730  0.05645  Biso   1.000  O
  O56      1.0000 0.98236  0.47260  0.13561  Biso   1.000  O
  Nd8      1.0000 0.48629  0.81606  0.92683  Biso   1.000  Nd
  N15      1.0000 0.22266  0.04620  0.06876  Biso   1.000  N
  N16      1.0000 0.36587  0.65470  0.28122  Biso   1.000  N
  C99      1.0000 0.41870  0.63300  0.17690  Biso   1.000  C
  H57      1.0000 0.43400  0.57320  0.14290  Biso   1.000  H
  C100     1.0000 0.42481  0.78000  0.17308  Biso   1.000  C
  C101     1.0000 0.39921  0.86380  0.22260  Biso   1.000  C
  H58      1.0000 0.40190  0.96370  0.22100  Biso   1.000  H
  C102     1.0000 0.36946  0.79740  0.27460  Biso   1.000  C
  H59      1.0000 0.35100  0.85490  0.30670  Biso   1.000  H
  C103     1.0000 0.38960  0.57570  0.23190  Biso   1.000  C
  H60      1.0000 0.38650  0.47590  0.23470  Biso   1.000  H
  C104     1.0000 0.27606  0.12900  0.08360  Biso   1.000  C
  H61      1.0000 0.28190  0.19970  0.12310  Biso   1.000  H
  C105     1.0000 0.21400  0.95140  0.00930  Biso   1.000  C
  H62      1.0000 0.17540  0.89720  0.99540  Biso   1.000  H
  C106     1.0000 0.25993  0.92970  0.96700  Biso   1.000  C
  H63      1.0000 0.25250  0.86060  0.92640  Biso   1.000  H
  C107     1.0000 0.32301  0.11480  0.04300  Biso   1.000  C
  H64      1.0000 0.35930  0.17620  0.05480  Biso   1.000  H
  C108     1.0000 0.53775  0.75620  0.76829  Biso   1.000  C
  C109     1.0000 0.46370  0.48400  0.97647  Biso   1.000  C
  Cu15     1.0000 0.16642  0.05400  0.14030  Biso   1.000  Cu
  Cu16     1.0000 0.33950  0.39960  0.87620  Biso   1.000  Cu
  O57      1.0000 0.55847  0.73480  0.84269  Biso   1.000  O
  O58      1.0000 0.43545  0.57170  0.92293  Biso   1.000  O
  O59      1.0000 0.57140  0.77360  0.71968  Biso   1.000  O
  O60      1.0000 0.43876  0.37190  0.99559  Biso   1.000  O
  C110     1.0000 0.31652  0.01090  0.98538  Biso   1.000  C
  C111     1.0000 0.37218  0.97830  0.94922  Biso   1.000  C
  O61      1.0000 0.36559  0.87630  0.90065  Biso   1.000  O
  O62      1.0000 0.42493  0.04980  0.97276  Biso   1.000  O
  C112     1.0000 0.45934  0.84890  0.11714  Biso   1.000  C
  O63      1.0000 0.46137  0.77730  0.05645  Biso   1.000  O
  O64      1.0000 0.48236  0.97260  0.13561  Biso   1.000  O
