data_image0
_cell_length_a       18.0973
_cell_length_b       27.9178
_cell_length_c       28.458
_cell_angle_alpha    61.682
_cell_angle_beta     85.23
_cell_angle_gamma    69.214

_symmetry_space_group_name_H-M    "P 1"
_symmetry_int_tables_number       1

loop_
  _symmetry_equiv_pos_as_xyz
  'x, y, z'

loop_
  _atom_site_label
  _atom_site_occupancy
  _atom_site_fract_x
  _atom_site_fract_y
  _atom_site_fract_z
  _atom_site_thermal_displace_type
  _atom_site_B_iso_or_equiv
  _atom_site_type_symbol
  Sb1      1.0000 0.66976  0.29691  0.00279  Biso   1.000  Sb
  Sb2      1.0000 0.68038  0.28720  0.13497  Biso   1.000  Sb
  Sb3      1.0000 0.59422  0.19794  0.24432  Biso   1.000  Sb
  Sb4      1.0000 0.49484  0.11727  0.22198  Biso   1.000  Sb
  Sb5      1.0000 0.48458  0.12464  0.09264  Biso   1.000  Sb
  Sb6      1.0000 0.56909  0.21412  0.98032  Biso   1.000  Sb
  Sb7      1.0000 0.55663  0.42025  0.02129  Biso   1.000  Sb
  Sb8      1.0000 0.37964  0.24146  0.24076  Biso   1.000  Sb
  Sb9      1.0000 0.35485  0.25657  0.98069  Biso   1.000  Sb
  Sb10     1.0000 0.33820  0.46508  0.01688  Biso   1.000  Sb
  Sb11     1.0000 0.25267  0.37534  0.12780  Biso   1.000  Sb
  Sb12     1.0000 0.24014  0.38307  0.99795  Biso   1.000  Sb
  Cl1      1.0000 0.35696  0.11303  0.16817  Biso   1.000  Cl
  O1       1.0000 0.58560  0.26530  0.00570  Biso   1.000  O
  O2       1.0000 0.67120  0.26130  0.08150  Biso   1.000  O
  O3       1.0000 0.59780  0.25380  0.16800  Biso   1.000  O
  O4       1.0000 0.57770  0.15130  0.21350  Biso   1.000  O
  O5       1.0000 0.49640  0.15230  0.14290  Biso   1.000  O
  O6       1.0000 0.56290  0.16310  0.05630  Biso   1.000  O
  O7       1.0000 0.57570  0.36580  0.99200  Biso   1.000  O
  O8       1.0000 0.58570  0.36110  0.09810  Biso   1.000  O
  O9       1.0000 0.48260  0.25410  0.22910  Biso   1.000  O
  O10      1.0000 0.40550  0.19170  0.20500  Biso   1.000  O
  O11      1.0000 0.39260  0.19850  0.05740  Biso   1.000  O
  O12      1.0000 0.45700  0.26970  0.96460  Biso   1.000  O
  O13      1.0000 0.45180  0.41010  0.03550  Biso   1.000  O
  O14      1.0000 0.35080  0.30570  0.16510  Biso   1.000  O
  O15      1.0000 0.33440  0.31430  0.00670  Biso   1.000  O
  O16      1.0000 0.32390  0.41670  0.98810  Biso   1.000  O
  O17      1.0000 0.33010  0.41340  0.09250  Biso   1.000  O
  O18      1.0000 0.25880  0.34440  0.07730  Biso   1.000  O
  Sb13     1.0000 0.07059  0.30556  0.53653  Biso   1.000  Sb
  Sb14     1.0000 0.87558  0.25464  0.73484  Biso   1.000  Sb
  Sb15     1.0000 0.73352  0.23833  0.66404  Biso   1.000  Sb
  Sb16     1.0000 0.75675  0.26000  0.52858  Biso   1.000  Sb
  Sb17     1.0000 0.94736  0.43377  0.41989  Biso   1.000  Sb
  Sb18     1.0000 0.77550  0.54352  0.44093  Biso   1.000  Sb
  Sb19     1.0000 0.88076  0.39835  0.68815  Biso   1.000  Sb
  Sb20     1.0000 0.74839  0.52692  0.57410  Biso   1.000  Sb
  Sb21     1.0000 0.60789  0.51109  0.50631  Biso   1.000  Sb
  Sb22     1.0000 0.92849  0.29440  0.46264  Biso   1.000  Sb
  Sb23     1.0000 0.59758  0.36395  0.55309  Biso   1.000  Sb
  Sb24     1.0000 0.04434  0.28946  0.66938  Biso   1.000  Sb
  Cl2      1.0000 0.82743  0.37068  0.56193  Biso   1.000  Cl
  Cl3      1.0000 0.92657  0.50180  0.61130  Biso   1.000  Cl
  Cl4      1.0000 0.12006  0.37220  0.58776  Biso   1.000  Cl
  O19      1.0000 0.98800  0.27820  0.52730  Biso   1.000  O
  O20      1.0000 0.00810  0.30850  0.59680  Biso   1.000  O
  O21      1.0000 0.96510  0.24920  0.69020  Biso   1.000  O
  O22      1.0000 0.81440  0.26850  0.67060  Biso   1.000  O
  O23      1.0000 0.79230  0.23850  0.60180  Biso   1.000  O
  O24      1.0000 0.83460  0.30060  0.50410  Biso   1.000  O
  O25      1.0000 0.68410  0.34080  0.51280  Biso   1.000  O
  O26      1.0000 0.88630  0.38170  0.43300  Biso   1.000  O
  O27      1.0000 0.86680  0.47060  0.45680  Biso   1.000  O
  O28      1.0000 0.63480  0.42490  0.54870  Biso   1.000  O
  O29      1.0000 0.70430  0.49700  0.46970  Biso   1.000  O
  O30      1.0000 0.00380  0.38810  0.49510  Biso   1.000  O
  O31      1.0000 0.96390  0.36900  0.64920  Biso   1.000  O
  O32      1.0000 0.81420  0.44210  0.61770  Biso   1.000  O
  O33      1.0000 0.81120  0.52030  0.51550  Biso   1.000  O
  O34      1.0000 0.83120  0.34040  0.70010  Biso   1.000  O
  O35      1.0000 0.66460  0.32080  0.62320  Biso   1.000  O
  O36      1.0000 0.66920  0.49370  0.57070  Biso   1.000  O
  O37      1.0000 0.74680  0.49990  0.37720  Biso   1.000  O
  O38      1.0000 0.85380  0.50510  0.33250  Biso   1.000  O
  O39      1.0000 0.63740  0.59840  0.10600  Biso   1.000  O
  O40      1.0000 0.71790  0.64370  0.10540  Biso   1.000  O
  C1       1.0000 0.77970  0.51880  0.33500  Biso   1.000  C
  C2       1.0000 0.73270  0.53770  0.28330  Biso   1.000  C
  C3       1.0000 0.66620  0.52860  0.27490  Biso   1.000  C
  H1       1.0000 0.64040  0.50760  0.30350  Biso   1.000  H
  C4       1.0000 0.63940  0.55280  0.22110  Biso   1.000  C
  H2       1.0000 0.59440  0.55050  0.20850  Biso   1.000  H
  C5       1.0000 0.68810  0.58030  0.18900  Biso   1.000  C
  C6       1.0000 0.68030  0.61020  0.12770  Biso   1.000  C
  S1       1.0000 0.76340  0.57760  0.22300  Biso   1.000  S
  Pr1      1.0000 0.93903  0.43384  0.55135  Biso   1.000  Pr
  Cl5      1.0000 0.46883  0.28184  0.08758  Biso   1.000  Cl
  Cl6      1.0000 0.74007  0.16052  0.04668  Biso   1.000  Cl
  Cl7      1.0000 0.75540  0.15378  0.19402  Biso   1.000  Cl
  Cl8      1.0000 0.20249  0.26298  0.05276  Biso   1.000  Cl
  Cl9      1.0000 0.21949  0.25441  0.18988  Biso   1.000  Cl
  Cl10     1.0000 0.44092  0.48112  0.91250  Biso   1.000  Cl
  Cl11     1.0000 0.90700  0.14280  0.70820  Biso   1.000  Cl
  Cl12     1.0000 0.56930  0.46741  0.43138  Biso   1.000  Cl
  Cl13     1.0000 0.68791  0.29548  0.74268  Biso   1.000  Cl
  S2       1.0000 0.74010  0.91808  0.27322  Biso   1.000  S
  O41      1.0000 0.67300  0.07990  0.16140  Biso   1.000  O
  O42      1.0000 0.60080  0.02440  0.20350  Biso   1.000  O
  O43      1.0000 0.94170  0.82370  0.36510  Biso   1.000  O
  O44      1.0000 0.85240  0.79750  0.34270  Biso   1.000  O
  C7       1.0000 0.66350  0.03410  0.19710  Biso   1.000  C
  C8       1.0000 0.73520  0.98830  0.23440  Biso   1.000  C
  C9       1.0000 0.80200  0.99510  0.24510  Biso   1.000  C
  H3       1.0000 0.81040  0.03110  0.22800  Biso   1.000  H
  C10      1.0000 0.85680  0.94280  0.28420  Biso   1.000  C
  H4       1.0000 0.90580  0.94010  0.29690  Biso   1.000  H
  C11      1.0000 0.83360  0.89730  0.30170  Biso   1.000  C
  C12      1.0000 0.87870  0.83490  0.33940  Biso   1.000  C
  O45      1.0000 0.37690  0.37950  0.20380  Biso   1.000  O
  O46      1.0000 0.28610  0.34260  0.24990  Biso   1.000  O
  O47      1.0000 0.29340  0.55860  0.31180  Biso   1.000  O
  O48      1.0000 0.40280  0.53840  0.27230  Biso   1.000  O
  S3       1.0000 0.36850  0.45873  0.24318  Biso   1.000  S
  C13      1.0000 0.32320  0.37740  0.23210  Biso   1.000  C
  C14      1.0000 0.30810  0.41980  0.25440  Biso   1.000  C
  C15      1.0000 0.24770  0.43200  0.28480  Biso   1.000  C
  H5       1.0000 0.20850  0.41460  0.29520  Biso   1.000  H
  C16      1.0000 0.25160  0.47330  0.29820  Biso   1.000  C
  H6       1.0000 0.21470  0.48720  0.31870  Biso   1.000  H
  C17      1.0000 0.31380  0.49190  0.27890  Biso   1.000  C
  C18      1.0000 0.33570  0.53580  0.28660  Biso   1.000  C
  S4       1.0000 0.71532  0.30544  0.31360  Biso   1.000  S
  O49      1.0000 0.54720  0.35280  0.20620  Biso   1.000  O
  O50      1.0000 0.66500  0.28360  0.23170  Biso   1.000  O
  O51      1.0000 0.80250  0.29910  0.40300  Biso   1.000  O
  O52      1.0000 0.72700  0.38610  0.39260  Biso   1.000  O
  C19      1.0000 0.61310  0.32570  0.23300  Biso   1.000  C
  C20      1.0000 0.63150  0.34660  0.26820  Biso   1.000  C
  C21      1.0000 0.59040  0.39630  0.27080  Biso   1.000  C
  H7       1.0000 0.54260  0.42480  0.24880  Biso   1.000  H
  C22      1.0000 0.62610  0.40150  0.30970  Biso   1.000  C
  H8       1.0000 0.60450  0.43350  0.31680  Biso   1.000  H
  C23      1.0000 0.69410  0.35620  0.33560  Biso   1.000  C
  C24      1.0000 0.74560  0.34510  0.38010  Biso   1.000  C
  S5       1.0000 0.10030  0.03299  0.58346  Biso   1.000  S
  O53      1.0000 0.94520  0.18340  0.56250  Biso   1.000  O
  O54      1.0000 0.97430  0.09150  0.62840  Biso   1.000  O
  O55      1.0000 0.24120  0.99100  0.48700  Biso   1.000  O
  O56      1.0000 0.23330  0.94100  0.57500  Biso   1.000  O
  C25      1.0000 0.98360  0.12930  0.58370  Biso   1.000  C
  C26      1.0000 0.04750  0.10670  0.55220  Biso   1.000  C
  C27      1.0000 0.07100  0.13440  0.50340  Biso   1.000  C
  H9       1.0000 0.04860  0.17520  0.48020  Biso   1.000  H
  C28      1.0000 0.13230  0.09560  0.49090  Biso   1.000  C
  H10      1.0000 0.15590  0.10750  0.45810  Biso   1.000  H
  C29      1.0000 0.15330  0.04160  0.52890  Biso   1.000  C
  C30      1.0000 0.21750  0.98670  0.53050  Biso   1.000  C
  Cl14     1.0000 0.55350  0.34800  0.89140  Biso   1.000  Cl
  Pr2      1.0000 0.62132  0.18149  0.12105  Biso   1.000  Pr
  Pr3      1.0000 0.33651  0.24077  0.11631  Biso   1.000  Pr
  Pr4      1.0000 0.45215  0.35783  0.97138  Biso   1.000  Pr
  Pr5      1.0000 0.46534  0.34888  0.14492  Biso   1.000  Pr
  Pr6      1.0000 0.92396  0.24355  0.61045  Biso   1.000  Pr
  Pr7      1.0000 0.74863  0.41157  0.45640  Biso   1.000  Pr
  Pr8      1.0000 0.71139  0.38783  0.63826  Biso   1.000  Pr
  O57      1.0000 0.92100  0.14870  0.68240  Biso   1.000  O
  S6       1.0000 0.78540  0.55550  0.22200  Biso   1.000  S
  O58      1.0000 0.74500  0.49400  0.37320  Biso   1.000  O
  O59      1.0000 0.84330  0.52320  0.33280  Biso   1.000  O
  O60      1.0000 0.62440  0.61350  0.10750  Biso   1.000  O
  O61      1.0000 0.75460  0.59680  0.10340  Biso   1.000  O
  C31      1.0000 0.78610  0.50670  0.33440  Biso   1.000  C
  C32      1.0000 0.73790  0.53810  0.27940  Biso   1.000  C
  C33      1.0000 0.66040  0.54070  0.27790  Biso   1.000  C
  H11      1.0000 0.62750  0.53230  0.30630  Biso   1.000  H
  C34      1.0000 0.64280  0.55880  0.22400  Biso   1.000  C
  H12      1.0000 0.59190  0.56430  0.21140  Biso   1.000  H
  C35      1.0000 0.69980  0.56880  0.18900  Biso   1.000  C
  C36      1.0000 0.69400  0.59480  0.12750  Biso   1.000  C
  Cl15     1.0000 0.92340  0.17230  0.55620  Biso   1.000  Cl
  Sb25     1.0000 0.33024  0.70309  0.99721  Biso   1.000  Sb
  Sb26     1.0000 0.31962  0.71280  0.86503  Biso   1.000  Sb
  Sb27     1.0000 0.40578  0.80206  0.75568  Biso   1.000  Sb
  Sb28     1.0000 0.50516  0.88273  0.77802  Biso   1.000  Sb
  Sb29     1.0000 0.51542  0.87536  0.90736  Biso   1.000  Sb
  Sb30     1.0000 0.43091  0.78588  0.01968  Biso   1.000  Sb
  Sb31     1.0000 0.44337  0.57975  0.97871  Biso   1.000  Sb
  Sb32     1.0000 0.62036  0.75854  0.75924  Biso   1.000  Sb
  Sb33     1.0000 0.64515  0.74343  0.01931  Biso   1.000  Sb
  Sb34     1.0000 0.66180  0.53492  0.98312  Biso   1.000  Sb
  Sb35     1.0000 0.74733  0.62466  0.87220  Biso   1.000  Sb
  Sb36     1.0000 0.75986  0.61693  0.00205  Biso   1.000  Sb
  Cl16     1.0000 0.64304  0.88697  0.83183  Biso   1.000  Cl
  O62      1.0000 0.41440  0.73470  0.99430  Biso   1.000  O
  O63      1.0000 0.32880  0.73870  0.91850  Biso   1.000  O
  O64      1.0000 0.40220  0.74620  0.83200  Biso   1.000  O
  O65      1.0000 0.42230  0.84870  0.78650  Biso   1.000  O
  O66      1.0000 0.50360  0.84770  0.85710  Biso   1.000  O
  O67      1.0000 0.43710  0.83690  0.94370  Biso   1.000  O
  O68      1.0000 0.42430  0.63420  0.00800  Biso   1.000  O
  O69      1.0000 0.41430  0.63890  0.90190  Biso   1.000  O
  O70      1.0000 0.51740  0.74590  0.77090  Biso   1.000  O
  O71      1.0000 0.59450  0.80830  0.79500  Biso   1.000  O
  O72      1.0000 0.60740  0.80150  0.94260  Biso   1.000  O
  O73      1.0000 0.54300  0.73030  0.03540  Biso   1.000  O
  O74      1.0000 0.54820  0.58990  0.96450  Biso   1.000  O
  O75      1.0000 0.64920  0.69430  0.83490  Biso   1.000  O
  O76      1.0000 0.66560  0.68570  0.99330  Biso   1.000  O
  O77      1.0000 0.67610  0.58330  0.01190  Biso   1.000  O
  O78      1.0000 0.66990  0.58660  0.90750  Biso   1.000  O
  O79      1.0000 0.74120  0.65560  0.92270  Biso   1.000  O
  Sb37     1.0000 0.92941  0.69444  0.46347  Biso   1.000  Sb
  Sb38     1.0000 0.12442  0.74536  0.26516  Biso   1.000  Sb
  Sb39     1.0000 0.26648  0.76167  0.33596  Biso   1.000  Sb
  Sb40     1.0000 0.24325  0.74000  0.47142  Biso   1.000  Sb
  Sb41     1.0000 0.05264  0.56623  0.58011  Biso   1.000  Sb
  Sb42     1.0000 0.22450  0.45648  0.55907  Biso   1.000  Sb
  Sb43     1.0000 0.11924  0.60165  0.31185  Biso   1.000  Sb
  Sb44     1.0000 0.25161  0.47308  0.42590  Biso   1.000  Sb
  Sb45     1.0000 0.39211  0.48891  0.49369  Biso   1.000  Sb
  Sb46     1.0000 0.07151  0.70560  0.53736  Biso   1.000  Sb
  Sb47     1.0000 0.40242  0.63605  0.44691  Biso   1.000  Sb
  Sb48     1.0000 0.95566  0.71054  0.33062  Biso   1.000  Sb
  Cl17     1.0000 0.17257  0.62932  0.43807  Biso   1.000  Cl
  Cl18     1.0000 0.07343  0.49820  0.38870  Biso   1.000  Cl
  Cl19     1.0000 0.87994  0.62780  0.41224  Biso   1.000  Cl
  O80      1.0000 0.01200  0.72180  0.47270  Biso   1.000  O
  O81      1.0000 0.99190  0.69150  0.40320  Biso   1.000  O
  O82      1.0000 0.03490  0.75080  0.30980  Biso   1.000  O
  O83      1.0000 0.18560  0.73150  0.32940  Biso   1.000  O
  O84      1.0000 0.20770  0.76150  0.39820  Biso   1.000  O
  O85      1.0000 0.16540  0.69940  0.49590  Biso   1.000  O
  O86      1.0000 0.31590  0.65920  0.48720  Biso   1.000  O
  O87      1.0000 0.11370  0.61830  0.56700  Biso   1.000  O
  O88      1.0000 0.13320  0.52940  0.54320  Biso   1.000  O
  O89      1.0000 0.36520  0.57510  0.45130  Biso   1.000  O
  O90      1.0000 0.29570  0.50300  0.53030  Biso   1.000  O
  O91      1.0000 0.99620  0.61190  0.50490  Biso   1.000  O
  O92      1.0000 0.03610  0.63100  0.35080  Biso   1.000  O
  O93      1.0000 0.18580  0.55790  0.38230  Biso   1.000  O
  O94      1.0000 0.18880  0.47970  0.48450  Biso   1.000  O
  O95      1.0000 0.16880  0.65960  0.29990  Biso   1.000  O
  O96      1.0000 0.33540  0.67920  0.37680  Biso   1.000  O
  O97      1.0000 0.33080  0.50630  0.42930  Biso   1.000  O
  O98      1.0000 0.25320  0.50010  0.62280  Biso   1.000  O
  O99      1.0000 0.14620  0.49490  0.66750  Biso   1.000  O
  O100     1.0000 0.36260  0.40160  0.89400  Biso   1.000  O
  O101     1.0000 0.28210  0.35630  0.89460  Biso   1.000  O
  C37      1.0000 0.22030  0.48120  0.66500  Biso   1.000  C
  C38      1.0000 0.26730  0.46230  0.71670  Biso   1.000  C
  C39      1.0000 0.33380  0.47140  0.72510  Biso   1.000  C
  H13      1.0000 0.35960  0.49240  0.69650  Biso   1.000  H
  C40      1.0000 0.36060  0.44720  0.77890  Biso   1.000  C
  H14      1.0000 0.40560  0.44950  0.79150  Biso   1.000  H
  C41      1.0000 0.31190  0.41970  0.81100  Biso   1.000  C
  C42      1.0000 0.31970  0.38980  0.87230  Biso   1.000  C
  S7       1.0000 0.23660  0.42240  0.77700  Biso   1.000  S
  Pr9      1.0000 0.06097  0.56616  0.44865  Biso   1.000  Pr
  Cl20     1.0000 0.53117  0.71816  0.91242  Biso   1.000  Cl
  Cl21     1.0000 0.25993  0.83948  0.95332  Biso   1.000  Cl
  Cl22     1.0000 0.24460  0.84622  0.80598  Biso   1.000  Cl
  Cl23     1.0000 0.79751  0.73702  0.94724  Biso   1.000  Cl
  Cl24     1.0000 0.78051  0.74559  0.81012  Biso   1.000  Cl
  Cl25     1.0000 0.55908  0.51888  0.08750  Biso   1.000  Cl
  Cl26     1.0000 0.09300  0.85720  0.29180  Biso   1.000  Cl
  Cl27     1.0000 0.43070  0.53259  0.56862  Biso   1.000  Cl
  Cl28     1.0000 0.31209  0.70452  0.25732  Biso   1.000  Cl
  S8       1.0000 0.25990  0.08192  0.72678  Biso   1.000  S
  O102     1.0000 0.32700  0.92010  0.83860  Biso   1.000  O
  O103     1.0000 0.39920  0.97560  0.79650  Biso   1.000  O
  O104     1.0000 0.05830  0.17630  0.63490  Biso   1.000  O
  O105     1.0000 0.14760  0.20250  0.65730  Biso   1.000  O
  C43      1.0000 0.33650  0.96590  0.80290  Biso   1.000  C
  C44      1.0000 0.26480  0.01170  0.76560  Biso   1.000  C
  C45      1.0000 0.19800  0.00490  0.75490  Biso   1.000  C
  H15      1.0000 0.18960  0.96890  0.77200  Biso   1.000  H
  C46      1.0000 0.14320  0.05720  0.71580  Biso   1.000  C
  H16      1.0000 0.09420  0.05990  0.70310  Biso   1.000  H
  C47      1.0000 0.16640  0.10270  0.69830  Biso   1.000  C
  C48      1.0000 0.12130  0.16510  0.66060  Biso   1.000  C
  O106     1.0000 0.62310  0.62050  0.79620  Biso   1.000  O
  O107     1.0000 0.71390  0.65740  0.75010  Biso   1.000  O
  O108     1.0000 0.70660  0.44140  0.68820  Biso   1.000  O
  O109     1.0000 0.59720  0.46160  0.72770  Biso   1.000  O
  S9       1.0000 0.63150  0.54127  0.75682  Biso   1.000  S
  C49      1.0000 0.67680  0.62260  0.76790  Biso   1.000  C
  C50      1.0000 0.69190  0.58020  0.74560  Biso   1.000  C
  C51      1.0000 0.75230  0.56800  0.71520  Biso   1.000  C
  H17      1.0000 0.79150  0.58540  0.70480  Biso   1.000  H
  C52      1.0000 0.74840  0.52670  0.70180  Biso   1.000  C
  H18      1.0000 0.78530  0.51280  0.68130  Biso   1.000  H
  C53      1.0000 0.68620  0.50810  0.72110  Biso   1.000  C
  C54      1.0000 0.66430  0.46420  0.71340  Biso   1.000  C
  S10      1.0000 0.28468  0.69456  0.68640  Biso   1.000  S
  O110     1.0000 0.45280  0.64720  0.79380  Biso   1.000  O
  O111     1.0000 0.33500  0.71640  0.76830  Biso   1.000  O
  O112     1.0000 0.19750  0.70090  0.59700  Biso   1.000  O
  O113     1.0000 0.27300  0.61390  0.60740  Biso   1.000  O
  C55      1.0000 0.38690  0.67430  0.76700  Biso   1.000  C
  C56      1.0000 0.36850  0.65340  0.73180  Biso   1.000  C
  C57      1.0000 0.40960  0.60370  0.72920  Biso   1.000  C
  H19      1.0000 0.45740  0.57520  0.75120  Biso   1.000  H
  C58      1.0000 0.37390  0.59850  0.69030  Biso   1.000  C
  H20      1.0000 0.39550  0.56650  0.68320  Biso   1.000  H
  C59      1.0000 0.30590  0.64380  0.66440  Biso   1.000  C
  C60      1.0000 0.25440  0.65490  0.61990  Biso   1.000  C
  S11      1.0000 0.89970  0.96701  0.41654  Biso   1.000  S
  O114     1.0000 0.05480  0.81660  0.43750  Biso   1.000  O
  O115     1.0000 0.02570  0.90850  0.37160  Biso   1.000  O
  O116     1.0000 0.75880  0.00900  0.51300  Biso   1.000  O
  O117     1.0000 0.76670  0.05900  0.42500  Biso   1.000  O
  C61      1.0000 0.01640  0.87070  0.41630  Biso   1.000  C
  C62      1.0000 0.95250  0.89330  0.44780  Biso   1.000  C
  C63      1.0000 0.92900  0.86560  0.49660  Biso   1.000  C
  H21      1.0000 0.95140  0.82480  0.51980  Biso   1.000  H
  C64      1.0000 0.86770  0.90440  0.50910  Biso   1.000  C
  H22      1.0000 0.84410  0.89250  0.54190  Biso   1.000  H
  C65      1.0000 0.84670  0.95840  0.47110  Biso   1.000  C
  C66      1.0000 0.78250  0.01330  0.46950  Biso   1.000  C
  Cl29     1.0000 0.44650  0.65200  0.10860  Biso   1.000  Cl
  Pr10     1.0000 0.37868  0.81851  0.87895  Biso   1.000  Pr
  Pr11     1.0000 0.66349  0.75923  0.88370  Biso   1.000  Pr
  Pr12     1.0000 0.54785  0.64217  0.02862  Biso   1.000  Pr
  Pr13     1.0000 0.53466  0.65112  0.85508  Biso   1.000  Pr
  Pr14     1.0000 0.07604  0.75645  0.38955  Biso   1.000  Pr
  Pr15     1.0000 0.25137  0.58843  0.54360  Biso   1.000  Pr
  Pr16     1.0000 0.28861  0.61217  0.36174  Biso   1.000  Pr
  O118     1.0000 0.07900  0.85130  0.31760  Biso   1.000  O
  S12      1.0000 0.21460  0.44450  0.77800  Biso   1.000  S
  O119     1.0000 0.25500  0.50600  0.62680  Biso   1.000  O
  O120     1.0000 0.15670  0.47680  0.66720  Biso   1.000  O
  O121     1.0000 0.37560  0.38650  0.89250  Biso   1.000  O
  O122     1.0000 0.24540  0.40320  0.89660  Biso   1.000  O
  C67      1.0000 0.21390  0.49330  0.66560  Biso   1.000  C
  C68      1.0000 0.26210  0.46190  0.72060  Biso   1.000  C
  C69      1.0000 0.33960  0.45930  0.72210  Biso   1.000  C
  H23      1.0000 0.37250  0.46770  0.69370  Biso   1.000  H
  C70      1.0000 0.35720  0.44120  0.77600  Biso   1.000  C
  H24      1.0000 0.40810  0.43570  0.78860  Biso   1.000  H
  C71      1.0000 0.30020  0.43120  0.81100  Biso   1.000  C
  C72      1.0000 0.30600  0.40520  0.87250  Biso   1.000  C
  Cl30     1.0000 0.07660  0.82770  0.44380  Biso   1.000  Cl
  O123     1.0000 0.00000  0.50000  0.50000  Biso   1.000  O
