data_image0
_cell_length_a       18.6427
_cell_length_b       27.5425
_cell_length_c       29.4131
_cell_angle_alpha    62.575
_cell_angle_beta     89.207
_cell_angle_gamma    70.639

_symmetry_space_group_name_H-M    "P 1"
_symmetry_int_tables_number       1

loop_
  _symmetry_equiv_pos_as_xyz
  'x, y, z'

loop_
  _atom_site_label
  _atom_site_occupancy
  _atom_site_fract_x
  _atom_site_fract_y
  _atom_site_fract_z
  _atom_site_thermal_displace_type
  _atom_site_B_iso_or_equiv
  _atom_site_type_symbol
  Pr1      1.0000 0.61680  0.17936  0.12339  Biso   1.000  Pr
  Pr2      1.0000 0.34176  0.23553  0.12264  Biso   1.000  Pr
  Pr3      1.0000 0.44105  0.35343  0.97827  Biso   1.000  Pr
  Pr4      1.0000 0.47538  0.34825  0.14244  Biso   1.000  Pr
  Pr5      1.0000 0.90192  0.24727  0.60935  Biso   1.000  Pr
  Pr6      1.0000 0.75108  0.41346  0.44640  Biso   1.000  Pr
  Pr7      1.0000 0.95093  0.42462  0.53540  Biso   1.000  Pr
  Pr8      1.0000 0.71897  0.42282  0.60578  Biso   1.000  Pr
  Sb1      1.0000 0.65385  0.29280  0.00678  Biso   1.000  Sb
  Sb2      1.0000 0.68099  0.28689  0.13236  Biso   1.000  Sb
  Sb3      1.0000 0.60696  0.19794  0.24068  Biso   1.000  Sb
  Sb4      1.0000 0.50594  0.11305  0.22577  Biso   1.000  Sb
  Sb5      1.0000 0.48049  0.11752  0.10156  Biso   1.000  Sb
  Sb6      1.0000 0.55349  0.20744  0.99092  Biso   1.000  Sb
  Sb7      1.0000 0.55204  0.41895  0.02147  Biso   1.000  Sb
  Sb8      1.0000 0.40066  0.24082  0.24009  Biso   1.000  Sb
  Sb9      1.0000 0.34762  0.24805  0.99208  Biso   1.000  Sb
  Sb10     1.0000 0.34103  0.46347  0.01931  Biso   1.000  Sb
  Sb11     1.0000 0.26720  0.37457  0.12884  Biso   1.000  Sb
  Sb12     1.0000 0.24131  0.37739  0.00602  Biso   1.000  Sb
  Sb13     1.0000 0.05761  0.28490  0.54102  Biso   1.000  Sb
  Sb14     1.0000 0.86254  0.28497  0.71492  Biso   1.000  Sb
  Sb15     1.0000 0.70992  0.27531  0.64760  Biso   1.000  Sb
  Sb16     1.0000 0.73078  0.27067  0.52699  Biso   1.000  Sb
  Sb17     1.0000 0.94814  0.40748  0.41715  Biso   1.000  Sb
  Sb18     1.0000 0.80849  0.53998  0.41654  Biso   1.000  Sb
  Sb19     1.0000 0.89711  0.42046  0.66062  Biso   1.000  Sb
  Sb20     1.0000 0.63442  0.53782  0.46934  Biso   1.000  Sb
  Sb21     1.0000 0.59452  0.39919  0.52743  Biso   1.000  Sb
  Sb22     1.0000 0.90797  0.27262  0.47287  Biso   1.000  Sb
  Sb23     1.0000 0.78640  0.54866  0.53370  Biso   1.000  Sb
  Sb24     1.0000 0.03690  0.29273  0.65910  Biso   1.000  Sb
  Cl1      1.0000 0.46735  0.27829  0.09178  Biso   1.000  Cl
  Cl2      1.0000 0.72494  0.15599  0.05242  Biso   1.000  Cl
  Cl3      1.0000 0.75712  0.15368  0.19179  Biso   1.000  Cl
  Cl4      1.0000 0.36437  0.10658  0.17639  Biso   1.000  Cl
  Cl5      1.0000 0.20814  0.25108  0.06277  Biso   1.000  Cl
  Cl6      1.0000 0.23551  0.25123  0.19217  Biso   1.000  Cl
  Cl7      1.0000 0.42012  0.48082  0.91931  Biso   1.000  Cl
  Cl8      1.0000 0.82876  0.37856  0.54893  Biso   1.000  Cl
  Cl9      1.0000 0.89515  0.16376  0.57402  Biso   1.000  Cl
  Cl10     1.0000 0.86941  0.16684  0.70912  Biso   1.000  Cl
  Cl11     1.0000 0.58620  0.49170  0.40230  Biso   1.000  Cl
  Cl12     1.0000 0.99148  0.50400  0.56001  Biso   1.000  Cl
  Cl13     1.0000 0.11791  0.35851  0.57766  Biso   1.000  Cl
  Cl14     1.0000 0.54870  0.48460  0.57210  Biso   1.000  Cl
  O1       1.0000 0.57130  0.25900  0.01622  Biso   1.000  O
  O2       1.0000 0.66610  0.25874  0.08297  Biso   1.000  O
  O3       1.0000 0.60290  0.25270  0.16571  Biso   1.000  O
  O4       1.0000 0.58590  0.14888  0.21429  Biso   1.000  O
  O5       1.0000 0.49910  0.14578  0.14940  Biso   1.000  O
  O6       1.0000 0.55310  0.15582  0.06534  Biso   1.000  O
  O7       1.0000 0.56290  0.36354  0.99485  Biso   1.000  O
  O8       1.0000 0.58700  0.36040  0.09599  Biso   1.000  O
  O9       1.0000 0.49940  0.25400  0.22588  Biso   1.000  O
  O10      1.0000 0.42070  0.18896  0.20713  Biso   1.000  O
  O11      1.0000 0.39030  0.19124  0.06672  Biso   1.000  O
  O12      1.0000 0.44460  0.26298  0.97512  Biso   1.000  O
  O13      1.0000 0.45120  0.40816  0.03850  Biso   1.000  O
  O14      1.0000 0.36420  0.30496  0.16636  Biso   1.000  O
  O15      1.0000 0.33080  0.30668  0.01682  Biso   1.000  O
  O16      1.0000 0.32200  0.41205  0.99536  Biso   1.000  O
  O17      1.0000 0.33980  0.41237  0.09391  Biso   1.000  O
  O18      1.0000 0.26520  0.34008  0.08297  Biso   1.000  O
  O19      1.0000 0.97030  0.26200  0.53490  Biso   1.000  O
  O20      1.0000 0.99750  0.30540  0.59075  Biso   1.000  O
  O21      1.0000 0.94850  0.26500  0.67860  Biso   1.000  O
  O22      1.0000 0.79610  0.30110  0.65310  Biso   1.000  O
  O23      1.0000 0.76610  0.25780  0.59610  Biso   1.000  O
  O24      1.0000 0.81790  0.29830  0.50520  Biso   1.000  O
  O25      1.0000 0.67290  0.35550  0.50040  Biso   1.000  O
  O26      1.0000 0.88250  0.35930  0.43230  Biso   1.000  O
  O27      1.0000 0.86790  0.45420  0.44166  Biso   1.000  O
  O28      1.0000 0.65620  0.45040  0.50750  Biso   1.000  O
  O29      1.0000 0.72000  0.51350  0.43473  Biso   1.000  O
  O30      1.0000 0.99980  0.36864  0.49112  Biso   1.000  O
  O31      1.0000 0.97060  0.37740  0.63073  Biso   1.000  O
  O32      1.0000 0.83930  0.46520  0.58860  Biso   1.000  O
  O33      1.0000 0.84340  0.51670  0.48931  Biso   1.000  O
  O34      1.0000 0.83300  0.37220  0.67480  Biso   1.000  O
  O35      1.0000 0.65810  0.35960  0.59690  Biso   1.000  O
  O36      1.0000 0.70270  0.52090  0.53070  Biso   1.000  O
  S1       1.0000 0.75936  0.91948  0.28341  Biso   1.000  S
  O37      1.0000 0.67270  0.07699  0.16621  Biso   1.000  O
  O38      1.0000 0.61320  0.02190  0.22190  Biso   1.000  O
  O39      1.0000 0.97310  0.82970  0.35200  Biso   1.000  O
  O40      1.0000 0.87500  0.80160  0.34950  Biso   1.000  O
  C1       1.0000 0.67200  0.03270  0.20660  Biso   1.000  C
  C2       1.0000 0.74860  0.98940  0.23820  Biso   1.000  C
  C3       1.0000 0.81690  0.99800  0.23730  Biso   1.000  C
  H1       1.0000 0.82220  0.03440  0.21510  Biso   1.000  H
  C4       1.0000 0.87810  0.94740  0.27250  Biso   1.000  C
  H2       1.0000 0.92950  0.94570  0.27660  Biso   1.000  H
  C5       1.0000 0.85590  0.90150  0.29990  Biso   1.000  C
  C6       1.0000 0.90620  0.83920  0.33770  Biso   1.000  C
  C7       1.0000 0.37020  0.37760  0.22930  Biso   1.000  C
  C8       1.0000 0.35180  0.41080  0.25911  Biso   1.000  C
  C9       1.0000 0.32020  0.46320  0.30860  Biso   1.000  C
  S2       1.0000 0.31620  0.39557  0.31450  Biso   1.000  S
  O41      1.0000 0.39710  0.39020  0.19130  Biso   1.000  O
  O42      1.0000 0.36050  0.32770  0.25850  Biso   1.000  O
  O43      1.0000 0.28990  0.51610  0.35350  Biso   1.000  O
  O44      1.0000 0.26550  0.43380  0.39260  Biso   1.000  O
  C10      1.0000 0.36470  0.46330  0.24050  Biso   1.000  C
  H3       1.0000 0.38490  0.47790  0.20910  Biso   1.000  H
  C11      1.0000 0.34820  0.49400  0.26780  Biso   1.000  C
  H4       1.0000 0.35530  0.52970  0.25930  Biso   1.000  H
  C12      1.0000 0.29030  0.46890  0.35690  Biso   1.000  C
  S3       1.0000 0.72306  0.29835  0.31362  Biso   1.000  S
  O45      1.0000 0.56720  0.35000  0.19800  Biso   1.000  O
  O46      1.0000 0.68270  0.28050  0.22730  Biso   1.000  O
  O47      1.0000 0.80160  0.29000  0.40610  Biso   1.000  O
  O48      1.0000 0.71590  0.37010  0.40130  Biso   1.000  O
  C13      1.0000 0.63010  0.32270  0.22670  Biso   1.000  C
  C14      1.0000 0.64510  0.34100  0.26500  Biso   1.000  C
  C15      1.0000 0.59940  0.38980  0.26780  Biso   1.000  C
  H5       1.0000 0.55310  0.41870  0.24470  Biso   1.000  H
  C16      1.0000 0.63160  0.39030  0.31020  Biso   1.000  C
  H6       1.0000 0.60820  0.42100  0.31830  Biso   1.000  H
  C17      1.0000 0.69630  0.34600  0.33840  Biso   1.000  C
  C18      1.0000 0.74260  0.33290  0.38700  Biso   1.000  C
  S4       1.0000 0.76890  0.57520  0.21745  Biso   1.000  S
  O49      1.0000 0.75130  0.48490  0.35660  Biso   1.000  O
  O50      1.0000 0.86250  0.48600  0.32850  Biso   1.000  O
  O51      1.0000 0.66450  0.60790  0.08720  Biso   1.000  O
  O52      1.0000 0.72930  0.65680  0.10000  Biso   1.000  O
  C19      1.0000 0.78970  0.50160  0.32130  Biso   1.000  C
  C20      1.0000 0.74380  0.52330  0.26800  Biso   1.000  C
  C21      1.0000 0.68650  0.51270  0.24930  Biso   1.000  C
  H7       1.0000 0.66410  0.48560  0.27120  Biso   1.000  H
  C22      1.0000 0.66440  0.54490  0.19580  Biso   1.000  C
  H8       1.0000 0.62570  0.54250  0.17720  Biso   1.000  H
  C23      1.0000 0.70530  0.58040  0.17320  Biso   1.000  C
  C24      1.0000 0.70180  0.61730  0.11540  Biso   1.000  C
  S5       1.0000 0.63170  0.30990  0.81742  Biso   1.000  S
  O53      1.0000 0.66200  0.39540  0.67450  Biso   1.000  O
  O54      1.0000 0.71060  0.29940  0.73300  Biso   1.000  O
  O55      1.0000 0.50060  0.36650  0.90200  Biso   1.000  O
  O56      1.0000 0.58560  0.27940  0.91500  Biso   1.000  O
  C25      1.0000 0.66140  0.35070  0.71450  Biso   1.000  C
  C26      1.0000 0.61720  0.36460  0.75480  Biso   1.000  C
  C27      1.0000 0.56700  0.41380  0.74970  Biso   1.000  C
  H9       1.0000 0.55220  0.44880  0.71710  Biso   1.000  H
  C28      1.0000 0.53660  0.41420  0.79170  Biso   1.000  C
  H10      1.0000 0.50010  0.44750  0.79220  Biso   1.000  H
  C29      1.0000 0.56720  0.35840  0.83350  Biso   1.000  C
  C30      1.0000 0.55280  0.33420  0.89030  Biso   1.000  C
  O57      1.0000 0.61490  0.47040  0.39520  Biso   1.000  O
  O58      1.0000 0.56310  0.50400  0.57680  Biso   1.000  O
  S6       1.0000 0.27220  0.44830  0.27160  Biso   1.000  S
  O59      1.0000 0.42700  0.37200  0.20680  Biso   1.000  O
  O60      1.0000 0.30350  0.38410  0.21130  Biso   1.000  O
  O61      1.0000 0.31060  0.52270  0.35040  Biso   1.000  O
  O62      1.0000 0.20520  0.51290  0.32620  Biso   1.000  O
  C31      1.0000 0.41430  0.41250  0.28290  Biso   1.000  C
  H11      1.0000 0.46560  0.39340  0.28000  Biso   1.000  H
  C32      1.0000 0.39930  0.44290  0.31090  Biso   1.000  C
  H12      1.0000 0.43600  0.44860  0.32820  Biso   1.000  H
  C33      1.0000 0.27620  0.50210  0.33200  Biso   1.000  C
  S7       1.0000 0.80170  0.54430  0.21460  Biso   1.000  S
  O63      1.0000 0.74860  0.46110  0.35710  Biso   1.000  O
  O64      1.0000 0.79930  0.53050  0.33070  Biso   1.000  O
  O65      1.0000 0.64750  0.62170  0.09140  Biso   1.000  O
  O66      1.0000 0.77500  0.59570  0.09540  Biso   1.000  O
  C34      1.0000 0.78030  0.49300  0.32520  Biso   1.000  C
  C35      1.0000 0.75250  0.52690  0.26600  Biso   1.000  C
  C36      1.0000 0.67570  0.53590  0.25720  Biso   1.000  C
  H13      1.0000 0.64070  0.52860  0.28100  Biso   1.000  H
  C37      1.0000 0.66420  0.55840  0.20420  Biso   1.000  C
  H14      1.0000 0.61400  0.56880  0.18760  Biso   1.000  H
  C38      1.0000 0.71960  0.56700  0.17360  Biso   1.000  C
  C39      1.0000 0.71510  0.59690  0.11510  Biso   1.000  C
  Cl15     1.0000 0.53700  0.34160  0.89910  Biso   1.000  Cl
  Cl16     1.0000 0.67410  0.34960  0.70780  Biso   1.000  Cl
  Pr9      1.0000 0.38320  0.82064  0.87661  Biso   1.000  Pr
  Pr10     1.0000 0.65824  0.76447  0.87736  Biso   1.000  Pr
  Pr11     1.0000 0.55895  0.64657  0.02173  Biso   1.000  Pr
  Pr12     1.0000 0.52462  0.65175  0.85756  Biso   1.000  Pr
  Pr13     1.0000 0.09808  0.75273  0.39065  Biso   1.000  Pr
  Pr14     1.0000 0.24892  0.58654  0.55360  Biso   1.000  Pr
  Pr15     1.0000 0.04907  0.57538  0.46460  Biso   1.000  Pr
  Pr16     1.0000 0.28103  0.57718  0.39423  Biso   1.000  Pr
  Sb25     1.0000 0.34615  0.70720  0.99322  Biso   1.000  Sb
  Sb26     1.0000 0.31901  0.71311  0.86764  Biso   1.000  Sb
  Sb27     1.0000 0.39304  0.80206  0.75932  Biso   1.000  Sb
  Sb28     1.0000 0.49406  0.88695  0.77423  Biso   1.000  Sb
  Sb29     1.0000 0.51951  0.88248  0.89844  Biso   1.000  Sb
  Sb30     1.0000 0.44651  0.79256  0.00908  Biso   1.000  Sb
  Sb31     1.0000 0.44796  0.58105  0.97853  Biso   1.000  Sb
  Sb32     1.0000 0.59934  0.75918  0.75991  Biso   1.000  Sb
  Sb33     1.0000 0.65238  0.75195  0.00792  Biso   1.000  Sb
  Sb34     1.0000 0.65897  0.53653  0.98069  Biso   1.000  Sb
  Sb35     1.0000 0.73280  0.62543  0.87116  Biso   1.000  Sb
  Sb36     1.0000 0.75869  0.62261  0.99398  Biso   1.000  Sb
  Sb37     1.0000 0.94239  0.71510  0.45898  Biso   1.000  Sb
  Sb38     1.0000 0.13746  0.71503  0.28508  Biso   1.000  Sb
  Sb39     1.0000 0.29008  0.72469  0.35240  Biso   1.000  Sb
  Sb40     1.0000 0.26922  0.72933  0.47301  Biso   1.000  Sb
  Sb41     1.0000 0.05186  0.59252  0.58285  Biso   1.000  Sb
  Sb42     1.0000 0.19151  0.46002  0.58346  Biso   1.000  Sb
  Sb43     1.0000 0.10289  0.57954  0.33938  Biso   1.000  Sb
  Sb44     1.0000 0.36558  0.46218  0.53066  Biso   1.000  Sb
  Sb45     1.0000 0.40548  0.60081  0.47257  Biso   1.000  Sb
  Sb46     1.0000 0.09203  0.72738  0.52713  Biso   1.000  Sb
  Sb47     1.0000 0.21360  0.45134  0.46630  Biso   1.000  Sb
  Sb48     1.0000 0.96310  0.70727  0.34090  Biso   1.000  Sb
  Cl17     1.0000 0.53265  0.72171  0.90822  Biso   1.000  Cl
  Cl18     1.0000 0.27506  0.84401  0.94758  Biso   1.000  Cl
  Cl19     1.0000 0.24288  0.84632  0.80821  Biso   1.000  Cl
  Cl20     1.0000 0.63563  0.89342  0.82361  Biso   1.000  Cl
  Cl21     1.0000 0.79186  0.74892  0.93723  Biso   1.000  Cl
  Cl22     1.0000 0.76449  0.74877  0.80783  Biso   1.000  Cl
  Cl23     1.0000 0.57988  0.51918  0.08069  Biso   1.000  Cl
  Cl24     1.0000 0.17124  0.62144  0.45107  Biso   1.000  Cl
  Cl25     1.0000 0.10485  0.83624  0.42598  Biso   1.000  Cl
  Cl26     1.0000 0.13059  0.83316  0.29088  Biso   1.000  Cl
  Cl27     1.0000 0.41380  0.50830  0.59770  Biso   1.000  Cl
  Cl28     1.0000 0.00852  0.49600  0.43999  Biso   1.000  Cl
  Cl29     1.0000 0.88209  0.64149  0.42234  Biso   1.000  Cl
  Cl30     1.0000 0.45130  0.51540  0.42790  Biso   1.000  Cl
  O67      1.0000 0.42870  0.74100  0.98378  Biso   1.000  O
  O68      1.0000 0.33390  0.74126  0.91703  Biso   1.000  O
  O69      1.0000 0.39710  0.74730  0.83429  Biso   1.000  O
  O70      1.0000 0.41410  0.85112  0.78571  Biso   1.000  O
  O71      1.0000 0.50090  0.85422  0.85060  Biso   1.000  O
  O72      1.0000 0.44690  0.84418  0.93466  Biso   1.000  O
  O73      1.0000 0.43710  0.63646  0.00515  Biso   1.000  O
  O74      1.0000 0.41300  0.63960  0.90401  Biso   1.000  O
  O75      1.0000 0.50060  0.74600  0.77412  Biso   1.000  O
  O76      1.0000 0.57930  0.81104  0.79287  Biso   1.000  O
  O77      1.0000 0.60970  0.80876  0.93328  Biso   1.000  O
  O78      1.0000 0.55540  0.73702  0.02488  Biso   1.000  O
  O79      1.0000 0.54880  0.59184  0.96150  Biso   1.000  O
  O80      1.0000 0.63580  0.69504  0.83364  Biso   1.000  O
  O81      1.0000 0.66920  0.69332  0.98318  Biso   1.000  O
  O82      1.0000 0.67800  0.58795  0.00464  Biso   1.000  O
  O83      1.0000 0.66020  0.58763  0.90609  Biso   1.000  O
  O84      1.0000 0.73480  0.65992  0.91703  Biso   1.000  O
  O85      1.0000 0.02970  0.73800  0.46510  Biso   1.000  O
  O86      1.0000 0.00250  0.69460  0.40925  Biso   1.000  O
  O87      1.0000 0.05150  0.73500  0.32140  Biso   1.000  O
  O88      1.0000 0.20390  0.69890  0.34690  Biso   1.000  O
  O89      1.0000 0.23390  0.74220  0.40390  Biso   1.000  O
  O90      1.0000 0.18210  0.70170  0.49480  Biso   1.000  O
  O91      1.0000 0.32710  0.64450  0.49960  Biso   1.000  O
  O92      1.0000 0.11750  0.64070  0.56770  Biso   1.000  O
  O93      1.0000 0.13210  0.54580  0.55834  Biso   1.000  O
  O94      1.0000 0.34380  0.54960  0.49250  Biso   1.000  O
  O95      1.0000 0.28000  0.48650  0.56527  Biso   1.000  O
  O96      1.0000 0.00020  0.63136  0.50888  Biso   1.000  O
  O97      1.0000 0.02940  0.62260  0.36927  Biso   1.000  O
  O98      1.0000 0.16070  0.53480  0.41140  Biso   1.000  O
  O99      1.0000 0.15660  0.48330  0.51069  Biso   1.000  O
  O100     1.0000 0.16700  0.62780  0.32520  Biso   1.000  O
  O101     1.0000 0.34190  0.64040  0.40310  Biso   1.000  O
  O102     1.0000 0.29730  0.47910  0.46930  Biso   1.000  O
  S8       1.0000 0.24064  0.08052  0.71659  Biso   1.000  S
  O103     1.0000 0.32730  0.92301  0.83379  Biso   1.000  O
  O104     1.0000 0.38680  0.97810  0.77810  Biso   1.000  O
  O105     1.0000 0.02690  0.17030  0.64800  Biso   1.000  O
  O106     1.0000 0.12500  0.19840  0.65050  Biso   1.000  O
  C40      1.0000 0.32800  0.96730  0.79340  Biso   1.000  C
  C41      1.0000 0.25140  0.01060  0.76180  Biso   1.000  C
  C42      1.0000 0.18310  0.00200  0.76270  Biso   1.000  C
  H15      1.0000 0.17780  0.96560  0.78490  Biso   1.000  H
  C43      1.0000 0.12190  0.05260  0.72750  Biso   1.000  C
  H16      1.0000 0.07050  0.05430  0.72340  Biso   1.000  H
  C44      1.0000 0.14410  0.09850  0.70010  Biso   1.000  C
  C45      1.0000 0.09380  0.16080  0.66230  Biso   1.000  C
  C46      1.0000 0.62980  0.62240  0.77070  Biso   1.000  C
  C47      1.0000 0.64820  0.58920  0.74089  Biso   1.000  C
  C48      1.0000 0.67980  0.53680  0.69140  Biso   1.000  C
  S9       1.0000 0.68380  0.60443  0.68550  Biso   1.000  S
  O107     1.0000 0.60290  0.60980  0.80870  Biso   1.000  O
  O108     1.0000 0.63950  0.67230  0.74150  Biso   1.000  O
  O109     1.0000 0.71010  0.48390  0.64650  Biso   1.000  O
  O110     1.0000 0.73450  0.56620  0.60740  Biso   1.000  O
  C49      1.0000 0.63530  0.53670  0.75950  Biso   1.000  C
  H17      1.0000 0.61510  0.52210  0.79090  Biso   1.000  H
  C50      1.0000 0.65180  0.50600  0.73220  Biso   1.000  C
  H18      1.0000 0.64470  0.47030  0.74070  Biso   1.000  H
  C51      1.0000 0.70970  0.53110  0.64310  Biso   1.000  C
  S10      1.0000 0.27694  0.70165  0.68638  Biso   1.000  S
  O111     1.0000 0.43280  0.65000  0.80200  Biso   1.000  O
  O112     1.0000 0.31730  0.71950  0.77270  Biso   1.000  O
  O113     1.0000 0.19840  0.71000  0.59390  Biso   1.000  O
  O114     1.0000 0.28410  0.62990  0.59870  Biso   1.000  O
  C52      1.0000 0.36990  0.67730  0.77330  Biso   1.000  C
  C53      1.0000 0.35490  0.65900  0.73500  Biso   1.000  C
  C54      1.0000 0.40060  0.61020  0.73220  Biso   1.000  C
  H19      1.0000 0.44690  0.58130  0.75530  Biso   1.000  H
  C55      1.0000 0.36840  0.60970  0.68980  Biso   1.000  C
  H20      1.0000 0.39180  0.57900  0.68170  Biso   1.000  H
  C56      1.0000 0.30370  0.65400  0.66160  Biso   1.000  C
  C57      1.0000 0.25740  0.66710  0.61300  Biso   1.000  C
  S11      1.0000 0.23110  0.42480  0.78255  Biso   1.000  S
  O115     1.0000 0.24870  0.51510  0.64340  Biso   1.000  O
  O116     1.0000 0.13750  0.51400  0.67150  Biso   1.000  O
  O117     1.0000 0.33550  0.39210  0.91280  Biso   1.000  O
  O118     1.0000 0.27070  0.34320  0.90000  Biso   1.000  O
  C58      1.0000 0.21030  0.49840  0.67870  Biso   1.000  C
  C59      1.0000 0.25620  0.47670  0.73200  Biso   1.000  C
  C60      1.0000 0.31350  0.48730  0.75070  Biso   1.000  C
  H21      1.0000 0.33590  0.51440  0.72880  Biso   1.000  H
  C61      1.0000 0.33560  0.45510  0.80420  Biso   1.000  C
  H22      1.0000 0.37430  0.45750  0.82280  Biso   1.000  H
  C62      1.0000 0.29470  0.41960  0.82680  Biso   1.000  C
  C63      1.0000 0.29820  0.38270  0.88460  Biso   1.000  C
  S12      1.0000 0.36830  0.69010  0.18258  Biso   1.000  S
  O119     1.0000 0.33800  0.60460  0.32550  Biso   1.000  O
  O120     1.0000 0.28940  0.70060  0.26700  Biso   1.000  O
  O121     1.0000 0.49940  0.63350  0.09800  Biso   1.000  O
  O122     1.0000 0.41440  0.72060  0.08500  Biso   1.000  O
  C64      1.0000 0.33860  0.64930  0.28550  Biso   1.000  C
  C65      1.0000 0.38280  0.63540  0.24520  Biso   1.000  C
  C66      1.0000 0.43300  0.58620  0.25030  Biso   1.000  C
  H23      1.0000 0.44780  0.55120  0.28290  Biso   1.000  H
  C67      1.0000 0.46340  0.58580  0.20830  Biso   1.000  C
  H24      1.0000 0.49990  0.55250  0.20780  Biso   1.000  H
  C68      1.0000 0.43280  0.64160  0.16650  Biso   1.000  C
  C69      1.0000 0.44720  0.66580  0.10970  Biso   1.000  C
  O123     1.0000 0.38510  0.52960  0.60480  Biso   1.000  O
  O124     1.0000 0.43690  0.49600  0.42320  Biso   1.000  O
  S13      1.0000 0.72780  0.55170  0.72840  Biso   1.000  S
  O125     1.0000 0.57300  0.62800  0.79320  Biso   1.000  O
  O126     1.0000 0.69650  0.61590  0.78870  Biso   1.000  O
  O127     1.0000 0.68940  0.47730  0.64960  Biso   1.000  O
  O128     1.0000 0.79480  0.48710  0.67380  Biso   1.000  O
  C70      1.0000 0.58570  0.58750  0.71710  Biso   1.000  C
  H25      1.0000 0.53440  0.60660  0.72000  Biso   1.000  H
  C71      1.0000 0.60070  0.55710  0.68910  Biso   1.000  C
  H26      1.0000 0.56400  0.55140  0.67180  Biso   1.000  H
  C72      1.0000 0.72380  0.49790  0.66800  Biso   1.000  C
  S14      1.0000 0.19830  0.45570  0.78540  Biso   1.000  S
  O129     1.0000 0.25140  0.53890  0.64290  Biso   1.000  O
  O130     1.0000 0.20070  0.46950  0.66930  Biso   1.000  O
  O131     1.0000 0.35250  0.37830  0.90860  Biso   1.000  O
  O132     1.0000 0.22500  0.40430  0.90460  Biso   1.000  O
  C73      1.0000 0.21970  0.50700  0.67480  Biso   1.000  C
  C74      1.0000 0.24750  0.47310  0.73400  Biso   1.000  C
  C75      1.0000 0.32430  0.46410  0.74280  Biso   1.000  C
  H27      1.0000 0.35930  0.47140  0.71900  Biso   1.000  H
  C76      1.0000 0.33580  0.44160  0.79580  Biso   1.000  C
  H28      1.0000 0.38600  0.43120  0.81240  Biso   1.000  H
  C77      1.0000 0.28040  0.43300  0.82640  Biso   1.000  C
  C78      1.0000 0.28490  0.40310  0.88490  Biso   1.000  C
  Cl31     1.0000 0.46300  0.65840  0.10090  Biso   1.000  Cl
  Cl32     1.0000 0.32590  0.65040  0.29220  Biso   1.000  Cl
