data_image0
_cell_length_a       18.63
_cell_length_b       27.455
_cell_length_c       29.381
_cell_angle_alpha    62.676
_cell_angle_beta     89.004
_cell_angle_gamma    70.485

_symmetry_space_group_name_H-M    "P 1"
_symmetry_int_tables_number       1

loop_
  _symmetry_equiv_pos_as_xyz
  'x, y, z'

loop_
  _atom_site_label
  _atom_site_occupancy
  _atom_site_fract_x
  _atom_site_fract_y
  _atom_site_fract_z
  _atom_site_thermal_displace_type
  _atom_site_B_iso_or_equiv
  _atom_site_type_symbol
  Pr1      1.0000 0.61728  0.17864  0.12331  Biso   1.000  Pr
  Pr2      1.0000 0.34178  0.23469  0.12216  Biso   1.000  Pr
  Pr3      1.0000 0.44284  0.35275  0.97815  Biso   1.000  Pr
  Pr4      1.0000 0.47438  0.34814  0.14203  Biso   1.000  Pr
  Pr5      1.0000 0.90160  0.24704  0.60834  Biso   1.000  Pr
  Pr6      1.0000 0.75218  0.41396  0.44562  Biso   1.000  Pr
  Pr7      1.0000 0.95086  0.42451  0.53507  Biso   1.000  Pr
  Pr8      1.0000 0.71834  0.42477  0.60452  Biso   1.000  Pr
  Sb1      1.0000 0.65582  0.29178  0.00727  Biso   1.000  Sb
  Sb2      1.0000 0.68113  0.28649  0.13278  Biso   1.000  Sb
  Sb3      1.0000 0.60566  0.19777  0.24047  Biso   1.000  Sb
  Sb4      1.0000 0.50557  0.11230  0.22537  Biso   1.000  Sb
  Sb5      1.0000 0.48181  0.11614  0.10136  Biso   1.000  Sb
  Sb6      1.0000 0.55613  0.20597  0.99100  Biso   1.000  Sb
  Sb7      1.0000 0.55288  0.41860  0.02172  Biso   1.000  Sb
  Sb8      1.0000 0.39886  0.24066  0.23960  Biso   1.000  Sb
  Sb9      1.0000 0.34990  0.24698  0.99169  Biso   1.000  Sb
  Sb10     1.0000 0.34136  0.46340  0.01854  Biso   1.000  Sb
  Sb11     1.0000 0.26645  0.37467  0.12764  Biso   1.000  Sb
  Sb12     1.0000 0.24181  0.37694  0.00513  Biso   1.000  Sb
  Sb13     1.0000 0.05807  0.28465  0.54034  Biso   1.000  Sb
  Sb14     1.0000 0.86199  0.28433  0.71433  Biso   1.000  Sb
  Sb15     1.0000 0.70908  0.27536  0.64658  Biso   1.000  Sb
  Sb16     1.0000 0.73054  0.27160  0.52548  Biso   1.000  Sb
  Sb17     1.0000 0.94939  0.40768  0.41649  Biso   1.000  Sb
  Sb18     1.0000 0.80920  0.54041  0.41648  Biso   1.000  Sb
  Sb19     1.0000 0.89603  0.42032  0.66012  Biso   1.000  Sb
  Sb20     1.0000 0.63476  0.53950  0.46899  Biso   1.000  Sb
  Sb21     1.0000 0.59466  0.40041  0.52711  Biso   1.000  Sb
  Sb22     1.0000 0.90876  0.27269  0.47180  Biso   1.000  Sb
  Sb23     1.0000 0.78757  0.54997  0.53327  Biso   1.000  Sb
  Sb24     1.0000 0.03667  0.29240  0.65856  Biso   1.000  Sb
  Cl1      1.0000 0.46766  0.27786  0.09148  Biso   1.000  Cl
  Cl2      1.0000 0.72673  0.15466  0.05294  Biso   1.000  Cl
  Cl3      1.0000 0.75683  0.15310  0.19234  Biso   1.000  Cl
  Cl4      1.0000 0.36461  0.10514  0.17583  Biso   1.000  Cl
  Cl5      1.0000 0.20901  0.24973  0.06248  Biso   1.000  Cl
  Cl6      1.0000 0.23469  0.25063  0.19127  Biso   1.000  Cl
  Cl7      1.0000 0.42163  0.48050  0.91900  Biso   1.000  Cl
  Cl8      1.0000 0.82844  0.37894  0.54839  Biso   1.000  Cl
  Cl9      1.0000 0.89529  0.16391  0.57184  Biso   1.000  Cl
  Cl10     1.0000 0.87070  0.16541  0.70771  Biso   1.000  Cl
  Cl11     1.0000 0.58480  0.49390  0.40290  Biso   1.000  Cl
  Cl12     1.0000 0.99110  0.50400  0.56002  Biso   1.000  Cl
  Cl13     1.0000 0.11775  0.35827  0.57744  Biso   1.000  Cl
  Cl14     1.0000 0.54850  0.48520  0.57220  Biso   1.000  Cl
  O1       1.0000 0.57310  0.25790  0.01610  Biso   1.000  O
  O2       1.0000 0.66670  0.25780  0.08360  Biso   1.000  O
  O3       1.0000 0.60300  0.25220  0.16550  Biso   1.000  O
  O4       1.0000 0.58590  0.14820  0.21400  Biso   1.000  O
  O5       1.0000 0.50010  0.14460  0.14910  Biso   1.000  O
  O6       1.0000 0.55410  0.15470  0.06530  Biso   1.000  O
  O7       1.0000 0.56450  0.36220  0.99540  Biso   1.000  O
  O8       1.0000 0.58650  0.36070  0.09610  Biso   1.000  O
  O9       1.0000 0.49770  0.25400  0.22570  Biso   1.000  O
  O10      1.0000 0.41920  0.18880  0.20620  Biso   1.000  O
  O11      1.0000 0.39110  0.19020  0.06630  Biso   1.000  O
  O12      1.0000 0.44720  0.26190  0.97500  Biso   1.000  O
  O13      1.0000 0.45150  0.40830  0.03790  Biso   1.000  O
  O14      1.0000 0.36310  0.30430  0.16630  Biso   1.000  O
  O15      1.0000 0.33210  0.30580  0.01640  Biso   1.000  O
  O16      1.0000 0.32230  0.41170  0.99470  Biso   1.000  O
  O17      1.0000 0.33900  0.41290  0.09260  Biso   1.000  O
  O18      1.0000 0.26540  0.33970  0.08200  Biso   1.000  O
  O19      1.0000 0.97060  0.26150  0.53420  Biso   1.000  O
  O20      1.0000 0.99750  0.30520  0.59000  Biso   1.000  O
  O21      1.0000 0.94880  0.26370  0.67840  Biso   1.000  O
  O22      1.0000 0.79530  0.29940  0.65310  Biso   1.000  O
  O23      1.0000 0.76640  0.25720  0.59490  Biso   1.000  O
  O24      1.0000 0.81940  0.29810  0.50430  Biso   1.000  O
  O25      1.0000 0.67340  0.35740  0.49930  Biso   1.000  O
  O26      1.0000 0.88370  0.36030  0.43070  Biso   1.000  O
  O27      1.0000 0.86880  0.45400  0.44130  Biso   1.000  O
  O28      1.0000 0.65530  0.45220  0.50840  Biso   1.000  O
  O29      1.0000 0.72040  0.51410  0.43510  Biso   1.000  O
  O30      1.0000 0.00050  0.36840  0.49080  Biso   1.000  O
  O31      1.0000 0.97010  0.37710  0.63050  Biso   1.000  O
  O32      1.0000 0.83840  0.46580  0.58790  Biso   1.000  O
  O33      1.0000 0.84480  0.51700  0.48920  Biso   1.000  O
  O34      1.0000 0.83200  0.37190  0.67360  Biso   1.000  O
  O35      1.0000 0.65700  0.36060  0.59670  Biso   1.000  O
  O36      1.0000 0.70210  0.52280  0.53020  Biso   1.000  O
  S1       1.0000 0.75984  0.91909  0.28371  Biso   1.000  S
  O37      1.0000 0.67320  0.07610  0.16580  Biso   1.000  O
  O38      1.0000 0.61390  0.02050  0.22140  Biso   1.000  O
  O39      1.0000 0.97420  0.82990  0.35310  Biso   1.000  O
  O40      1.0000 0.87500  0.80140  0.35070  Biso   1.000  O
  C1       1.0000 0.67170  0.03170  0.20630  Biso   1.000  C
  C2       1.0000 0.74840  0.98980  0.23810  Biso   1.000  C
  C3       1.0000 0.81740  0.99730  0.23590  Biso   1.000  C
  H1       1.0000 0.82370  0.03280  0.21200  Biso   1.000  H
  C4       1.0000 0.87810  0.94750  0.27240  Biso   1.000  C
  H2       1.0000 0.92920  0.94630  0.27700  Biso   1.000  H
  C5       1.0000 0.85620  0.90140  0.30040  Biso   1.000  C
  C6       1.0000 0.90650  0.83990  0.33810  Biso   1.000  C
  C7       1.0000 0.37000  0.37570  0.23020  Biso   1.000  C
  C8       1.0000 0.35070  0.40800  0.26070  Biso   1.000  C
  C9       1.0000 0.31860  0.45990  0.31120  Biso   1.000  C
  S2       1.0000 0.31520  0.39460  0.31487  Biso   1.000  S
  O41      1.0000 0.39490  0.39030  0.19080  Biso   1.000  O
  O42      1.0000 0.35900  0.32680  0.25880  Biso   1.000  O
  O43      1.0000 0.28760  0.51630  0.35300  Biso   1.000  O
  O44      1.0000 0.26460  0.43230  0.39320  Biso   1.000  O
  C10      1.0000 0.36440  0.46100  0.24110  Biso   1.000  C
  H3       1.0000 0.38480  0.47570  0.20980  Biso   1.000  H
  C11      1.0000 0.34660  0.49060  0.26950  Biso   1.000  C
  H4       1.0000 0.35310  0.52650  0.26110  Biso   1.000  H
  C12      1.0000 0.28850  0.46830  0.35790  Biso   1.000  C
  S3       1.0000 0.72175  0.29958  0.31231  Biso   1.000  S
  O45      1.0000 0.56310  0.35100  0.19860  Biso   1.000  O
  O46      1.0000 0.68110  0.28270  0.22510  Biso   1.000  O
  O47      1.0000 0.80230  0.28980  0.40500  Biso   1.000  O
  O48      1.0000 0.71660  0.37050  0.40100  Biso   1.000  O
  C13      1.0000 0.62850  0.32350  0.22690  Biso   1.000  C
  C14      1.0000 0.64210  0.34270  0.26440  Biso   1.000  C
  C15      1.0000 0.59790  0.39070  0.26800  Biso   1.000  C
  H5       1.0000 0.55140  0.41950  0.24520  Biso   1.000  H
  C16      1.0000 0.62990  0.39210  0.31010  Biso   1.000  C
  H6       1.0000 0.60660  0.42280  0.31850  Biso   1.000  H
  C17      1.0000 0.69580  0.34680  0.33750  Biso   1.000  C
  C18      1.0000 0.74280  0.33400  0.38540  Biso   1.000  C
  S4       1.0000 0.77290  0.57290  0.21670  Biso   1.000  S
  O49      1.0000 0.75310  0.48930  0.35510  Biso   1.000  O
  O50      1.0000 0.86750  0.48040  0.32720  Biso   1.000  O
  O51      1.0000 0.66350  0.60760  0.08730  Biso   1.000  O
  O52      1.0000 0.73060  0.65600  0.09950  Biso   1.000  O
  C19      1.0000 0.79390  0.50230  0.32010  Biso   1.000  C
  C20      1.0000 0.74540  0.52300  0.26800  Biso   1.000  C
  C21      1.0000 0.68580  0.51460  0.24860  Biso   1.000  C
  H7       1.0000 0.66220  0.48860  0.27090  Biso   1.000  H
  C22      1.0000 0.66210  0.54580  0.19530  Biso   1.000  C
  H8       1.0000 0.62210  0.54420  0.17710  Biso   1.000  H
  C23      1.0000 0.70620  0.57940  0.17330  Biso   1.000  C
  C24      1.0000 0.70160  0.61690  0.11500  Biso   1.000  C
  S5       1.0000 0.63280  0.30850  0.81650  Biso   1.000  S
  O53      1.0000 0.66170  0.39740  0.67610  Biso   1.000  O
  O54      1.0000 0.70060  0.29910  0.72790  Biso   1.000  O
  O55      1.0000 0.50270  0.36580  0.90210  Biso   1.000  O
  O56      1.0000 0.58860  0.27760  0.91620  Biso   1.000  O
  C25      1.0000 0.65950  0.35170  0.71410  Biso   1.000  C
  C26      1.0000 0.61640  0.36560  0.75470  Biso   1.000  C
  C27      1.0000 0.56740  0.41500  0.75050  Biso   1.000  C
  H9       1.0000 0.55200  0.45090  0.71870  Biso   1.000  H
  C28      1.0000 0.54090  0.41160  0.79340  Biso   1.000  C
  H10      1.0000 0.50520  0.44430  0.79550  Biso   1.000  H
  C29      1.0000 0.56960  0.35730  0.83360  Biso   1.000  C
  C30      1.0000 0.55540  0.33280  0.89050  Biso   1.000  C
  O57      1.0000 0.61410  0.47040  0.39630  Biso   1.000  O
  O58      1.0000 0.56820  0.50740  0.57880  Biso   1.000  O
  S6       1.0000 0.26830  0.44980  0.27070  Biso   1.000  S
  O59      1.0000 0.42890  0.36900  0.20890  Biso   1.000  O
  O60      1.0000 0.30390  0.38200  0.21300  Biso   1.000  O
  O61      1.0000 0.31400  0.52600  0.34600  Biso   1.000  O
  O62      1.0000 0.20800  0.51600  0.32200  Biso   1.000  O
  C31      1.0000 0.41990  0.39960  0.28560  Biso   1.000  C
  H11      1.0000 0.47100  0.37770  0.28450  Biso   1.000  H
  C32      1.0000 0.39610  0.43100  0.31270  Biso   1.000  C
  H12      1.0000 0.43390  0.43260  0.33270  Biso   1.000  H
  C33      1.0000 0.28000  0.49810  0.33710  Biso   1.000  C
  S7       1.0000 0.79840  0.54660  0.21410  Biso   1.000  S
  O63      1.0000 0.75040  0.46630  0.35750  Biso   1.000  O
  O64      1.0000 0.85030  0.49470  0.32990  Biso   1.000  O
  O65      1.0000 0.64460  0.62180  0.09230  Biso   1.000  O
  O66      1.0000 0.77310  0.59580  0.09550  Biso   1.000  O
  C34      1.0000 0.78450  0.49290  0.32350  Biso   1.000  C
  C35      1.0000 0.75020  0.52690  0.26570  Biso   1.000  C
  C36      1.0000 0.67460  0.53390  0.25620  Biso   1.000  C
  H13      1.0000 0.63980  0.52520  0.28000  Biso   1.000  H
  C37      1.0000 0.66230  0.55680  0.20310  Biso   1.000  C
  H14      1.0000 0.61270  0.56580  0.18660  Biso   1.000  H
  C38      1.0000 0.71800  0.56720  0.17290  Biso   1.000  C
  C39      1.0000 0.71220  0.60180  0.11440  Biso   1.000  C
  Cl15     1.0000 0.53950  0.34180  0.89880  Biso   1.000  Cl
  Cl16     1.0000 0.67080  0.35150  0.70420  Biso   1.000  Cl
  Pr9      1.0000 0.38272  0.82136  0.87669  Biso   1.000  Pr
  Pr10     1.0000 0.65822  0.76531  0.87784  Biso   1.000  Pr
  Pr11     1.0000 0.55716  0.64725  0.02185  Biso   1.000  Pr
  Pr12     1.0000 0.52562  0.65186  0.85797  Biso   1.000  Pr
  Pr13     1.0000 0.09840  0.75296  0.39166  Biso   1.000  Pr
  Pr14     1.0000 0.24782  0.58604  0.55437  Biso   1.000  Pr
  Pr15     1.0000 0.04914  0.57549  0.46493  Biso   1.000  Pr
  Pr16     1.0000 0.28166  0.57523  0.39548  Biso   1.000  Pr
  Sb25     1.0000 0.34418  0.70822  0.99273  Biso   1.000  Sb
  Sb26     1.0000 0.31887  0.71351  0.86722  Biso   1.000  Sb
  Sb27     1.0000 0.39434  0.80223  0.75953  Biso   1.000  Sb
  Sb28     1.0000 0.49443  0.88770  0.77463  Biso   1.000  Sb
  Sb29     1.0000 0.51819  0.88386  0.89864  Biso   1.000  Sb
  Sb30     1.0000 0.44387  0.79403  0.00900  Biso   1.000  Sb
  Sb31     1.0000 0.44712  0.58140  0.97828  Biso   1.000  Sb
  Sb32     1.0000 0.60114  0.75934  0.76040  Biso   1.000  Sb
  Sb33     1.0000 0.65010  0.75302  0.00831  Biso   1.000  Sb
  Sb34     1.0000 0.65864  0.53660  0.98146  Biso   1.000  Sb
  Sb35     1.0000 0.73355  0.62533  0.87236  Biso   1.000  Sb
  Sb36     1.0000 0.75819  0.62306  0.99487  Biso   1.000  Sb
  Sb37     1.0000 0.94193  0.71535  0.45966  Biso   1.000  Sb
  Sb38     1.0000 0.13801  0.71567  0.28567  Biso   1.000  Sb
  Sb39     1.0000 0.29092  0.72464  0.35342  Biso   1.000  Sb
  Sb40     1.0000 0.26946  0.72840  0.47452  Biso   1.000  Sb
  Sb41     1.0000 0.05061  0.59232  0.58351  Biso   1.000  Sb
  Sb42     1.0000 0.19080  0.45959  0.58352  Biso   1.000  Sb
  Sb43     1.0000 0.10397  0.57968  0.33988  Biso   1.000  Sb
  Sb44     1.0000 0.36524  0.46050  0.53101  Biso   1.000  Sb
  Sb45     1.0000 0.40534  0.59959  0.47289  Biso   1.000  Sb
  Sb46     1.0000 0.09124  0.72731  0.52820  Biso   1.000  Sb
  Sb47     1.0000 0.21243  0.45003  0.46673  Biso   1.000  Sb
  Sb48     1.0000 0.96333  0.70760  0.34144  Biso   1.000  Sb
  Cl17     1.0000 0.53234  0.72214  0.90852  Biso   1.000  Cl
  Cl18     1.0000 0.27327  0.84534  0.94706  Biso   1.000  Cl
  Cl19     1.0000 0.24317  0.84690  0.80766  Biso   1.000  Cl
  Cl20     1.0000 0.63539  0.89486  0.82417  Biso   1.000  Cl
  Cl21     1.0000 0.79099  0.75027  0.93752  Biso   1.000  Cl
  Cl22     1.0000 0.76531  0.74937  0.80873  Biso   1.000  Cl
  Cl23     1.0000 0.57837  0.51950  0.08100  Biso   1.000  Cl
  Cl24     1.0000 0.17156  0.62106  0.45161  Biso   1.000  Cl
  Cl25     1.0000 0.10471  0.83609  0.42816  Biso   1.000  Cl
  Cl26     1.0000 0.12930  0.83459  0.29229  Biso   1.000  Cl
  Cl27     1.0000 0.41520  0.50610  0.59710  Biso   1.000  Cl
  Cl28     1.0000 0.00890  0.49600  0.43998  Biso   1.000  Cl
  Cl29     1.0000 0.88225  0.64173  0.42256  Biso   1.000  Cl
  Cl30     1.0000 0.45150  0.51480  0.42780  Biso   1.000  Cl
  O67      1.0000 0.42690  0.74210  0.98390  Biso   1.000  O
  O68      1.0000 0.33330  0.74220  0.91640  Biso   1.000  O
  O69      1.0000 0.39700  0.74780  0.83450  Biso   1.000  O
  O70      1.0000 0.41410  0.85180  0.78600  Biso   1.000  O
  O71      1.0000 0.49990  0.85540  0.85090  Biso   1.000  O
  O72      1.0000 0.44590  0.84530  0.93470  Biso   1.000  O
  O73      1.0000 0.43550  0.63780  0.00460  Biso   1.000  O
  O74      1.0000 0.41350  0.63930  0.90390  Biso   1.000  O
  O75      1.0000 0.50230  0.74600  0.77430  Biso   1.000  O
  O76      1.0000 0.58080  0.81120  0.79380  Biso   1.000  O
  O77      1.0000 0.60890  0.80980  0.93370  Biso   1.000  O
  O78      1.0000 0.55280  0.73810  0.02500  Biso   1.000  O
  O79      1.0000 0.54850  0.59170  0.96210  Biso   1.000  O
  O80      1.0000 0.63690  0.69570  0.83370  Biso   1.000  O
  O81      1.0000 0.66790  0.69420  0.98360  Biso   1.000  O
  O82      1.0000 0.67770  0.58830  0.00530  Biso   1.000  O
  O83      1.0000 0.66100  0.58710  0.90740  Biso   1.000  O
  O84      1.0000 0.73460  0.66030  0.91800  Biso   1.000  O
  O85      1.0000 0.02940  0.73850  0.46580  Biso   1.000  O
  O86      1.0000 0.00250  0.69480  0.41000  Biso   1.000  O
  O87      1.0000 0.05120  0.73630  0.32160  Biso   1.000  O
  O88      1.0000 0.20470  0.70060  0.34690  Biso   1.000  O
  O89      1.0000 0.23360  0.74280  0.40510  Biso   1.000  O
  O90      1.0000 0.18060  0.70190  0.49570  Biso   1.000  O
  O91      1.0000 0.32660  0.64260  0.50070  Biso   1.000  O
  O92      1.0000 0.11630  0.63970  0.56930  Biso   1.000  O
  O93      1.0000 0.13120  0.54600  0.55870  Biso   1.000  O
  O94      1.0000 0.34470  0.54780  0.49160  Biso   1.000  O
  O95      1.0000 0.27960  0.48590  0.56490  Biso   1.000  O
  O96      1.0000 0.99950  0.63160  0.50920  Biso   1.000  O
  O97      1.0000 0.02990  0.62290  0.36950  Biso   1.000  O
  O98      1.0000 0.16160  0.53420  0.41210  Biso   1.000  O
  O99      1.0000 0.15520  0.48300  0.51080  Biso   1.000  O
  O100     1.0000 0.16800  0.62810  0.32640  Biso   1.000  O
  O101     1.0000 0.34300  0.63940  0.40330  Biso   1.000  O
  O102     1.0000 0.29790  0.47720  0.46980  Biso   1.000  O
  S8       1.0000 0.24016  0.08091  0.71629  Biso   1.000  S
  O103     1.0000 0.32680  0.92390  0.83420  Biso   1.000  O
  O104     1.0000 0.38610  0.97950  0.77860  Biso   1.000  O
  O105     1.0000 0.02580  0.17010  0.64690  Biso   1.000  O
  O106     1.0000 0.12500  0.19860  0.64930  Biso   1.000  O
  C40      1.0000 0.32830  0.96830  0.79370  Biso   1.000  C
  C41      1.0000 0.25160  0.01020  0.76190  Biso   1.000  C
  C42      1.0000 0.18260  0.00270  0.76410  Biso   1.000  C
  H15      1.0000 0.17630  0.96720  0.78800  Biso   1.000  H
  C43      1.0000 0.12190  0.05250  0.72760  Biso   1.000  C
  H16      1.0000 0.07080  0.05370  0.72300  Biso   1.000  H
  C44      1.0000 0.14380  0.09860  0.69960  Biso   1.000  C
  C45      1.0000 0.09350  0.16010  0.66190  Biso   1.000  C
  C46      1.0000 0.63000  0.62430  0.76980  Biso   1.000  C
  C47      1.0000 0.64930  0.59200  0.73930  Biso   1.000  C
  C48      1.0000 0.68140  0.54010  0.68880  Biso   1.000  C
  S9       1.0000 0.68480  0.60540  0.68513  Biso   1.000  S
  O107     1.0000 0.60510  0.60970  0.80920  Biso   1.000  O
  O108     1.0000 0.64100  0.67320  0.74120  Biso   1.000  O
  O109     1.0000 0.71240  0.48370  0.64700  Biso   1.000  O
  O110     1.0000 0.73540  0.56770  0.60680  Biso   1.000  O
  C49      1.0000 0.63560  0.53900  0.75890  Biso   1.000  C
  H17      1.0000 0.61520  0.52430  0.79020  Biso   1.000  H
  C50      1.0000 0.65340  0.50940  0.73050  Biso   1.000  C
  H18      1.0000 0.64690  0.47350  0.73890  Biso   1.000  H
  C51      1.0000 0.71150  0.53170  0.64210  Biso   1.000  C
  S10      1.0000 0.27825  0.70042  0.68769  Biso   1.000  S
  O111     1.0000 0.43690  0.64900  0.80140  Biso   1.000  O
  O112     1.0000 0.31890  0.71730  0.77490  Biso   1.000  O
  O113     1.0000 0.19770  0.71020  0.59500  Biso   1.000  O
  O114     1.0000 0.28340  0.62950  0.59900  Biso   1.000  O
  C52      1.0000 0.37150  0.67650  0.77310  Biso   1.000  C
  C53      1.0000 0.35790  0.65730  0.73560  Biso   1.000  C
  C54      1.0000 0.40210  0.60930  0.73200  Biso   1.000  C
  H19      1.0000 0.44860  0.58050  0.75480  Biso   1.000  H
  C55      1.0000 0.37010  0.60790  0.68990  Biso   1.000  C
  H20      1.0000 0.39340  0.57720  0.68150  Biso   1.000  H
  C56      1.0000 0.30420  0.65320  0.66250  Biso   1.000  C
  C57      1.0000 0.25720  0.66600  0.61460  Biso   1.000  C
  S11      1.0000 0.22710  0.42710  0.78330  Biso   1.000  S
  O115     1.0000 0.24690  0.51070  0.64490  Biso   1.000  O
  O116     1.0000 0.13250  0.51960  0.67280  Biso   1.000  O
  O117     1.0000 0.33650  0.39240  0.91270  Biso   1.000  O
  O118     1.0000 0.26940  0.34400  0.90050  Biso   1.000  O
  C58      1.0000 0.20610  0.49770  0.67990  Biso   1.000  C
  C59      1.0000 0.25460  0.47700  0.73200  Biso   1.000  C
  C60      1.0000 0.31420  0.48540  0.75140  Biso   1.000  C
  H21      1.0000 0.33780  0.51140  0.72910  Biso   1.000  H
  C61      1.0000 0.33790  0.45420  0.80470  Biso   1.000  C
  H22      1.0000 0.37790  0.45580  0.82290  Biso   1.000  H
  C62      1.0000 0.29380  0.42060  0.82670  Biso   1.000  C
  C63      1.0000 0.29840  0.38310  0.88500  Biso   1.000  C
  S12      1.0000 0.36720  0.69150  0.18350  Biso   1.000  S
  O119     1.0000 0.33830  0.60260  0.32390  Biso   1.000  O
  O120     1.0000 0.29940  0.70090  0.27210  Biso   1.000  O
  O121     1.0000 0.49730  0.63420  0.09790  Biso   1.000  O
  O122     1.0000 0.41140  0.72240  0.08380  Biso   1.000  O
  C64      1.0000 0.34050  0.64830  0.28590  Biso   1.000  C
  C65      1.0000 0.38360  0.63440  0.24530  Biso   1.000  C
  C66      1.0000 0.43260  0.58500  0.24950  Biso   1.000  C
  H23      1.0000 0.44800  0.54910  0.28130  Biso   1.000  H
  C67      1.0000 0.45910  0.58840  0.20660  Biso   1.000  C
  H24      1.0000 0.49480  0.55570  0.20450  Biso   1.000  H
  C68      1.0000 0.43040  0.64270  0.16640  Biso   1.000  C
  C69      1.0000 0.44460  0.66720  0.10950  Biso   1.000  C
  O123     1.0000 0.38590  0.52960  0.60370  Biso   1.000  O
  O124     1.0000 0.43180  0.49260  0.42120  Biso   1.000  O
  S13      1.0000 0.73170  0.55020  0.72930  Biso   1.000  S
  O125     1.0000 0.57110  0.63100  0.79110  Biso   1.000  O
  O126     1.0000 0.69610  0.61800  0.78700  Biso   1.000  O
  O127     1.0000 0.68600  0.47400  0.65400  Biso   1.000  O
  O128     1.0000 0.79200  0.48400  0.67800  Biso   1.000  O
  C70      1.0000 0.58010  0.60040  0.71440  Biso   1.000  C
  H25      1.0000 0.52900  0.62230  0.71550  Biso   1.000  H
  C71      1.0000 0.60390  0.56900  0.68730  Biso   1.000  C
  H26      1.0000 0.56610  0.56740  0.66730  Biso   1.000  H
  C72      1.0000 0.72000  0.50190  0.66290  Biso   1.000  C
  S14      1.0000 0.20160  0.45340  0.78590  Biso   1.000  S
  O129     1.0000 0.24960  0.53370  0.64250  Biso   1.000  O
  O130     1.0000 0.14970  0.50530  0.67010  Biso   1.000  O
  O131     1.0000 0.35540  0.37820  0.90770  Biso   1.000  O
  O132     1.0000 0.22690  0.40420  0.90450  Biso   1.000  O
  C73      1.0000 0.21550  0.50710  0.67650  Biso   1.000  C
  C74      1.0000 0.24980  0.47310  0.73430  Biso   1.000  C
  C75      1.0000 0.32540  0.46610  0.74380  Biso   1.000  C
  H27      1.0000 0.36020  0.47480  0.72000  Biso   1.000  H
  C76      1.0000 0.33770  0.44320  0.79690  Biso   1.000  C
  H28      1.0000 0.38730  0.43420  0.81340  Biso   1.000  H
  C77      1.0000 0.28200  0.43280  0.82710  Biso   1.000  C
  C78      1.0000 0.28780  0.39820  0.88560  Biso   1.000  C
  Cl31     1.0000 0.46050  0.65820  0.10120  Biso   1.000  Cl
  Cl32     1.0000 0.32920  0.64850  0.29580  Biso   1.000  Cl
