data_image0
_cell_length_a       12.483
_cell_length_b       12.483
_cell_length_c       12.719
_cell_angle_alpha    90
_cell_angle_beta     90
_cell_angle_gamma    90

_symmetry_space_group_name_H-M    "P 1"
_symmetry_int_tables_number       1

loop_
  _symmetry_equiv_pos_as_xyz
  'x, y, z'

loop_
  _atom_site_label
  _atom_site_occupancy
  _atom_site_fract_x
  _atom_site_fract_y
  _atom_site_fract_z
  _atom_site_thermal_displace_type
  _atom_site_B_iso_or_equiv
  _atom_site_type_symbol
  Cd1      1.0000 0.96046  0.24420  0.08709  Biso   1.000  Cd
  C1       1.0000 0.06960  0.34550  0.18940  Biso   1.000  C
  C2       1.0000 0.88420  0.37080  0.99040  Biso   1.000  C
  C3       1.0000 0.08630  0.14510  0.01840  Biso   1.000  C
  C4       1.0000 0.87490  0.16450  0.21540  Biso   1.000  C
  Cd2      1.0000 0.03954  0.75580  0.58709  Biso   1.000  Cd
  C5       1.0000 0.93040  0.65450  0.68940  Biso   1.000  C
  C6       1.0000 0.11580  0.62920  0.49040  Biso   1.000  C
  C7       1.0000 0.91370  0.85490  0.51840  Biso   1.000  C
  C8       1.0000 0.12510  0.83550  0.71540  Biso   1.000  C
  Cd3      1.0000 0.25580  0.46046  0.33709  Biso   1.000  Cd
  C9       1.0000 0.15450  0.56960  0.43940  Biso   1.000  C
  C10      1.0000 0.12920  0.38420  0.24040  Biso   1.000  C
  C11      1.0000 0.35490  0.58630  0.26840  Biso   1.000  C
  C12      1.0000 0.33550  0.37490  0.46540  Biso   1.000  C
  Cd4      1.0000 0.74420  0.53954  0.83709  Biso   1.000  Cd
  C13      1.0000 0.84550  0.43040  0.93940  Biso   1.000  C
  C14      1.0000 0.87080  0.61580  0.74040  Biso   1.000  C
  C15      1.0000 0.64510  0.41370  0.76840  Biso   1.000  C
  C16      1.0000 0.66450  0.62510  0.96540  Biso   1.000  C
  Cd5      1.0000 0.53954  0.74420  0.16291  Biso   1.000  Cd
  C17      1.0000 0.43040  0.84550  0.06060  Biso   1.000  C
  C18      1.0000 0.61580  0.87080  0.25960  Biso   1.000  C
  C19      1.0000 0.41370  0.64510  0.23160  Biso   1.000  C
  C20      1.0000 0.62510  0.66450  0.03460  Biso   1.000  C
  Cd6      1.0000 0.46046  0.25580  0.66291  Biso   1.000  Cd
  C21      1.0000 0.56960  0.15450  0.56060  Biso   1.000  C
  C22      1.0000 0.38420  0.12920  0.75960  Biso   1.000  C
  C23      1.0000 0.58630  0.35490  0.73160  Biso   1.000  C
  C24      1.0000 0.37490  0.33550  0.53460  Biso   1.000  C
  Cd7      1.0000 0.24420  0.96046  0.91291  Biso   1.000  Cd
  C25      1.0000 0.34550  0.06960  0.81060  Biso   1.000  C
  C26      1.0000 0.37080  0.88420  0.00960  Biso   1.000  C
  C27      1.0000 0.14510  0.08630  0.98160  Biso   1.000  C
  C28      1.0000 0.16450  0.87490  0.78460  Biso   1.000  C
  Cd8      1.0000 0.75580  0.03954  0.41291  Biso   1.000  Cd
  C29      1.0000 0.65450  0.93040  0.31060  Biso   1.000  C
  C30      1.0000 0.62920  0.11580  0.50960  Biso   1.000  C
  C31      1.0000 0.85490  0.91370  0.48160  Biso   1.000  C
  C32      1.0000 0.83550  0.12510  0.28460  Biso   1.000  C
