data_image0
_cell_length_a       28.8641
_cell_length_b       12.8331
_cell_length_c       14.7632
_cell_angle_alpha    90
_cell_angle_beta     113.11
_cell_angle_gamma    90

_symmetry_space_group_name_H-M    "P 1"
_symmetry_int_tables_number       1

loop_
  _symmetry_equiv_pos_as_xyz
  'x, y, z'

loop_
  _atom_site_label
  _atom_site_occupancy
  _atom_site_fract_x
  _atom_site_fract_y
  _atom_site_fract_z
  _atom_site_thermal_displace_type
  _atom_site_B_iso_or_equiv
  _atom_site_type_symbol
  Ag1      1.0000 0.98649  0.88631  0.02129  Biso   1.000  Ag
  Ag2      1.0000 0.91695  0.98399  0.08870  Biso   1.000  Ag
  Ag3      1.0000 0.91878  0.95914  0.31487  Biso   1.000  Ag
  Ag4      1.0000 0.69178  0.52867  0.61847  Biso   1.000  Ag
  C1       1.0000 0.99890  0.01110  0.13030  Biso   1.000  C
  C2       1.0000 0.00750  0.09590  0.16140  Biso   1.000  C
  C3       1.0000 0.01630  0.19530  0.21610  Biso   1.000  C
  H1       1.0000 0.00610  0.25330  0.17030  Biso   1.000  H
  H2       1.0000 0.05180  0.20290  0.25720  Biso   1.000  H
  C4       1.0000 0.08730  0.77990  0.04320  Biso   1.000  C
  C5       1.0000 0.11800  0.69900  0.01580  Biso   1.000  C
  C6       1.0000 0.82390  0.04360  0.14100  Biso   1.000  C
  C7       1.0000 0.76730  0.06740  0.09530  Biso   1.000  C
  C8       1.0000 0.89970  0.74570  0.18500  Biso   1.000  C
  C9       1.0000 0.86490  0.65600  0.14900  Biso   1.000  C
  C10      1.0000 0.87450  0.81850  0.90680  Biso   1.000  C
  C11      1.0000 0.83160  0.75040  0.83840  Biso   1.000  C
  C12      1.0000 0.83970  0.68410  0.77230  Biso   1.000  C
  H3       1.0000 0.87140  0.68030  0.77020  Biso   1.000  H
  C13      1.0000 0.80020  0.62280  0.70840  Biso   1.000  C
  H4       1.0000 0.80560  0.57900  0.66320  Biso   1.000  H
  C14      1.0000 0.78450  0.75200  0.83870  Biso   1.000  C
  H5       1.0000 0.77750  0.79600  0.88180  Biso   1.000  H
  C15      1.0000 0.74800  0.69050  0.77700  Biso   1.000  C
  H6       1.0000 0.71650  0.69270  0.78020  Biso   1.000  H
  F1       1.0000 0.10120  0.67760  0.92680  Biso   1.000  F
  F2       1.0000 0.16310  0.72350  0.03530  Biso   1.000  F
  F3       1.0000 0.11940  0.61380  0.05300  Biso   1.000  F
  F4       1.0000 0.74240  0.99590  0.03310  Biso   1.000  F
  F5       1.0000 0.74620  0.07290  0.15720  Biso   1.000  F
  F6       1.0000 0.75870  0.15410  0.04770  Biso   1.000  F
  F7       1.0000 0.86520  0.62080  0.06410  Biso   1.000  F
  F8       1.0000 0.88300  0.56520  0.18700  Biso   1.000  F
  F9       1.0000 0.82330  0.66100  0.13000  Biso   1.000  F
  N1       1.0000 0.75420  0.62730  0.71250  Biso   1.000  N
  O1       1.0000 0.10860  0.86500  0.07480  Biso   1.000  O
  O2       1.0000 0.04390  0.75330  0.02550  Biso   1.000  O
  O3       1.0000 0.84260  0.04060  0.08010  Biso   1.000  O
  O4       1.0000 0.84170  0.03080  0.22950  Biso   1.000  O
  O5       1.0000 0.93590  0.75230  0.16940  Biso   1.000  O
  O6       1.0000 0.87590  0.80970  0.22650  Biso   1.000  O
  O7       1.0000 0.91840  0.78730  0.92420  Biso   1.000  O
  O8       1.0000 0.86290  0.89410  0.94530  Biso   1.000  O
  O9       1.0000 0.94350  0.73030  0.22170  Biso   1.000  O
  O10      1.0000 0.88210  0.82580  0.18030  Biso   1.000  O
  Ag5      1.0000 0.48649  0.38631  0.02129  Biso   1.000  Ag
  Ag6      1.0000 0.41695  0.48399  0.08870  Biso   1.000  Ag
  Ag7      1.0000 0.41878  0.45914  0.31487  Biso   1.000  Ag
  Ag8      1.0000 0.19178  0.02867  0.61847  Biso   1.000  Ag
  C16      1.0000 0.49890  0.51110  0.13030  Biso   1.000  C
  C17      1.0000 0.50750  0.59590  0.16140  Biso   1.000  C
  C18      1.0000 0.51630  0.69530  0.21610  Biso   1.000  C
  H7       1.0000 0.50610  0.75330  0.17030  Biso   1.000  H
  H8       1.0000 0.55180  0.70290  0.25720  Biso   1.000  H
  C19      1.0000 0.58730  0.27990  0.04320  Biso   1.000  C
  C20      1.0000 0.61800  0.19900  0.01580  Biso   1.000  C
  C21      1.0000 0.32390  0.54360  0.14100  Biso   1.000  C
  C22      1.0000 0.26730  0.56740  0.09530  Biso   1.000  C
  C23      1.0000 0.39970  0.24570  0.18500  Biso   1.000  C
  C24      1.0000 0.36490  0.15600  0.14900  Biso   1.000  C
  C25      1.0000 0.37450  0.31850  0.90680  Biso   1.000  C
  C26      1.0000 0.33160  0.25040  0.83840  Biso   1.000  C
  C27      1.0000 0.33970  0.18410  0.77230  Biso   1.000  C
  H9       1.0000 0.37140  0.18030  0.77020  Biso   1.000  H
  C28      1.0000 0.30020  0.12280  0.70840  Biso   1.000  C
  H10      1.0000 0.30560  0.07900  0.66320  Biso   1.000  H
  C29      1.0000 0.28450  0.25200  0.83870  Biso   1.000  C
  H11      1.0000 0.27750  0.29600  0.88180  Biso   1.000  H
  C30      1.0000 0.24800  0.19050  0.77700  Biso   1.000  C
  H12      1.0000 0.21650  0.19270  0.78020  Biso   1.000  H
  F10      1.0000 0.60120  0.17760  0.92680  Biso   1.000  F
  F11      1.0000 0.66310  0.22350  0.03530  Biso   1.000  F
  F12      1.0000 0.61940  0.11380  0.05300  Biso   1.000  F
  F13      1.0000 0.24240  0.49590  0.03310  Biso   1.000  F
  F14      1.0000 0.24620  0.57290  0.15720  Biso   1.000  F
  F15      1.0000 0.25870  0.65410  0.04770  Biso   1.000  F
  F16      1.0000 0.36520  0.12080  0.06410  Biso   1.000  F
  F17      1.0000 0.38300  0.06520  0.18700  Biso   1.000  F
  F18      1.0000 0.32330  0.16100  0.13000  Biso   1.000  F
  N2       1.0000 0.25420  0.12730  0.71250  Biso   1.000  N
  O11      1.0000 0.60860  0.36500  0.07480  Biso   1.000  O
  O12      1.0000 0.54390  0.25330  0.02550  Biso   1.000  O
  O13      1.0000 0.34260  0.54060  0.08010  Biso   1.000  O
  O14      1.0000 0.34170  0.53080  0.22950  Biso   1.000  O
  O15      1.0000 0.43590  0.25230  0.16940  Biso   1.000  O
  O16      1.0000 0.37590  0.30970  0.22650  Biso   1.000  O
  O17      1.0000 0.41840  0.28730  0.92420  Biso   1.000  O
  O18      1.0000 0.36290  0.39410  0.94530  Biso   1.000  O
  O19      1.0000 0.44350  0.23030  0.22170  Biso   1.000  O
  O20      1.0000 0.38210  0.32580  0.18030  Biso   1.000  O
  Ag9      1.0000 0.01351  0.88631  0.47871  Biso   1.000  Ag
  Ag10     1.0000 0.08305  0.98399  0.41130  Biso   1.000  Ag
  Ag11     1.0000 0.08122  0.95914  0.18513  Biso   1.000  Ag
  Ag12     1.0000 0.30822  0.52867  0.88153  Biso   1.000  Ag
  C31      1.0000 0.00110  0.01110  0.36970  Biso   1.000  C
  C32      1.0000 0.99250  0.09590  0.33860  Biso   1.000  C
  C33      1.0000 0.98370  0.19530  0.28390  Biso   1.000  C
  H13      1.0000 0.99390  0.25330  0.32970  Biso   1.000  H
  H14      1.0000 0.94820  0.20290  0.24280  Biso   1.000  H
  C34      1.0000 0.91270  0.77990  0.45680  Biso   1.000  C
  C35      1.0000 0.88200  0.69900  0.48420  Biso   1.000  C
  C36      1.0000 0.17610  0.04360  0.35900  Biso   1.000  C
  C37      1.0000 0.23270  0.06740  0.40470  Biso   1.000  C
  C38      1.0000 0.10030  0.74570  0.31500  Biso   1.000  C
  C39      1.0000 0.13510  0.65600  0.35100  Biso   1.000  C
  C40      1.0000 0.12550  0.81850  0.59320  Biso   1.000  C
  C41      1.0000 0.16840  0.75040  0.66160  Biso   1.000  C
  C42      1.0000 0.16030  0.68410  0.72770  Biso   1.000  C
  H15      1.0000 0.12860  0.68030  0.72980  Biso   1.000  H
  C43      1.0000 0.19980  0.62280  0.79160  Biso   1.000  C
  H16      1.0000 0.19440  0.57900  0.83680  Biso   1.000  H
  C44      1.0000 0.21550  0.75200  0.66130  Biso   1.000  C
  H17      1.0000 0.22250  0.79600  0.61820  Biso   1.000  H
  C45      1.0000 0.25200  0.69050  0.72300  Biso   1.000  C
  H18      1.0000 0.28350  0.69270  0.71980  Biso   1.000  H
  F19      1.0000 0.89880  0.67760  0.57320  Biso   1.000  F
  F20      1.0000 0.83690  0.72350  0.46470  Biso   1.000  F
  F21      1.0000 0.88060  0.61380  0.44700  Biso   1.000  F
  F22      1.0000 0.25760  0.99590  0.46690  Biso   1.000  F
  F23      1.0000 0.25380  0.07290  0.34280  Biso   1.000  F
  F24      1.0000 0.24130  0.15410  0.45230  Biso   1.000  F
  F25      1.0000 0.13480  0.62080  0.43590  Biso   1.000  F
  F26      1.0000 0.11700  0.56520  0.31300  Biso   1.000  F
  F27      1.0000 0.17670  0.66100  0.37000  Biso   1.000  F
  N3       1.0000 0.24580  0.62730  0.78750  Biso   1.000  N
  O21      1.0000 0.89140  0.86500  0.42520  Biso   1.000  O
  O22      1.0000 0.95610  0.75330  0.47450  Biso   1.000  O
  O23      1.0000 0.15740  0.04060  0.41990  Biso   1.000  O
  O24      1.0000 0.15830  0.03080  0.27050  Biso   1.000  O
  O25      1.0000 0.06410  0.75230  0.33060  Biso   1.000  O
  O26      1.0000 0.12410  0.80970  0.27350  Biso   1.000  O
  O27      1.0000 0.08160  0.78730  0.57580  Biso   1.000  O
  O28      1.0000 0.13710  0.89410  0.55470  Biso   1.000  O
  O29      1.0000 0.05650  0.73030  0.27830  Biso   1.000  O
  O30      1.0000 0.11790  0.82580  0.31970  Biso   1.000  O
  Ag13     1.0000 0.51351  0.38631  0.47871  Biso   1.000  Ag
  Ag14     1.0000 0.58305  0.48399  0.41130  Biso   1.000  Ag
  Ag15     1.0000 0.58122  0.45914  0.18513  Biso   1.000  Ag
  Ag16     1.0000 0.80822  0.02867  0.88153  Biso   1.000  Ag
  C46      1.0000 0.50110  0.51110  0.36970  Biso   1.000  C
  C47      1.0000 0.49250  0.59590  0.33860  Biso   1.000  C
  C48      1.0000 0.48370  0.69530  0.28390  Biso   1.000  C
  H19      1.0000 0.49390  0.75330  0.32970  Biso   1.000  H
  H20      1.0000 0.44820  0.70290  0.24280  Biso   1.000  H
  C49      1.0000 0.41270  0.27990  0.45680  Biso   1.000  C
  C50      1.0000 0.38200  0.19900  0.48420  Biso   1.000  C
  C51      1.0000 0.67610  0.54360  0.35900  Biso   1.000  C
  C52      1.0000 0.73270  0.56740  0.40470  Biso   1.000  C
  C53      1.0000 0.60030  0.24570  0.31500  Biso   1.000  C
  C54      1.0000 0.63510  0.15600  0.35100  Biso   1.000  C
  C55      1.0000 0.62550  0.31850  0.59320  Biso   1.000  C
  C56      1.0000 0.66840  0.25040  0.66160  Biso   1.000  C
  C57      1.0000 0.66030  0.18410  0.72770  Biso   1.000  C
  H21      1.0000 0.62860  0.18030  0.72980  Biso   1.000  H
  C58      1.0000 0.69980  0.12280  0.79160  Biso   1.000  C
  H22      1.0000 0.69440  0.07900  0.83680  Biso   1.000  H
  C59      1.0000 0.71550  0.25200  0.66130  Biso   1.000  C
  H23      1.0000 0.72250  0.29600  0.61820  Biso   1.000  H
  C60      1.0000 0.75200  0.19050  0.72300  Biso   1.000  C
  H24      1.0000 0.78350  0.19270  0.71980  Biso   1.000  H
  F28      1.0000 0.39880  0.17760  0.57320  Biso   1.000  F
  F29      1.0000 0.33690  0.22350  0.46470  Biso   1.000  F
  F30      1.0000 0.38060  0.11380  0.44700  Biso   1.000  F
  F31      1.0000 0.75760  0.49590  0.46690  Biso   1.000  F
  F32      1.0000 0.75380  0.57290  0.34280  Biso   1.000  F
  F33      1.0000 0.74130  0.65410  0.45230  Biso   1.000  F
  F34      1.0000 0.63480  0.12080  0.43590  Biso   1.000  F
  F35      1.0000 0.61700  0.06520  0.31300  Biso   1.000  F
  F36      1.0000 0.67670  0.16100  0.37000  Biso   1.000  F
  N4       1.0000 0.74580  0.12730  0.78750  Biso   1.000  N
  O31      1.0000 0.39140  0.36500  0.42520  Biso   1.000  O
  O32      1.0000 0.45610  0.25330  0.47450  Biso   1.000  O
  O33      1.0000 0.65740  0.54060  0.41990  Biso   1.000  O
  O34      1.0000 0.65830  0.53080  0.27050  Biso   1.000  O
  O35      1.0000 0.56410  0.25230  0.33060  Biso   1.000  O
  O36      1.0000 0.62410  0.30970  0.27350  Biso   1.000  O
  O37      1.0000 0.58160  0.28730  0.57580  Biso   1.000  O
  O38      1.0000 0.63710  0.39410  0.55470  Biso   1.000  O
  O39      1.0000 0.55650  0.23030  0.27830  Biso   1.000  O
  O40      1.0000 0.61790  0.32580  0.31970  Biso   1.000  O
  Ag17     1.0000 0.01351  0.11369  0.97871  Biso   1.000  Ag
  Ag18     1.0000 0.08305  0.01601  0.91130  Biso   1.000  Ag
  Ag19     1.0000 0.08122  0.04086  0.68513  Biso   1.000  Ag
  Ag20     1.0000 0.30822  0.47133  0.38153  Biso   1.000  Ag
  C61      1.0000 0.00110  0.98890  0.86970  Biso   1.000  C
  C62      1.0000 0.99250  0.90410  0.83860  Biso   1.000  C
  C63      1.0000 0.98370  0.80470  0.78390  Biso   1.000  C
  H25      1.0000 0.99390  0.74670  0.82970  Biso   1.000  H
  H26      1.0000 0.94820  0.79710  0.74280  Biso   1.000  H
  C64      1.0000 0.91270  0.22010  0.95680  Biso   1.000  C
  C65      1.0000 0.88200  0.30100  0.98420  Biso   1.000  C
  C66      1.0000 0.17610  0.95640  0.85900  Biso   1.000  C
  C67      1.0000 0.23270  0.93260  0.90470  Biso   1.000  C
  C68      1.0000 0.10030  0.25430  0.81500  Biso   1.000  C
  C69      1.0000 0.13510  0.34400  0.85100  Biso   1.000  C
  C70      1.0000 0.12550  0.18150  0.09320  Biso   1.000  C
  C71      1.0000 0.16840  0.24960  0.16160  Biso   1.000  C
  C72      1.0000 0.16030  0.31590  0.22770  Biso   1.000  C
  H27      1.0000 0.12860  0.31970  0.22980  Biso   1.000  H
  C73      1.0000 0.19980  0.37720  0.29160  Biso   1.000  C
  H28      1.0000 0.19440  0.42100  0.33680  Biso   1.000  H
  C74      1.0000 0.21550  0.24800  0.16130  Biso   1.000  C
  H29      1.0000 0.22250  0.20400  0.11820  Biso   1.000  H
  C75      1.0000 0.25200  0.30950  0.22300  Biso   1.000  C
  H30      1.0000 0.28350  0.30730  0.21980  Biso   1.000  H
  F37      1.0000 0.89880  0.32240  0.07320  Biso   1.000  F
  F38      1.0000 0.83690  0.27650  0.96470  Biso   1.000  F
  F39      1.0000 0.88060  0.38620  0.94700  Biso   1.000  F
  F40      1.0000 0.25760  0.00410  0.96690  Biso   1.000  F
  F41      1.0000 0.25380  0.92710  0.84280  Biso   1.000  F
  F42      1.0000 0.24130  0.84590  0.95230  Biso   1.000  F
  F43      1.0000 0.13480  0.37920  0.93590  Biso   1.000  F
  F44      1.0000 0.11700  0.43480  0.81300  Biso   1.000  F
  F45      1.0000 0.17670  0.33900  0.87000  Biso   1.000  F
  N5       1.0000 0.24580  0.37270  0.28750  Biso   1.000  N
  O41      1.0000 0.89140  0.13500  0.92520  Biso   1.000  O
  O42      1.0000 0.95610  0.24670  0.97450  Biso   1.000  O
  O43      1.0000 0.15740  0.95940  0.91990  Biso   1.000  O
  O44      1.0000 0.15830  0.96920  0.77050  Biso   1.000  O
  O45      1.0000 0.06410  0.24770  0.83060  Biso   1.000  O
  O46      1.0000 0.12410  0.19030  0.77350  Biso   1.000  O
  O47      1.0000 0.08160  0.21270  0.07580  Biso   1.000  O
  O48      1.0000 0.13710  0.10590  0.05470  Biso   1.000  O
  O49      1.0000 0.05650  0.26970  0.77830  Biso   1.000  O
  O50      1.0000 0.11790  0.17420  0.81970  Biso   1.000  O
  Ag21     1.0000 0.51351  0.61369  0.97871  Biso   1.000  Ag
  Ag22     1.0000 0.58305  0.51601  0.91130  Biso   1.000  Ag
  Ag23     1.0000 0.58122  0.54086  0.68513  Biso   1.000  Ag
  Ag24     1.0000 0.80822  0.97133  0.38153  Biso   1.000  Ag
  C76      1.0000 0.50110  0.48890  0.86970  Biso   1.000  C
  C77      1.0000 0.49250  0.40410  0.83860  Biso   1.000  C
  C78      1.0000 0.48370  0.30470  0.78390  Biso   1.000  C
  H31      1.0000 0.49390  0.24670  0.82970  Biso   1.000  H
  H32      1.0000 0.44820  0.29710  0.74280  Biso   1.000  H
  C79      1.0000 0.41270  0.72010  0.95680  Biso   1.000  C
  C80      1.0000 0.38200  0.80100  0.98420  Biso   1.000  C
  C81      1.0000 0.67610  0.45640  0.85900  Biso   1.000  C
  C82      1.0000 0.73270  0.43260  0.90470  Biso   1.000  C
  C83      1.0000 0.60030  0.75430  0.81500  Biso   1.000  C
  C84      1.0000 0.63510  0.84400  0.85100  Biso   1.000  C
  C85      1.0000 0.62550  0.68150  0.09320  Biso   1.000  C
  C86      1.0000 0.66840  0.74960  0.16160  Biso   1.000  C
  C87      1.0000 0.66030  0.81590  0.22770  Biso   1.000  C
  H33      1.0000 0.62860  0.81970  0.22980  Biso   1.000  H
  C88      1.0000 0.69980  0.87720  0.29160  Biso   1.000  C
  H34      1.0000 0.69440  0.92100  0.33680  Biso   1.000  H
  C89      1.0000 0.71550  0.74800  0.16130  Biso   1.000  C
  H35      1.0000 0.72250  0.70400  0.11820  Biso   1.000  H
  C90      1.0000 0.75200  0.80950  0.22300  Biso   1.000  C
  H36      1.0000 0.78350  0.80730  0.21980  Biso   1.000  H
  F46      1.0000 0.39880  0.82240  0.07320  Biso   1.000  F
  F47      1.0000 0.33690  0.77650  0.96470  Biso   1.000  F
  F48      1.0000 0.38060  0.88620  0.94700  Biso   1.000  F
  F49      1.0000 0.75760  0.50410  0.96690  Biso   1.000  F
  F50      1.0000 0.75380  0.42710  0.84280  Biso   1.000  F
  F51      1.0000 0.74130  0.34590  0.95230  Biso   1.000  F
  F52      1.0000 0.63480  0.87920  0.93590  Biso   1.000  F
  F53      1.0000 0.61700  0.93480  0.81300  Biso   1.000  F
  F54      1.0000 0.67670  0.83900  0.87000  Biso   1.000  F
  N6       1.0000 0.74580  0.87270  0.28750  Biso   1.000  N
  O51      1.0000 0.39140  0.63500  0.92520  Biso   1.000  O
  O52      1.0000 0.45610  0.74670  0.97450  Biso   1.000  O
  O53      1.0000 0.65740  0.45940  0.91990  Biso   1.000  O
  O54      1.0000 0.65830  0.46920  0.77050  Biso   1.000  O
  O55      1.0000 0.56410  0.74770  0.83060  Biso   1.000  O
  O56      1.0000 0.62410  0.69030  0.77350  Biso   1.000  O
  O57      1.0000 0.58160  0.71270  0.07580  Biso   1.000  O
  O58      1.0000 0.63710  0.60590  0.05470  Biso   1.000  O
  O59      1.0000 0.55650  0.76970  0.77830  Biso   1.000  O
  O60      1.0000 0.61790  0.67420  0.81970  Biso   1.000  O
  Ag25     1.0000 0.98649  0.11369  0.52129  Biso   1.000  Ag
  Ag26     1.0000 0.91695  0.01601  0.58870  Biso   1.000  Ag
  Ag27     1.0000 0.91878  0.04086  0.81487  Biso   1.000  Ag
  Ag28     1.0000 0.69178  0.47133  0.11847  Biso   1.000  Ag
  C91      1.0000 0.99890  0.98890  0.63030  Biso   1.000  C
  C92      1.0000 0.00750  0.90410  0.66140  Biso   1.000  C
  C93      1.0000 0.01630  0.80470  0.71610  Biso   1.000  C
  H37      1.0000 0.00610  0.74670  0.67030  Biso   1.000  H
  H38      1.0000 0.05180  0.79710  0.75720  Biso   1.000  H
  C94      1.0000 0.08730  0.22010  0.54320  Biso   1.000  C
  C95      1.0000 0.11800  0.30100  0.51580  Biso   1.000  C
  C96      1.0000 0.82390  0.95640  0.64100  Biso   1.000  C
  C97      1.0000 0.76730  0.93260  0.59530  Biso   1.000  C
  C98      1.0000 0.89970  0.25430  0.68500  Biso   1.000  C
  C99      1.0000 0.86490  0.34400  0.64900  Biso   1.000  C
  C100     1.0000 0.87450  0.18150  0.40680  Biso   1.000  C
  C101     1.0000 0.83160  0.24960  0.33840  Biso   1.000  C
  C102     1.0000 0.83970  0.31590  0.27230  Biso   1.000  C
  H39      1.0000 0.87140  0.31970  0.27020  Biso   1.000  H
  C103     1.0000 0.80020  0.37720  0.20840  Biso   1.000  C
  H40      1.0000 0.80560  0.42100  0.16320  Biso   1.000  H
  C104     1.0000 0.78450  0.24800  0.33870  Biso   1.000  C
  H41      1.0000 0.77750  0.20400  0.38180  Biso   1.000  H
  C105     1.0000 0.74800  0.30950  0.27700  Biso   1.000  C
  H42      1.0000 0.71650  0.30730  0.28020  Biso   1.000  H
  F55      1.0000 0.10120  0.32240  0.42680  Biso   1.000  F
  F56      1.0000 0.16310  0.27650  0.53530  Biso   1.000  F
  F57      1.0000 0.11940  0.38620  0.55300  Biso   1.000  F
  F58      1.0000 0.74240  0.00410  0.53310  Biso   1.000  F
  F59      1.0000 0.74620  0.92710  0.65720  Biso   1.000  F
  F60      1.0000 0.75870  0.84590  0.54770  Biso   1.000  F
  F61      1.0000 0.86520  0.37920  0.56410  Biso   1.000  F
  F62      1.0000 0.88300  0.43480  0.68700  Biso   1.000  F
  F63      1.0000 0.82330  0.33900  0.63000  Biso   1.000  F
  N7       1.0000 0.75420  0.37270  0.21250  Biso   1.000  N
  O61      1.0000 0.10860  0.13500  0.57480  Biso   1.000  O
  O62      1.0000 0.04390  0.24670  0.52550  Biso   1.000  O
  O63      1.0000 0.84260  0.95940  0.58010  Biso   1.000  O
  O64      1.0000 0.84170  0.96920  0.72950  Biso   1.000  O
  O65      1.0000 0.93590  0.24770  0.66940  Biso   1.000  O
  O66      1.0000 0.87590  0.19030  0.72650  Biso   1.000  O
  O67      1.0000 0.91840  0.21270  0.42420  Biso   1.000  O
  O68      1.0000 0.86290  0.10590  0.44530  Biso   1.000  O
  O69      1.0000 0.94350  0.26970  0.72170  Biso   1.000  O
  O70      1.0000 0.88210  0.17420  0.68030  Biso   1.000  O
  Ag29     1.0000 0.48649  0.61369  0.52129  Biso   1.000  Ag
  Ag30     1.0000 0.41695  0.51601  0.58870  Biso   1.000  Ag
  Ag31     1.0000 0.41878  0.54086  0.81487  Biso   1.000  Ag
  Ag32     1.0000 0.19178  0.97133  0.11847  Biso   1.000  Ag
  C106     1.0000 0.49890  0.48890  0.63030  Biso   1.000  C
  C107     1.0000 0.50750  0.40410  0.66140  Biso   1.000  C
  C108     1.0000 0.51630  0.30470  0.71610  Biso   1.000  C
  H43      1.0000 0.50610  0.24670  0.67030  Biso   1.000  H
  H44      1.0000 0.55180  0.29710  0.75720  Biso   1.000  H
  C109     1.0000 0.58730  0.72010  0.54320  Biso   1.000  C
  C110     1.0000 0.61800  0.80100  0.51580  Biso   1.000  C
  C111     1.0000 0.32390  0.45640  0.64100  Biso   1.000  C
  C112     1.0000 0.26730  0.43260  0.59530  Biso   1.000  C
  C113     1.0000 0.39970  0.75430  0.68500  Biso   1.000  C
  C114     1.0000 0.36490  0.84400  0.64900  Biso   1.000  C
  C115     1.0000 0.37450  0.68150  0.40680  Biso   1.000  C
  C116     1.0000 0.33160  0.74960  0.33840  Biso   1.000  C
  C117     1.0000 0.33970  0.81590  0.27230  Biso   1.000  C
  H45      1.0000 0.37140  0.81970  0.27020  Biso   1.000  H
  C118     1.0000 0.30020  0.87720  0.20840  Biso   1.000  C
  H46      1.0000 0.30560  0.92100  0.16320  Biso   1.000  H
  C119     1.0000 0.28450  0.74800  0.33870  Biso   1.000  C
  H47      1.0000 0.27750  0.70400  0.38180  Biso   1.000  H
  C120     1.0000 0.24800  0.80950  0.27700  Biso   1.000  C
  H48      1.0000 0.21650  0.80730  0.28020  Biso   1.000  H
  F64      1.0000 0.60120  0.82240  0.42680  Biso   1.000  F
  F65      1.0000 0.66310  0.77650  0.53530  Biso   1.000  F
  F66      1.0000 0.61940  0.88620  0.55300  Biso   1.000  F
  F67      1.0000 0.24240  0.50410  0.53310  Biso   1.000  F
  F68      1.0000 0.24620  0.42710  0.65720  Biso   1.000  F
  F69      1.0000 0.25870  0.34590  0.54770  Biso   1.000  F
  F70      1.0000 0.36520  0.87920  0.56410  Biso   1.000  F
  F71      1.0000 0.38300  0.93480  0.68700  Biso   1.000  F
  F72      1.0000 0.32330  0.83900  0.63000  Biso   1.000  F
  N8       1.0000 0.25420  0.87270  0.21250  Biso   1.000  N
  O71      1.0000 0.60860  0.63500  0.57480  Biso   1.000  O
  O72      1.0000 0.54390  0.74670  0.52550  Biso   1.000  O
  O73      1.0000 0.34260  0.45940  0.58010  Biso   1.000  O
  O74      1.0000 0.34170  0.46920  0.72950  Biso   1.000  O
  O75      1.0000 0.43590  0.74770  0.66940  Biso   1.000  O
  O76      1.0000 0.37590  0.69030  0.72650  Biso   1.000  O
  O77      1.0000 0.41840  0.71270  0.42420  Biso   1.000  O
  O78      1.0000 0.36290  0.60590  0.44530  Biso   1.000  O
  O79      1.0000 0.44350  0.76970  0.72170  Biso   1.000  O
  O80      1.0000 0.38210  0.67420  0.68030  Biso   1.000  O
  Ag33     1.0000 0.00000  0.87028  0.25000  Biso   1.000  Ag
  Ag34     1.0000 0.50000  0.37028  0.25000  Biso   1.000  Ag
  Ag35     1.0000 0.00000  0.12972  0.75000  Biso   1.000  Ag
  Ag36     1.0000 0.50000  0.62972  0.75000  Biso   1.000  Ag
