data_image0
_cell_length_a       18.216
_cell_length_b       18.216
_cell_length_c       16.483
_cell_angle_alpha    90
_cell_angle_beta     90
_cell_angle_gamma    90

_symmetry_space_group_name_H-M    "P 1"
_symmetry_int_tables_number       1

loop_
  _symmetry_equiv_pos_as_xyz
  'x, y, z'

loop_
  _atom_site_label
  _atom_site_occupancy
  _atom_site_fract_x
  _atom_site_fract_y
  _atom_site_fract_z
  _atom_site_thermal_displace_type
  _atom_site_B_iso_or_equiv
  _atom_site_type_symbol
  C1       1.0000 0.53560  0.35540  0.01140  Biso   1.000  C
  H1       1.0000 0.55540  0.30630  0.00510  Biso   1.000  H
  H2       1.0000 0.49620  0.35310  0.05090  Biso   1.000  H
  C2       1.0000 0.50600  0.38140  0.93210  Biso   1.000  C
  H3       1.0000 0.48320  0.42910  0.93920  Biso   1.000  H
  H4       1.0000 0.46870  0.34750  0.91310  Biso   1.000  H
  C3       1.0000 0.79810  0.54520  0.69860  Biso   1.000  C
  H5       1.0000 0.78420  0.59070  0.71910  Biso   1.000  H
  C4       1.0000 0.84470  0.54160  0.63450  Biso   1.000  C
  H6       1.0000 0.86160  0.58460  0.61040  Biso   1.000  H
  C5       1.0000 0.56680  0.38710  0.86910  Biso   1.000  C
  H7       1.0000 0.54640  0.40650  0.81920  Biso   1.000  H
  H8       1.0000 0.58550  0.33830  0.85780  Biso   1.000  H
  C6       1.0000 0.59590  0.40670  0.04250  Biso   1.000  C
  H9       1.0000 0.61500  0.38840  0.09350  Biso   1.000  H
  H10      1.0000 0.57570  0.45520  0.05180  Biso   1.000  H
  C7       1.0000 0.84210  0.40840  0.63870  Biso   1.000  C
  H11      1.0000 0.85780  0.36370  0.61770  Biso   1.000  H
  C8       1.0000 0.86760  0.47320  0.60430  Biso   1.000  C
  H12      1.0000 0.90010  0.47130  0.56090  Biso   1.000  H
  C9       1.0000 0.79330  0.40900  0.70400  Biso   1.000  C
  C10      1.0000 0.63070  0.43630  0.89640  Biso   1.000  C
  H13      1.0000 0.61390  0.48730  0.90010  Biso   1.000  H
  C11      1.0000 0.65880  0.41110  0.97870  Biso   1.000  C
  H14      1.0000 0.68080  0.36230  0.97280  Biso   1.000  H
  C12      1.0000 0.83250  0.48270  0.07240  Biso   1.000  C
  C13      1.0000 0.77570  0.43880  0.03830  Biso   1.000  C
  H15      1.0000 0.78330  0.38830  0.03820  Biso   1.000  H
  C14      1.0000 0.77060  0.48020  0.73460  Biso   1.000  C
  C15      1.0000 0.72030  0.48570  0.79910  Biso   1.000  C
  H16      1.0000 0.70880  0.53250  0.81770  Biso   1.000  H
  C16      1.0000 0.88540  0.59990  0.11160  Biso   1.000  C
  H17      1.0000 0.88430  0.65090  0.11440  Biso   1.000  H
  C17      1.0000 0.82750  0.56240  0.07380  Biso   1.000  C
  C18      1.0000 0.89490  0.44900  0.10720  Biso   1.000  C
  H18      1.0000 0.89860  0.39810  0.10560  Biso   1.000  H
  C19      1.0000 0.94840  0.48700  0.14220  Biso   1.000  C
  H19      1.0000 0.98870  0.46310  0.16480  Biso   1.000  H
  C20      1.0000 0.94340  0.56260  0.14440  Biso   1.000  C
  H20      1.0000 0.98080  0.58910  0.16910  Biso   1.000  H
  N1       1.0000 0.71460  0.46170  0.00760  Biso   1.000  N
  H21      1.0000 0.70680  0.50820  0.00410  Biso   1.000  H
  N2       1.0000 0.68870  0.43050  0.83460  Biso   1.000  N
  H22      1.0000 0.70280  0.38720  0.82100  Biso   1.000  H
  N3       1.0000 0.76370  0.22330  0.93380  Biso   1.000  N
  O1       1.0000 0.75150  0.22590  0.00750  Biso   1.000  O
  O2       1.0000 0.77630  0.16370  0.89800  Biso   1.000  O
  O3       1.0000 0.76550  0.34874  0.73500  Biso   1.000  O
  O4       1.0000 0.75910  0.28030  0.89190  Biso   1.000  O
  O5       1.0000 0.77120  0.59590  0.04050  Biso   1.000  O
  Cl1      1.0000 0.89960  0.11070  0.74220  Biso   1.000  Cl
  C21      1.0000 0.46440  0.64460  0.51140  Biso   1.000  C
  H23      1.0000 0.44460  0.69370  0.50510  Biso   1.000  H
  H24      1.0000 0.50380  0.64690  0.55090  Biso   1.000  H
  C22      1.0000 0.49400  0.61860  0.43210  Biso   1.000  C
  H25      1.0000 0.51680  0.57090  0.43920  Biso   1.000  H
  H26      1.0000 0.53130  0.65250  0.41310  Biso   1.000  H
  C23      1.0000 0.20190  0.45480  0.19860  Biso   1.000  C
  H27      1.0000 0.21580  0.40930  0.21910  Biso   1.000  H
  C24      1.0000 0.15530  0.45840  0.13450  Biso   1.000  C
  H28      1.0000 0.13840  0.41540  0.11040  Biso   1.000  H
  C25      1.0000 0.43320  0.61290  0.36910  Biso   1.000  C
  H29      1.0000 0.45360  0.59350  0.31920  Biso   1.000  H
  H30      1.0000 0.41450  0.66170  0.35780  Biso   1.000  H
  C26      1.0000 0.40410  0.59330  0.54250  Biso   1.000  C
  H31      1.0000 0.38500  0.61160  0.59350  Biso   1.000  H
  H32      1.0000 0.42430  0.54480  0.55180  Biso   1.000  H
  C27      1.0000 0.15790  0.59160  0.13870  Biso   1.000  C
  H33      1.0000 0.14220  0.63630  0.11770  Biso   1.000  H
  C28      1.0000 0.13240  0.52680  0.10430  Biso   1.000  C
  H34      1.0000 0.09990  0.52870  0.06090  Biso   1.000  H
  C29      1.0000 0.20670  0.59100  0.20400  Biso   1.000  C
  C30      1.0000 0.36930  0.56370  0.39640  Biso   1.000  C
  H35      1.0000 0.38610  0.51270  0.40010  Biso   1.000  H
  C31      1.0000 0.34120  0.58890  0.47870  Biso   1.000  C
  H36      1.0000 0.31920  0.63770  0.47280  Biso   1.000  H
  C32      1.0000 0.16750  0.51730  0.57240  Biso   1.000  C
  C33      1.0000 0.22430  0.56120  0.53830  Biso   1.000  C
  H37      1.0000 0.21670  0.61170  0.53820  Biso   1.000  H
  C34      1.0000 0.22940  0.51980  0.23460  Biso   1.000  C
  C35      1.0000 0.27970  0.51430  0.29910  Biso   1.000  C
  H38      1.0000 0.29120  0.46750  0.31770  Biso   1.000  H
  C36      1.0000 0.11460  0.40010  0.61160  Biso   1.000  C
  H39      1.0000 0.11570  0.34910  0.61440  Biso   1.000  H
  C37      1.0000 0.17250  0.43760  0.57380  Biso   1.000  C
  C38      1.0000 0.10510  0.55100  0.60720  Biso   1.000  C
  H40      1.0000 0.10140  0.60190  0.60560  Biso   1.000  H
  C39      1.0000 0.05160  0.51300  0.64220  Biso   1.000  C
  H41      1.0000 0.01130  0.53690  0.66480  Biso   1.000  H
  C40      1.0000 0.05660  0.43740  0.64440  Biso   1.000  C
  H42      1.0000 0.01920  0.41090  0.66910  Biso   1.000  H
  N4       1.0000 0.28540  0.53830  0.50760  Biso   1.000  N
  H43      1.0000 0.29320  0.49180  0.50410  Biso   1.000  H
  N5       1.0000 0.31130  0.56950  0.33460  Biso   1.000  N
  H44      1.0000 0.29720  0.61280  0.32100  Biso   1.000  H
  N6       1.0000 0.23630  0.77670  0.43380  Biso   1.000  N
  O6       1.0000 0.24850  0.77410  0.50750  Biso   1.000  O
  O7       1.0000 0.22370  0.83630  0.39800  Biso   1.000  O
  O8       1.0000 0.23450  0.65126  0.23500  Biso   1.000  O
  O9       1.0000 0.24090  0.71970  0.39190  Biso   1.000  O
  O10      1.0000 0.22880  0.40410  0.54050  Biso   1.000  O
  Cl2      1.0000 0.10040  0.88930  0.24220  Biso   1.000  Cl
  C41      1.0000 0.14460  0.03560  0.76140  Biso   1.000  C
  H45      1.0000 0.19370  0.05540  0.75510  Biso   1.000  H
  H46      1.0000 0.14690  0.99620  0.80090  Biso   1.000  H
  C42      1.0000 0.11860  0.00600  0.68210  Biso   1.000  C
  H47      1.0000 0.07090  0.98320  0.68920  Biso   1.000  H
  H48      1.0000 0.15250  0.96870  0.66310  Biso   1.000  H
  C43      1.0000 0.95480  0.29810  0.44860  Biso   1.000  C
  H49      1.0000 0.90930  0.28420  0.46910  Biso   1.000  H
  C44      1.0000 0.95840  0.34470  0.38450  Biso   1.000  C
  H50      1.0000 0.91540  0.36160  0.36040  Biso   1.000  H
  C45      1.0000 0.11290  0.06680  0.61910  Biso   1.000  C
  H51      1.0000 0.09350  0.04640  0.56920  Biso   1.000  H
  H52      1.0000 0.16170  0.08550  0.60780  Biso   1.000  H
  C46      1.0000 0.09330  0.09590  0.79250  Biso   1.000  C
  H53      1.0000 0.11160  0.11500  0.84350  Biso   1.000  H
  H54      1.0000 0.04480  0.07570  0.80180  Biso   1.000  H
  C47      1.0000 0.09160  0.34210  0.38870  Biso   1.000  C
  H55      1.0000 0.13630  0.35780  0.36770  Biso   1.000  H
  C48      1.0000 0.02680  0.36760  0.35430  Biso   1.000  C
  H56      1.0000 0.02870  0.40010  0.31090  Biso   1.000  H
  C49      1.0000 0.09100  0.29330  0.45400  Biso   1.000  C
  C50      1.0000 0.06370  0.13070  0.64640  Biso   1.000  C
  H57      1.0000 0.01270  0.11390  0.65010  Biso   1.000  H
  C51      1.0000 0.08890  0.15880  0.72870  Biso   1.000  C
  H58      1.0000 0.13770  0.18080  0.72280  Biso   1.000  H
  C52      1.0000 0.01730  0.33250  0.82240  Biso   1.000  C
  C53      1.0000 0.06120  0.27570  0.78830  Biso   1.000  C
  H59      1.0000 0.11170  0.28330  0.78820  Biso   1.000  H
  C54      1.0000 0.01980  0.27060  0.48460  Biso   1.000  C
  C55      1.0000 0.01430  0.22030  0.54910  Biso   1.000  C
  H60      1.0000 0.96750  0.20880  0.56770  Biso   1.000  H
  C56      1.0000 0.90010  0.38540  0.86160  Biso   1.000  C
  H61      1.0000 0.84910  0.38430  0.86440  Biso   1.000  H
  C57      1.0000 0.93760  0.32750  0.82380  Biso   1.000  C
  C58      1.0000 0.05100  0.39490  0.85720  Biso   1.000  C
  H62      1.0000 0.10190  0.39860  0.85560  Biso   1.000  H
  C59      1.0000 0.01300  0.44840  0.89220  Biso   1.000  C
  H63      1.0000 0.03690  0.48870  0.91480  Biso   1.000  H
  C60      1.0000 0.93740  0.44340  0.89440  Biso   1.000  C
  H64      1.0000 0.91090  0.48080  0.91910  Biso   1.000  H
  N7       1.0000 0.03830  0.21460  0.75760  Biso   1.000  N
  H65      1.0000 0.99180  0.20680  0.75410  Biso   1.000  H
  N8       1.0000 0.06950  0.18870  0.58460  Biso   1.000  N
  H66      1.0000 0.11280  0.20280  0.57100  Biso   1.000  H
  N9       1.0000 0.27670  0.26370  0.68380  Biso   1.000  N
  O11      1.0000 0.27410  0.25150  0.75750  Biso   1.000  O
  O12      1.0000 0.33630  0.27630  0.64800  Biso   1.000  O
  O13      1.0000 0.15126  0.26550  0.48500  Biso   1.000  O
  O14      1.0000 0.21970  0.25910  0.64190  Biso   1.000  O
  O15      1.0000 0.90410  0.27120  0.79050  Biso   1.000  O
  Cl3      1.0000 0.38930  0.39960  0.49220  Biso   1.000  Cl
  C61      1.0000 0.85540  0.96440  0.26140  Biso   1.000  C
  H67      1.0000 0.80630  0.94460  0.25510  Biso   1.000  H
  H68      1.0000 0.85310  0.00380  0.30090  Biso   1.000  H
  C62      1.0000 0.88140  0.99400  0.18210  Biso   1.000  C
  H69      1.0000 0.92910  0.01680  0.18920  Biso   1.000  H
  H70      1.0000 0.84750  0.03130  0.16310  Biso   1.000  H
  C63      1.0000 0.04520  0.70190  0.94860  Biso   1.000  C
  H71      1.0000 0.09070  0.71580  0.96910  Biso   1.000  H
  C64      1.0000 0.04160  0.65530  0.88450  Biso   1.000  C
  H72      1.0000 0.08460  0.63840  0.86040  Biso   1.000  H
  C65      1.0000 0.88710  0.93320  0.11910  Biso   1.000  C
  H73      1.0000 0.90650  0.95360  0.06920  Biso   1.000  H
  H74      1.0000 0.83830  0.91450  0.10780  Biso   1.000  H
  C66      1.0000 0.90670  0.90410  0.29250  Biso   1.000  C
  H75      1.0000 0.88840  0.88500  0.34350  Biso   1.000  H
  H76      1.0000 0.95520  0.92430  0.30180  Biso   1.000  H
  C67      1.0000 0.90840  0.65790  0.88870  Biso   1.000  C
  H77      1.0000 0.86370  0.64220  0.86770  Biso   1.000  H
  C68      1.0000 0.97320  0.63240  0.85430  Biso   1.000  C
  H78      1.0000 0.97130  0.59990  0.81090  Biso   1.000  H
  C69      1.0000 0.90900  0.70670  0.95400  Biso   1.000  C
  C70      1.0000 0.93630  0.86930  0.14640  Biso   1.000  C
  H79      1.0000 0.98730  0.88610  0.15010  Biso   1.000  H
  C71      1.0000 0.91110  0.84120  0.22870  Biso   1.000  C
  H80      1.0000 0.86230  0.81920  0.22280  Biso   1.000  H
  C72      1.0000 0.98270  0.66750  0.32240  Biso   1.000  C
  C73      1.0000 0.93880  0.72430  0.28830  Biso   1.000  C
  H81      1.0000 0.88830  0.71670  0.28820  Biso   1.000  H
  C74      1.0000 0.98020  0.72940  0.98460  Biso   1.000  C
  C75      1.0000 0.98570  0.77970  0.04910  Biso   1.000  C
  H82      1.0000 0.03250  0.79120  0.06770  Biso   1.000  H
  C76      1.0000 0.09990  0.61460  0.36160  Biso   1.000  C
  H83      1.0000 0.15090  0.61570  0.36440  Biso   1.000  H
  C77      1.0000 0.06240  0.67250  0.32380  Biso   1.000  C
  C78      1.0000 0.94900  0.60510  0.35720  Biso   1.000  C
  H84      1.0000 0.89810  0.60140  0.35560  Biso   1.000  H
  C79      1.0000 0.98700  0.55160  0.39220  Biso   1.000  C
  H85      1.0000 0.96310  0.51130  0.41480  Biso   1.000  H
  C80      1.0000 0.06260  0.55660  0.39440  Biso   1.000  C
  H86      1.0000 0.08910  0.51920  0.41910  Biso   1.000  H
  N10      1.0000 0.96170  0.78540  0.25760  Biso   1.000  N
  H87      1.0000 0.00820  0.79320  0.25410  Biso   1.000  H
  N11      1.0000 0.93050  0.81130  0.08460  Biso   1.000  N
  H88      1.0000 0.88720  0.79720  0.07100  Biso   1.000  H
  N12      1.0000 0.72330  0.73630  0.18380  Biso   1.000  N
  O16      1.0000 0.72590  0.74850  0.25750  Biso   1.000  O
  O17      1.0000 0.66370  0.72370  0.14800  Biso   1.000  O
  O18      1.0000 0.84874  0.73450  0.98500  Biso   1.000  O
  O19      1.0000 0.78030  0.74090  0.14190  Biso   1.000  O
  O20      1.0000 0.09590  0.72880  0.29050  Biso   1.000  O
  Cl4      1.0000 0.61070  0.60040  0.99220  Biso   1.000  Cl
  C81      1.0000 0.96440  0.85540  0.73860  Biso   1.000  C
  H89      1.0000 0.94460  0.80630  0.74490  Biso   1.000  H
  H90      1.0000 0.00380  0.85310  0.69910  Biso   1.000  H
  C82      1.0000 0.99400  0.88140  0.81790  Biso   1.000  C
  H91      1.0000 0.01680  0.92910  0.81080  Biso   1.000  H
  H92      1.0000 0.03130  0.84750  0.83690  Biso   1.000  H
  C83      1.0000 0.70190  0.04520  0.05140  Biso   1.000  C
  H93      1.0000 0.71580  0.09070  0.03090  Biso   1.000  H
  C84      1.0000 0.65530  0.04160  0.11550  Biso   1.000  C
  H94      1.0000 0.63840  0.08460  0.13960  Biso   1.000  H
  C85      1.0000 0.93320  0.88710  0.88090  Biso   1.000  C
  H95      1.0000 0.95360  0.90650  0.93080  Biso   1.000  H
  H96      1.0000 0.91450  0.83830  0.89220  Biso   1.000  H
  C86      1.0000 0.90410  0.90670  0.70750  Biso   1.000  C
  H97      1.0000 0.88500  0.88840  0.65650  Biso   1.000  H
  H98      1.0000 0.92430  0.95520  0.69820  Biso   1.000  H
  C87      1.0000 0.65790  0.90840  0.11130  Biso   1.000  C
  H99      1.0000 0.64220  0.86370  0.13230  Biso   1.000  H
  C88      1.0000 0.63240  0.97320  0.14570  Biso   1.000  C
  H100     1.0000 0.59990  0.97130  0.18910  Biso   1.000  H
  C89      1.0000 0.70670  0.90900  0.04600  Biso   1.000  C
  C90      1.0000 0.86930  0.93630  0.85360  Biso   1.000  C
  H101     1.0000 0.88610  0.98730  0.84990  Biso   1.000  H
  C91      1.0000 0.84120  0.91110  0.77130  Biso   1.000  C
  H102     1.0000 0.81920  0.86230  0.77720  Biso   1.000  H
  C92      1.0000 0.66750  0.98270  0.67760  Biso   1.000  C
  C93      1.0000 0.72430  0.93880  0.71170  Biso   1.000  C
  H103     1.0000 0.71670  0.88830  0.71180  Biso   1.000  H
  C94      1.0000 0.72940  0.98020  0.01540  Biso   1.000  C
  C95      1.0000 0.77970  0.98570  0.95090  Biso   1.000  C
  H104     1.0000 0.79120  0.03250  0.93230  Biso   1.000  H
  C96      1.0000 0.61460  0.09990  0.63840  Biso   1.000  C
  H105     1.0000 0.61570  0.15090  0.63560  Biso   1.000  H
  C97      1.0000 0.67250  0.06240  0.67620  Biso   1.000  C
  C98      1.0000 0.60510  0.94900  0.64280  Biso   1.000  C
  H106     1.0000 0.60140  0.89810  0.64440  Biso   1.000  H
  C99      1.0000 0.55160  0.98700  0.60780  Biso   1.000  C
  H107     1.0000 0.51130  0.96310  0.58520  Biso   1.000  H
  C100     1.0000 0.55660  0.06260  0.60560  Biso   1.000  C
  H108     1.0000 0.51920  0.08910  0.58090  Biso   1.000  H
  N13      1.0000 0.78540  0.96170  0.74240  Biso   1.000  N
  H109     1.0000 0.79320  0.00820  0.74590  Biso   1.000  H
  N14      1.0000 0.81130  0.93050  0.91540  Biso   1.000  N
  H110     1.0000 0.79720  0.88720  0.92900  Biso   1.000  H
  N15      1.0000 0.73630  0.72330  0.81620  Biso   1.000  N
  O21      1.0000 0.74850  0.72590  0.74250  Biso   1.000  O
  O22      1.0000 0.72370  0.66370  0.85200  Biso   1.000  O
  O23      1.0000 0.73450  0.84874  0.01500  Biso   1.000  O
  O24      1.0000 0.74090  0.78030  0.85810  Biso   1.000  O
  O25      1.0000 0.72880  0.09590  0.70950  Biso   1.000  O
  Cl5      1.0000 0.60040  0.61070  0.00780  Biso   1.000  Cl
  C101     1.0000 0.03560  0.14460  0.23860  Biso   1.000  C
  H111     1.0000 0.05540  0.19370  0.24490  Biso   1.000  H
  H112     1.0000 0.99620  0.14690  0.19910  Biso   1.000  H
  C102     1.0000 0.00600  0.11860  0.31790  Biso   1.000  C
  H113     1.0000 0.98320  0.07090  0.31080  Biso   1.000  H
  H114     1.0000 0.96870  0.15250  0.33690  Biso   1.000  H
  C103     1.0000 0.29810  0.95480  0.55140  Biso   1.000  C
  H115     1.0000 0.28420  0.90930  0.53090  Biso   1.000  H
  C104     1.0000 0.34470  0.95840  0.61550  Biso   1.000  C
  H116     1.0000 0.36160  0.91540  0.63960  Biso   1.000  H
  C105     1.0000 0.06680  0.11290  0.38090  Biso   1.000  C
  H117     1.0000 0.04640  0.09350  0.43080  Biso   1.000  H
  H118     1.0000 0.08550  0.16170  0.39220  Biso   1.000  H
  C106     1.0000 0.09590  0.09330  0.20750  Biso   1.000  C
  H119     1.0000 0.11500  0.11160  0.15650  Biso   1.000  H
  H120     1.0000 0.07570  0.04480  0.19820  Biso   1.000  H
  C107     1.0000 0.34210  0.09160  0.61130  Biso   1.000  C
  H121     1.0000 0.35780  0.13630  0.63230  Biso   1.000  H
  C108     1.0000 0.36760  0.02680  0.64570  Biso   1.000  C
  H122     1.0000 0.40010  0.02870  0.68910  Biso   1.000  H
  C109     1.0000 0.29330  0.09100  0.54600  Biso   1.000  C
  C110     1.0000 0.13070  0.06370  0.35360  Biso   1.000  C
  H123     1.0000 0.11390  0.01270  0.34990  Biso   1.000  H
  C111     1.0000 0.15880  0.08890  0.27130  Biso   1.000  C
  H124     1.0000 0.18080  0.13770  0.27720  Biso   1.000  H
  C112     1.0000 0.33250  0.01730  0.17760  Biso   1.000  C
  C113     1.0000 0.27570  0.06120  0.21170  Biso   1.000  C
  H125     1.0000 0.28330  0.11170  0.21180  Biso   1.000  H
  C114     1.0000 0.27060  0.01980  0.51540  Biso   1.000  C
  C115     1.0000 0.22030  0.01430  0.45090  Biso   1.000  C
  H126     1.0000 0.20880  0.96750  0.43230  Biso   1.000  H
  C116     1.0000 0.38540  0.90010  0.13840  Biso   1.000  C
  H127     1.0000 0.38430  0.84910  0.13560  Biso   1.000  H
  C117     1.0000 0.32750  0.93760  0.17620  Biso   1.000  C
  C118     1.0000 0.39490  0.05100  0.14280  Biso   1.000  C
  H128     1.0000 0.39860  0.10190  0.14440  Biso   1.000  H
  C119     1.0000 0.44840  0.01300  0.10780  Biso   1.000  C
  H129     1.0000 0.48870  0.03690  0.08520  Biso   1.000  H
  C120     1.0000 0.44340  0.93740  0.10560  Biso   1.000  C
  H130     1.0000 0.48080  0.91090  0.08090  Biso   1.000  H
  N16      1.0000 0.21460  0.03830  0.24240  Biso   1.000  N
  H131     1.0000 0.20680  0.99180  0.24590  Biso   1.000  H
  N17      1.0000 0.18870  0.06950  0.41540  Biso   1.000  N
  H132     1.0000 0.20280  0.11280  0.42900  Biso   1.000  H
  N18      1.0000 0.26370  0.27670  0.31620  Biso   1.000  N
  O26      1.0000 0.25150  0.27410  0.24250  Biso   1.000  O
  O27      1.0000 0.27630  0.33630  0.35200  Biso   1.000  O
  O28      1.0000 0.26550  0.15126  0.51500  Biso   1.000  O
  O29      1.0000 0.25910  0.21970  0.35810  Biso   1.000  O
  O30      1.0000 0.27120  0.90410  0.20950  Biso   1.000  O
  Cl6      1.0000 0.39960  0.38930  0.50780  Biso   1.000  Cl
  C121     1.0000 0.35540  0.53560  0.98860  Biso   1.000  C
  H133     1.0000 0.30630  0.55540  0.99490  Biso   1.000  H
  H134     1.0000 0.35310  0.49620  0.94910  Biso   1.000  H
  C122     1.0000 0.38140  0.50600  0.06790  Biso   1.000  C
  H135     1.0000 0.42910  0.48320  0.06080  Biso   1.000  H
  H136     1.0000 0.34750  0.46870  0.08690  Biso   1.000  H
  C123     1.0000 0.54520  0.79810  0.30140  Biso   1.000  C
  H137     1.0000 0.59070  0.78420  0.28090  Biso   1.000  H
  C124     1.0000 0.54160  0.84470  0.36550  Biso   1.000  C
  H138     1.0000 0.58460  0.86160  0.38960  Biso   1.000  H
  C125     1.0000 0.38710  0.56680  0.13090  Biso   1.000  C
  H139     1.0000 0.40650  0.54640  0.18080  Biso   1.000  H
  H140     1.0000 0.33830  0.58550  0.14220  Biso   1.000  H
  C126     1.0000 0.40670  0.59590  0.95750  Biso   1.000  C
  H141     1.0000 0.38840  0.61500  0.90650  Biso   1.000  H
  H142     1.0000 0.45520  0.57570  0.94820  Biso   1.000  H
  C127     1.0000 0.40840  0.84210  0.36130  Biso   1.000  C
  H143     1.0000 0.36370  0.85780  0.38230  Biso   1.000  H
  C128     1.0000 0.47320  0.86760  0.39570  Biso   1.000  C
  H144     1.0000 0.47130  0.90010  0.43910  Biso   1.000  H
  C129     1.0000 0.40900  0.79330  0.29600  Biso   1.000  C
  C130     1.0000 0.43630  0.63070  0.10360  Biso   1.000  C
  H145     1.0000 0.48730  0.61390  0.09990  Biso   1.000  H
  C131     1.0000 0.41110  0.65880  0.02130  Biso   1.000  C
  H146     1.0000 0.36230  0.68080  0.02720  Biso   1.000  H
  C132     1.0000 0.48270  0.83250  0.92760  Biso   1.000  C
  C133     1.0000 0.43880  0.77570  0.96170  Biso   1.000  C
  H147     1.0000 0.38830  0.78330  0.96180  Biso   1.000  H
  C134     1.0000 0.48020  0.77060  0.26540  Biso   1.000  C
  C135     1.0000 0.48570  0.72030  0.20090  Biso   1.000  C
  H148     1.0000 0.53250  0.70880  0.18230  Biso   1.000  H
  C136     1.0000 0.59990  0.88540  0.88840  Biso   1.000  C
  H149     1.0000 0.65090  0.88430  0.88560  Biso   1.000  H
  C137     1.0000 0.56240  0.82750  0.92620  Biso   1.000  C
  C138     1.0000 0.44900  0.89490  0.89280  Biso   1.000  C
  H150     1.0000 0.39810  0.89860  0.89440  Biso   1.000  H
  C139     1.0000 0.48700  0.94840  0.85780  Biso   1.000  C
  H151     1.0000 0.46310  0.98870  0.83520  Biso   1.000  H
  C140     1.0000 0.56260  0.94340  0.85560  Biso   1.000  C
  H152     1.0000 0.58910  0.98080  0.83090  Biso   1.000  H
  N19      1.0000 0.46170  0.71460  0.99240  Biso   1.000  N
  H153     1.0000 0.50820  0.70680  0.99590  Biso   1.000  H
  N20      1.0000 0.43050  0.68870  0.16540  Biso   1.000  N
  H154     1.0000 0.38720  0.70280  0.17900  Biso   1.000  H
  N21      1.0000 0.22330  0.76370  0.06620  Biso   1.000  N
  O31      1.0000 0.22590  0.75150  0.99250  Biso   1.000  O
  O32      1.0000 0.16370  0.77630  0.10200  Biso   1.000  O
  O33      1.0000 0.34874  0.76550  0.26500  Biso   1.000  O
  O34      1.0000 0.28030  0.75910  0.10810  Biso   1.000  O
  O35      1.0000 0.59590  0.77120  0.95950  Biso   1.000  O
  Cl7      1.0000 0.11070  0.89960  0.25780  Biso   1.000  Cl
  C141     1.0000 0.64460  0.46440  0.48860  Biso   1.000  C
  H155     1.0000 0.69370  0.44460  0.49490  Biso   1.000  H
  H156     1.0000 0.64690  0.50380  0.44910  Biso   1.000  H
  C142     1.0000 0.61860  0.49400  0.56790  Biso   1.000  C
  H157     1.0000 0.57090  0.51680  0.56080  Biso   1.000  H
  H158     1.0000 0.65250  0.53130  0.58690  Biso   1.000  H
  C143     1.0000 0.45480  0.20190  0.80140  Biso   1.000  C
  H159     1.0000 0.40930  0.21580  0.78090  Biso   1.000  H
  C144     1.0000 0.45840  0.15530  0.86550  Biso   1.000  C
  H160     1.0000 0.41540  0.13840  0.88960  Biso   1.000  H
  C145     1.0000 0.61290  0.43320  0.63090  Biso   1.000  C
  H161     1.0000 0.59350  0.45360  0.68080  Biso   1.000  H
  H162     1.0000 0.66170  0.41450  0.64220  Biso   1.000  H
  C146     1.0000 0.59330  0.40410  0.45750  Biso   1.000  C
  H163     1.0000 0.61160  0.38500  0.40650  Biso   1.000  H
  H164     1.0000 0.54480  0.42430  0.44820  Biso   1.000  H
  C147     1.0000 0.59160  0.15790  0.86130  Biso   1.000  C
  H165     1.0000 0.63630  0.14220  0.88230  Biso   1.000  H
  C148     1.0000 0.52680  0.13240  0.89570  Biso   1.000  C
  H166     1.0000 0.52870  0.09990  0.93910  Biso   1.000  H
  C149     1.0000 0.59100  0.20670  0.79600  Biso   1.000  C
  C150     1.0000 0.56370  0.36930  0.60360  Biso   1.000  C
  H167     1.0000 0.51270  0.38610  0.59990  Biso   1.000  H
  C151     1.0000 0.58890  0.34120  0.52130  Biso   1.000  C
  H168     1.0000 0.63770  0.31920  0.52720  Biso   1.000  H
  C152     1.0000 0.51730  0.16750  0.42760  Biso   1.000  C
  C153     1.0000 0.56120  0.22430  0.46170  Biso   1.000  C
  H169     1.0000 0.61170  0.21670  0.46180  Biso   1.000  H
  C154     1.0000 0.51980  0.22940  0.76540  Biso   1.000  C
  C155     1.0000 0.51430  0.27970  0.70090  Biso   1.000  C
  H170     1.0000 0.46750  0.29120  0.68230  Biso   1.000  H
  C156     1.0000 0.40010  0.11460  0.38840  Biso   1.000  C
  H171     1.0000 0.34910  0.11570  0.38560  Biso   1.000  H
  C157     1.0000 0.43760  0.17250  0.42620  Biso   1.000  C
  C158     1.0000 0.55100  0.10510  0.39280  Biso   1.000  C
  H172     1.0000 0.60190  0.10140  0.39440  Biso   1.000  H
  C159     1.0000 0.51300  0.05160  0.35780  Biso   1.000  C
  H173     1.0000 0.53690  0.01130  0.33520  Biso   1.000  H
  C160     1.0000 0.43740  0.05660  0.35560  Biso   1.000  C
  H174     1.0000 0.41090  0.01920  0.33090  Biso   1.000  H
  N22      1.0000 0.53830  0.28540  0.49240  Biso   1.000  N
  H175     1.0000 0.49180  0.29320  0.49590  Biso   1.000  H
  N23      1.0000 0.56950  0.31130  0.66540  Biso   1.000  N
  H176     1.0000 0.61280  0.29720  0.67900  Biso   1.000  H
  N24      1.0000 0.77670  0.23630  0.56620  Biso   1.000  N
  O36      1.0000 0.77410  0.24850  0.49250  Biso   1.000  O
  O37      1.0000 0.83630  0.22370  0.60200  Biso   1.000  O
  O38      1.0000 0.65126  0.23450  0.76500  Biso   1.000  O
  O39      1.0000 0.71970  0.24090  0.60810  Biso   1.000  O
  O40      1.0000 0.40410  0.22880  0.45950  Biso   1.000  O
  Cl8      1.0000 0.88930  0.10040  0.75780  Biso   1.000  Cl
  Ce1      1.0000 0.78334  0.21666  0.75000  Biso   1.000  Ce
  Ce2      1.0000 0.21666  0.78334  0.25000  Biso   1.000  Ce
  Ce3      1.0000 0.28334  0.28334  0.50000  Biso   1.000  Ce
  Ce4      1.0000 0.71666  0.71666  0.00000  Biso   1.000  Ce
