data_image0
_cell_length_a       23.775
_cell_length_b       28.132
_cell_length_c       14.991
_cell_angle_alpha    90
_cell_angle_beta     90
_cell_angle_gamma    90

_symmetry_space_group_name_H-M    "P 1"
_symmetry_int_tables_number       1

loop_
  _symmetry_equiv_pos_as_xyz
  'x, y, z'

loop_
  _atom_site_label
  _atom_site_occupancy
  _atom_site_fract_x
  _atom_site_fract_y
  _atom_site_fract_z
  _atom_site_thermal_displace_type
  _atom_site_B_iso_or_equiv
  _atom_site_type_symbol
  C1       1.0000 0.45350  0.32490  0.82410  Biso   1.000  C
  C2       1.0000 0.46410  0.36400  0.75700  Biso   1.000  C
  C3       1.0000 0.42240  0.37680  0.69640  Biso   1.000  C
  H1       1.0000 0.38750  0.36190  0.69830  Biso   1.000  H
  C4       1.0000 0.43280  0.41150  0.63380  Biso   1.000  C
  C5       1.0000 0.48530  0.43440  0.63300  Biso   1.000  C
  H2       1.0000 0.49220  0.45840  0.59180  Biso   1.000  H
  C6       1.0000 0.52620  0.42160  0.69230  Biso   1.000  C
  C7       1.0000 0.51540  0.38610  0.75420  Biso   1.000  C
  H3       1.0000 0.54340  0.37710  0.79430  Biso   1.000  H
  C8       1.0000 0.38910  0.42610  0.56630  Biso   1.000  C
  C9       1.0000 0.58360  0.44510  0.68880  Biso   1.000  C
  C10      1.0000 0.35650  0.18140  0.05330  Biso   1.000  C
  C11      1.0000 0.32460  0.13680  0.07640  Biso   1.000  C
  C12      1.0000 0.33170  0.11590  0.15930  Biso   1.000  C
  H4       1.0000 0.35530  0.12990  0.20130  Biso   1.000  H
  C13      1.0000 0.30330  0.07380  0.17960  Biso   1.000  C
  C14      1.0000 0.26850  0.05260  0.11740  Biso   1.000  C
  H5       1.0000 0.25060  0.02410  0.13070  Biso   1.000  H
  C15      1.0000 0.26050  0.07410  0.03450  Biso   1.000  C
  C16      1.0000 0.28970  0.11620  0.01580  Biso   1.000  C
  H6       1.0000 0.28500  0.13050  0.96040  Biso   1.000  H
  C17      1.0000 0.31390  0.05150  0.26850  Biso   1.000  C
  C18      1.0000 0.22370  0.05280  0.96570  Biso   1.000  C
  C19      1.0000 0.39500  0.22580  0.28740  Biso   1.000  C
  C20      1.0000 0.43440  0.17270  0.39970  Biso   1.000  C
  H7       1.0000 0.44780  0.14970  0.35750  Biso   1.000  H
  H8       1.0000 0.42160  0.15680  0.45250  Biso   1.000  H
  H9       1.0000 0.46430  0.19410  0.41480  Biso   1.000  H
  C21      1.0000 0.32610  0.19270  0.39080  Biso   1.000  C
  H10      1.0000 0.32340  0.19880  0.45360  Biso   1.000  H
  H11      1.0000 0.31460  0.16060  0.37880  Biso   1.000  H
  H12      1.0000 0.30200  0.21430  0.35910  Biso   1.000  H
  Co1      1.0000 0.35439  0.47847  0.41375  Biso   1.000  Co
  Co2      1.0000 0.70705  0.43614  0.74164  Biso   1.000  Co
  N1       1.0000 0.38740  0.19970  0.36000  Biso   1.000  N
  O1       1.0000 0.48950  0.32030  0.88500  Biso   1.000  O
  O2       1.0000 0.41030  0.30100  0.81670  Biso   1.000  O
  O3       1.0000 0.33935  0.41260  0.57380  Biso   1.000  O
  O4       1.0000 0.40714  0.45265  0.50420  Biso   1.000  O
  O5       1.0000 0.62170  0.42850  0.73600  Biso   1.000  O
  O6       1.0000 0.58681  0.48015  0.63580  Biso   1.000  O
  O7       1.0000 0.38970  0.19675  0.11090  Biso   1.000  O
  O8       1.0000 0.34610  0.19890  0.97860  Biso   1.000  O
  O9       1.0000 0.33980  0.42560  0.32770  Biso   1.000  O
  O10      1.0000 0.29793  0.49071  0.28450  Biso   1.000  O
  O11      1.0000 0.30132  0.51403  0.48710  Biso   1.000  O
  O12      1.0000 0.71860  0.42617  0.60720  Biso   1.000  O
  O13      1.0000 0.43960  0.23480  0.25340  Biso   1.000  O
  C22      1.0000 0.04650  0.67510  0.32410  Biso   1.000  C
  C23      1.0000 0.03590  0.63600  0.25700  Biso   1.000  C
  C24      1.0000 0.07760  0.62320  0.19640  Biso   1.000  C
  H13      1.0000 0.11250  0.63810  0.19830  Biso   1.000  H
  C25      1.0000 0.06720  0.58850  0.13380  Biso   1.000  C
  C26      1.0000 0.01470  0.56560  0.13300  Biso   1.000  C
  H14      1.0000 0.00780  0.54160  0.09180  Biso   1.000  H
  C27      1.0000 0.97380  0.57840  0.19230  Biso   1.000  C
  C28      1.0000 0.98460  0.61390  0.25420  Biso   1.000  C
  H15      1.0000 0.95660  0.62290  0.29430  Biso   1.000  H
  C29      1.0000 0.11090  0.57390  0.06630  Biso   1.000  C
  C30      1.0000 0.91640  0.55490  0.18880  Biso   1.000  C
  C31      1.0000 0.14350  0.81860  0.55330  Biso   1.000  C
  C32      1.0000 0.17540  0.86320  0.57640  Biso   1.000  C
  C33      1.0000 0.16830  0.88410  0.65930  Biso   1.000  C
  H16      1.0000 0.14470  0.87010  0.70130  Biso   1.000  H
  C34      1.0000 0.19670  0.92620  0.67960  Biso   1.000  C
  C35      1.0000 0.23150  0.94740  0.61740  Biso   1.000  C
  H17      1.0000 0.24940  0.97590  0.63070  Biso   1.000  H
  C36      1.0000 0.23950  0.92590  0.53450  Biso   1.000  C
  C37      1.0000 0.21030  0.88380  0.51580  Biso   1.000  C
  H18      1.0000 0.21500  0.86950  0.46040  Biso   1.000  H
  C38      1.0000 0.18610  0.94850  0.76850  Biso   1.000  C
  C39      1.0000 0.27630  0.94720  0.46570  Biso   1.000  C
  C40      1.0000 0.10500  0.77420  0.78740  Biso   1.000  C
  C41      1.0000 0.06560  0.82730  0.89970  Biso   1.000  C
  H19      1.0000 0.05220  0.85030  0.85750  Biso   1.000  H
  H20      1.0000 0.07840  0.84320  0.95250  Biso   1.000  H
  H21      1.0000 0.03570  0.80590  0.91480  Biso   1.000  H
  C42      1.0000 0.17390  0.80730  0.89080  Biso   1.000  C
  H22      1.0000 0.17660  0.80120  0.95360  Biso   1.000  H
  H23      1.0000 0.18540  0.83940  0.87880  Biso   1.000  H
  H24      1.0000 0.19800  0.78570  0.85910  Biso   1.000  H
  Co3      1.0000 0.14561  0.52153  0.91375  Biso   1.000  Co
  Co4      1.0000 0.79295  0.56386  0.24164  Biso   1.000  Co
  N2       1.0000 0.11260  0.80030  0.86000  Biso   1.000  N
  O14      1.0000 0.01050  0.67970  0.38500  Biso   1.000  O
  O15      1.0000 0.08970  0.69900  0.31670  Biso   1.000  O
  O16      1.0000 0.16065  0.58740  0.07380  Biso   1.000  O
  O17      1.0000 0.09286  0.54735  0.00420  Biso   1.000  O
  O18      1.0000 0.87830  0.57150  0.23600  Biso   1.000  O
  O19      1.0000 0.91319  0.51985  0.13580  Biso   1.000  O
  O20      1.0000 0.11030  0.80325  0.61090  Biso   1.000  O
  O21      1.0000 0.15390  0.80110  0.47860  Biso   1.000  O
  O22      1.0000 0.16020  0.57440  0.82770  Biso   1.000  O
  O23      1.0000 0.20207  0.50929  0.78450  Biso   1.000  O
  O24      1.0000 0.19868  0.48597  0.98710  Biso   1.000  O
  O25      1.0000 0.78140  0.57383  0.10720  Biso   1.000  O
  O26      1.0000 0.06040  0.76520  0.75340  Biso   1.000  O
  C43      1.0000 0.54650  0.82490  0.17590  Biso   1.000  C
  C44      1.0000 0.53590  0.86400  0.24300  Biso   1.000  C
  C45      1.0000 0.57760  0.87680  0.30360  Biso   1.000  C
  H25      1.0000 0.61250  0.86190  0.30170  Biso   1.000  H
  C46      1.0000 0.56720  0.91150  0.36620  Biso   1.000  C
  C47      1.0000 0.51470  0.93440  0.36700  Biso   1.000  C
  H26      1.0000 0.50780  0.95840  0.40820  Biso   1.000  H
  C48      1.0000 0.47380  0.92160  0.30770  Biso   1.000  C
  C49      1.0000 0.48460  0.88610  0.24580  Biso   1.000  C
  H27      1.0000 0.45660  0.87710  0.20570  Biso   1.000  H
  C50      1.0000 0.61090  0.92610  0.43370  Biso   1.000  C
  C51      1.0000 0.41640  0.94510  0.31120  Biso   1.000  C
  C52      1.0000 0.64350  0.68140  0.94670  Biso   1.000  C
  C53      1.0000 0.67540  0.63680  0.92360  Biso   1.000  C
  C54      1.0000 0.66830  0.61590  0.84070  Biso   1.000  C
  H28      1.0000 0.64470  0.62990  0.79870  Biso   1.000  H
  C55      1.0000 0.69670  0.57380  0.82040  Biso   1.000  C
  C56      1.0000 0.73150  0.55260  0.88260  Biso   1.000  C
  H29      1.0000 0.74940  0.52410  0.86930  Biso   1.000  H
  C57      1.0000 0.73950  0.57410  0.96550  Biso   1.000  C
  C58      1.0000 0.71030  0.61620  0.98420  Biso   1.000  C
  H30      1.0000 0.71500  0.63050  0.03960  Biso   1.000  H
  C59      1.0000 0.68610  0.55150  0.73150  Biso   1.000  C
  C60      1.0000 0.77630  0.55280  0.03430  Biso   1.000  C
  C61      1.0000 0.60500  0.72580  0.71260  Biso   1.000  C
  C62      1.0000 0.56560  0.67270  0.60030  Biso   1.000  C
  H31      1.0000 0.55220  0.64970  0.64250  Biso   1.000  H
  H32      1.0000 0.57840  0.65680  0.54750  Biso   1.000  H
  H33      1.0000 0.53570  0.69410  0.58520  Biso   1.000  H
  C63      1.0000 0.67390  0.69270  0.60920  Biso   1.000  C
  H34      1.0000 0.67660  0.69880  0.54640  Biso   1.000  H
  H35      1.0000 0.68540  0.66060  0.62120  Biso   1.000  H
  H36      1.0000 0.69800  0.71430  0.64090  Biso   1.000  H
  Co5      1.0000 0.64561  0.97847  0.58625  Biso   1.000  Co
  Co6      1.0000 0.29295  0.93614  0.25836  Biso   1.000  Co
  N3       1.0000 0.61260  0.69970  0.64000  Biso   1.000  N
  O27      1.0000 0.51050  0.82030  0.11500  Biso   1.000  O
  O28      1.0000 0.58970  0.80100  0.18330  Biso   1.000  O
  O29      1.0000 0.66065  0.91260  0.42620  Biso   1.000  O
  O30      1.0000 0.59286  0.95265  0.49580  Biso   1.000  O
  O31      1.0000 0.37830  0.92850  0.26400  Biso   1.000  O
  O32      1.0000 0.41319  0.98015  0.36420  Biso   1.000  O
  O33      1.0000 0.61030  0.69675  0.88910  Biso   1.000  O
  O34      1.0000 0.65390  0.69890  0.02140  Biso   1.000  O
  O35      1.0000 0.66020  0.92560  0.67230  Biso   1.000  O
  O36      1.0000 0.70207  0.99071  0.71550  Biso   1.000  O
  O37      1.0000 0.69868  0.01403  0.51290  Biso   1.000  O
  O38      1.0000 0.28140  0.92617  0.39280  Biso   1.000  O
  O39      1.0000 0.56040  0.73480  0.74660  Biso   1.000  O
  C64      1.0000 0.95350  0.17510  0.67590  Biso   1.000  C
  C65      1.0000 0.96410  0.13600  0.74300  Biso   1.000  C
  C66      1.0000 0.92240  0.12320  0.80360  Biso   1.000  C
  H37      1.0000 0.88750  0.13810  0.80170  Biso   1.000  H
  C67      1.0000 0.93280  0.08850  0.86620  Biso   1.000  C
  C68      1.0000 0.98530  0.06560  0.86700  Biso   1.000  C
  H38      1.0000 0.99220  0.04160  0.90820  Biso   1.000  H
  C69      1.0000 0.02620  0.07840  0.80770  Biso   1.000  C
  C70      1.0000 0.01540  0.11390  0.74580  Biso   1.000  C
  H39      1.0000 0.04340  0.12290  0.70570  Biso   1.000  H
  C71      1.0000 0.88910  0.07390  0.93370  Biso   1.000  C
  C72      1.0000 0.08360  0.05490  0.81120  Biso   1.000  C
  C73      1.0000 0.85650  0.31860  0.44670  Biso   1.000  C
  C74      1.0000 0.82460  0.36320  0.42360  Biso   1.000  C
  C75      1.0000 0.83170  0.38410  0.34070  Biso   1.000  C
  H40      1.0000 0.85530  0.37010  0.29870  Biso   1.000  H
  C76      1.0000 0.80330  0.42620  0.32040  Biso   1.000  C
  C77      1.0000 0.76850  0.44740  0.38260  Biso   1.000  C
  H41      1.0000 0.75060  0.47590  0.36930  Biso   1.000  H
  C78      1.0000 0.76050  0.42590  0.46550  Biso   1.000  C
  C79      1.0000 0.78970  0.38380  0.48420  Biso   1.000  C
  H42      1.0000 0.78500  0.36950  0.53960  Biso   1.000  H
  C80      1.0000 0.81390  0.44850  0.23150  Biso   1.000  C
  C81      1.0000 0.72370  0.44720  0.53430  Biso   1.000  C
  C82      1.0000 0.89500  0.27420  0.21260  Biso   1.000  C
  C83      1.0000 0.93440  0.32730  0.10030  Biso   1.000  C
  H43      1.0000 0.94780  0.35030  0.14250  Biso   1.000  H
  H44      1.0000 0.92160  0.34320  0.04750  Biso   1.000  H
  H45      1.0000 0.96430  0.30590  0.08520  Biso   1.000  H
  C84      1.0000 0.82610  0.30730  0.10920  Biso   1.000  C
  H46      1.0000 0.82340  0.30120  0.04640  Biso   1.000  H
  H47      1.0000 0.81460  0.33940  0.12120  Biso   1.000  H
  H48      1.0000 0.80200  0.28570  0.14090  Biso   1.000  H
  Co7      1.0000 0.85439  0.02153  0.08625  Biso   1.000  Co
  Co8      1.0000 0.20705  0.06386  0.75836  Biso   1.000  Co
  N4       1.0000 0.88740  0.30030  0.14000  Biso   1.000  N
  O40      1.0000 0.98950  0.17970  0.61500  Biso   1.000  O
  O41      1.0000 0.91030  0.19900  0.68330  Biso   1.000  O
  O42      1.0000 0.83935  0.08740  0.92620  Biso   1.000  O
  O43      1.0000 0.90714  0.04735  0.99580  Biso   1.000  O
  O44      1.0000 0.12170  0.07150  0.76400  Biso   1.000  O
  O45      1.0000 0.08681  0.01985  0.86420  Biso   1.000  O
  O46      1.0000 0.88970  0.30325  0.38910  Biso   1.000  O
  O47      1.0000 0.84610  0.30110  0.52140  Biso   1.000  O
  O48      1.0000 0.83980  0.07440  0.17230  Biso   1.000  O
  O49      1.0000 0.79793  0.00929  0.21550  Biso   1.000  O
  O50      1.0000 0.80132  0.98597  0.01290  Biso   1.000  O
  O51      1.0000 0.21860  0.07383  0.89280  Biso   1.000  O
  O52      1.0000 0.93960  0.26520  0.24660  Biso   1.000  O
  C85      1.0000 0.54650  0.67510  0.17590  Biso   1.000  C
  C86      1.0000 0.53590  0.63600  0.24300  Biso   1.000  C
  C87      1.0000 0.57760  0.62320  0.30360  Biso   1.000  C
  H49      1.0000 0.61250  0.63810  0.30170  Biso   1.000  H
  C88      1.0000 0.56720  0.58850  0.36620  Biso   1.000  C
  C89      1.0000 0.51470  0.56560  0.36700  Biso   1.000  C
  H50      1.0000 0.50780  0.54160  0.40820  Biso   1.000  H
  C90      1.0000 0.47380  0.57840  0.30770  Biso   1.000  C
  C91      1.0000 0.48460  0.61390  0.24580  Biso   1.000  C
  H51      1.0000 0.45660  0.62290  0.20570  Biso   1.000  H
  C92      1.0000 0.61090  0.57390  0.43370  Biso   1.000  C
  C93      1.0000 0.41640  0.55490  0.31120  Biso   1.000  C
  C94      1.0000 0.64350  0.81860  0.94670  Biso   1.000  C
  C95      1.0000 0.67540  0.86320  0.92360  Biso   1.000  C
  C96      1.0000 0.66830  0.88410  0.84070  Biso   1.000  C
  H52      1.0000 0.64470  0.87010  0.79870  Biso   1.000  H
  C97      1.0000 0.69670  0.92620  0.82040  Biso   1.000  C
  C98      1.0000 0.73150  0.94740  0.88260  Biso   1.000  C
  H53      1.0000 0.74940  0.97590  0.86930  Biso   1.000  H
  C99      1.0000 0.73950  0.92590  0.96550  Biso   1.000  C
  C100     1.0000 0.71030  0.88380  0.98420  Biso   1.000  C
  H54      1.0000 0.71500  0.86950  0.03960  Biso   1.000  H
  C101     1.0000 0.68610  0.94850  0.73150  Biso   1.000  C
  C102     1.0000 0.77630  0.94720  0.03430  Biso   1.000  C
  C103     1.0000 0.60500  0.77420  0.71260  Biso   1.000  C
  C104     1.0000 0.56560  0.82730  0.60030  Biso   1.000  C
  H55      1.0000 0.55220  0.85030  0.64250  Biso   1.000  H
  H56      1.0000 0.57840  0.84320  0.54750  Biso   1.000  H
  H57      1.0000 0.53570  0.80590  0.58520  Biso   1.000  H
  C105     1.0000 0.67390  0.80730  0.60920  Biso   1.000  C
  H58      1.0000 0.67660  0.80120  0.54640  Biso   1.000  H
  H59      1.0000 0.68540  0.83940  0.62120  Biso   1.000  H
  H60      1.0000 0.69800  0.78570  0.64090  Biso   1.000  H
  Co9      1.0000 0.64561  0.52153  0.58625  Biso   1.000  Co
  Co10     1.0000 0.29295  0.56386  0.25836  Biso   1.000  Co
  N5       1.0000 0.61260  0.80030  0.64000  Biso   1.000  N
  O53      1.0000 0.51050  0.67970  0.11500  Biso   1.000  O
  O54      1.0000 0.58970  0.69900  0.18330  Biso   1.000  O
  O55      1.0000 0.66065  0.58740  0.42620  Biso   1.000  O
  O56      1.0000 0.59286  0.54735  0.49580  Biso   1.000  O
  O57      1.0000 0.37830  0.57150  0.26400  Biso   1.000  O
  O58      1.0000 0.41319  0.51985  0.36420  Biso   1.000  O
  O59      1.0000 0.61030  0.80325  0.88910  Biso   1.000  O
  O60      1.0000 0.65390  0.80110  0.02140  Biso   1.000  O
  O61      1.0000 0.66020  0.57440  0.67230  Biso   1.000  O
  O62      1.0000 0.70207  0.50929  0.71550  Biso   1.000  O
  O63      1.0000 0.69868  0.48597  0.51290  Biso   1.000  O
  O64      1.0000 0.28140  0.57383  0.39280  Biso   1.000  O
  O65      1.0000 0.56040  0.76520  0.74660  Biso   1.000  O
  C106     1.0000 0.95350  0.32490  0.67590  Biso   1.000  C
  C107     1.0000 0.96410  0.36400  0.74300  Biso   1.000  C
  C108     1.0000 0.92240  0.37680  0.80360  Biso   1.000  C
  H61      1.0000 0.88750  0.36190  0.80170  Biso   1.000  H
  C109     1.0000 0.93280  0.41150  0.86620  Biso   1.000  C
  C110     1.0000 0.98530  0.43440  0.86700  Biso   1.000  C
  H62      1.0000 0.99220  0.45840  0.90820  Biso   1.000  H
  C111     1.0000 0.02620  0.42160  0.80770  Biso   1.000  C
  C112     1.0000 0.01540  0.38610  0.74580  Biso   1.000  C
  H63      1.0000 0.04340  0.37710  0.70570  Biso   1.000  H
  C113     1.0000 0.88910  0.42610  0.93370  Biso   1.000  C
  C114     1.0000 0.08360  0.44510  0.81120  Biso   1.000  C
  C115     1.0000 0.85650  0.18140  0.44670  Biso   1.000  C
  C116     1.0000 0.82460  0.13680  0.42360  Biso   1.000  C
  C117     1.0000 0.83170  0.11590  0.34070  Biso   1.000  C
  H64      1.0000 0.85530  0.12990  0.29870  Biso   1.000  H
  C118     1.0000 0.80330  0.07380  0.32040  Biso   1.000  C
  C119     1.0000 0.76850  0.05260  0.38260  Biso   1.000  C
  H65      1.0000 0.75060  0.02410  0.36930  Biso   1.000  H
  C120     1.0000 0.76050  0.07410  0.46550  Biso   1.000  C
  C121     1.0000 0.78970  0.11620  0.48420  Biso   1.000  C
  H66      1.0000 0.78500  0.13050  0.53960  Biso   1.000  H
  C122     1.0000 0.81390  0.05150  0.23150  Biso   1.000  C
  C123     1.0000 0.72370  0.05280  0.53430  Biso   1.000  C
  C124     1.0000 0.89500  0.22580  0.21260  Biso   1.000  C
  C125     1.0000 0.93440  0.17270  0.10030  Biso   1.000  C
  H67      1.0000 0.94780  0.14970  0.14250  Biso   1.000  H
  H68      1.0000 0.92160  0.15680  0.04750  Biso   1.000  H
  H69      1.0000 0.96430  0.19410  0.08520  Biso   1.000  H
  C126     1.0000 0.82610  0.19270  0.10920  Biso   1.000  C
  H70      1.0000 0.82340  0.19880  0.04640  Biso   1.000  H
  H71      1.0000 0.81460  0.16060  0.12120  Biso   1.000  H
  H72      1.0000 0.80200  0.21430  0.14090  Biso   1.000  H
  Co11     1.0000 0.85439  0.47847  0.08625  Biso   1.000  Co
  Co12     1.0000 0.20705  0.43614  0.75836  Biso   1.000  Co
  N6       1.0000 0.88740  0.19970  0.14000  Biso   1.000  N
  O66      1.0000 0.98950  0.32030  0.61500  Biso   1.000  O
  O67      1.0000 0.91030  0.30100  0.68330  Biso   1.000  O
  O68      1.0000 0.83935  0.41260  0.92620  Biso   1.000  O
  O69      1.0000 0.90714  0.45265  0.99580  Biso   1.000  O
  O70      1.0000 0.12170  0.42850  0.76400  Biso   1.000  O
  O71      1.0000 0.08681  0.48015  0.86420  Biso   1.000  O
  O72      1.0000 0.88970  0.19675  0.38910  Biso   1.000  O
  O73      1.0000 0.84610  0.19890  0.52140  Biso   1.000  O
  O74      1.0000 0.83980  0.42560  0.17230  Biso   1.000  O
  O75      1.0000 0.79793  0.49071  0.21550  Biso   1.000  O
  O76      1.0000 0.80132  0.51403  0.01290  Biso   1.000  O
  O77      1.0000 0.21860  0.42617  0.89280  Biso   1.000  O
  O78      1.0000 0.93960  0.23480  0.24660  Biso   1.000  O
  C127     1.0000 0.45350  0.17510  0.82410  Biso   1.000  C
  C128     1.0000 0.46410  0.13600  0.75700  Biso   1.000  C
  C129     1.0000 0.42240  0.12320  0.69640  Biso   1.000  C
  H73      1.0000 0.38750  0.13810  0.69830  Biso   1.000  H
  C130     1.0000 0.43280  0.08850  0.63380  Biso   1.000  C
  C131     1.0000 0.48530  0.06560  0.63300  Biso   1.000  C
  H74      1.0000 0.49220  0.04160  0.59180  Biso   1.000  H
  C132     1.0000 0.52620  0.07840  0.69230  Biso   1.000  C
  C133     1.0000 0.51540  0.11390  0.75420  Biso   1.000  C
  H75      1.0000 0.54340  0.12290  0.79430  Biso   1.000  H
  C134     1.0000 0.38910  0.07390  0.56630  Biso   1.000  C
  C135     1.0000 0.58360  0.05490  0.68880  Biso   1.000  C
  C136     1.0000 0.35650  0.31860  0.05330  Biso   1.000  C
  C137     1.0000 0.32460  0.36320  0.07640  Biso   1.000  C
  C138     1.0000 0.33170  0.38410  0.15930  Biso   1.000  C
  H76      1.0000 0.35530  0.37010  0.20130  Biso   1.000  H
  C139     1.0000 0.30330  0.42620  0.17960  Biso   1.000  C
  C140     1.0000 0.26850  0.44740  0.11740  Biso   1.000  C
  H77      1.0000 0.25060  0.47590  0.13070  Biso   1.000  H
  C141     1.0000 0.26050  0.42590  0.03450  Biso   1.000  C
  C142     1.0000 0.28970  0.38380  0.01580  Biso   1.000  C
  H78      1.0000 0.28500  0.36950  0.96040  Biso   1.000  H
  C143     1.0000 0.31390  0.44850  0.26850  Biso   1.000  C
  C144     1.0000 0.22370  0.44720  0.96570  Biso   1.000  C
  C145     1.0000 0.39500  0.27420  0.28740  Biso   1.000  C
  C146     1.0000 0.43440  0.32730  0.39970  Biso   1.000  C
  H79      1.0000 0.44780  0.35030  0.35750  Biso   1.000  H
  H80      1.0000 0.42160  0.34320  0.45250  Biso   1.000  H
  H81      1.0000 0.46430  0.30590  0.41480  Biso   1.000  H
  C147     1.0000 0.32610  0.30730  0.39080  Biso   1.000  C
  H82      1.0000 0.32340  0.30120  0.45360  Biso   1.000  H
  H83      1.0000 0.31460  0.33940  0.37880  Biso   1.000  H
  H84      1.0000 0.30200  0.28570  0.35910  Biso   1.000  H
  Co13     1.0000 0.35439  0.02153  0.41375  Biso   1.000  Co
  Co14     1.0000 0.70705  0.06386  0.74164  Biso   1.000  Co
  N7       1.0000 0.38740  0.30030  0.36000  Biso   1.000  N
  O79      1.0000 0.48950  0.17970  0.88500  Biso   1.000  O
  O80      1.0000 0.41030  0.19900  0.81670  Biso   1.000  O
  O81      1.0000 0.33935  0.08740  0.57380  Biso   1.000  O
  O82      1.0000 0.40714  0.04735  0.50420  Biso   1.000  O
  O83      1.0000 0.62170  0.07150  0.73600  Biso   1.000  O
  O84      1.0000 0.58681  0.01985  0.63580  Biso   1.000  O
  O85      1.0000 0.38970  0.30325  0.11090  Biso   1.000  O
  O86      1.0000 0.34610  0.30110  0.97860  Biso   1.000  O
  O87      1.0000 0.33980  0.07440  0.32770  Biso   1.000  O
  O88      1.0000 0.29793  0.00929  0.28450  Biso   1.000  O
  O89      1.0000 0.30132  0.98597  0.48710  Biso   1.000  O
  O90      1.0000 0.71860  0.07383  0.60720  Biso   1.000  O
  O91      1.0000 0.43960  0.26520  0.25340  Biso   1.000  O
  C148     1.0000 0.04650  0.82490  0.32410  Biso   1.000  C
  C149     1.0000 0.03590  0.86400  0.25700  Biso   1.000  C
  C150     1.0000 0.07760  0.87680  0.19640  Biso   1.000  C
  H85      1.0000 0.11250  0.86190  0.19830  Biso   1.000  H
  C151     1.0000 0.06720  0.91150  0.13380  Biso   1.000  C
  C152     1.0000 0.01470  0.93440  0.13300  Biso   1.000  C
  H86      1.0000 0.00780  0.95840  0.09180  Biso   1.000  H
  C153     1.0000 0.97380  0.92160  0.19230  Biso   1.000  C
  C154     1.0000 0.98460  0.88610  0.25420  Biso   1.000  C
  H87      1.0000 0.95660  0.87710  0.29430  Biso   1.000  H
  C155     1.0000 0.11090  0.92610  0.06630  Biso   1.000  C
  C156     1.0000 0.91640  0.94510  0.18880  Biso   1.000  C
  C157     1.0000 0.14350  0.68140  0.55330  Biso   1.000  C
  C158     1.0000 0.17540  0.63680  0.57640  Biso   1.000  C
  C159     1.0000 0.16830  0.61590  0.65930  Biso   1.000  C
  H88      1.0000 0.14470  0.62990  0.70130  Biso   1.000  H
  C160     1.0000 0.19670  0.57380  0.67960  Biso   1.000  C
  C161     1.0000 0.23150  0.55260  0.61740  Biso   1.000  C
  H89      1.0000 0.24940  0.52410  0.63070  Biso   1.000  H
  C162     1.0000 0.23950  0.57410  0.53450  Biso   1.000  C
  C163     1.0000 0.21030  0.61620  0.51580  Biso   1.000  C
  H90      1.0000 0.21500  0.63050  0.46040  Biso   1.000  H
  C164     1.0000 0.18610  0.55150  0.76850  Biso   1.000  C
  C165     1.0000 0.27630  0.55280  0.46570  Biso   1.000  C
  C166     1.0000 0.10500  0.72580  0.78740  Biso   1.000  C
  C167     1.0000 0.06560  0.67270  0.89970  Biso   1.000  C
  H91      1.0000 0.05220  0.64970  0.85750  Biso   1.000  H
  H92      1.0000 0.07840  0.65680  0.95250  Biso   1.000  H
  H93      1.0000 0.03570  0.69410  0.91480  Biso   1.000  H
  C168     1.0000 0.17390  0.69270  0.89080  Biso   1.000  C
  H94      1.0000 0.17660  0.69880  0.95360  Biso   1.000  H
  H95      1.0000 0.18540  0.66060  0.87880  Biso   1.000  H
  H96      1.0000 0.19800  0.71430  0.85910  Biso   1.000  H
  Co15     1.0000 0.14561  0.97847  0.91375  Biso   1.000  Co
  Co16     1.0000 0.79295  0.93614  0.24164  Biso   1.000  Co
  N8       1.0000 0.11260  0.69970  0.86000  Biso   1.000  N
  O92      1.0000 0.01050  0.82030  0.38500  Biso   1.000  O
  O93      1.0000 0.08970  0.80100  0.31670  Biso   1.000  O
  O94      1.0000 0.16065  0.91260  0.07380  Biso   1.000  O
  O95      1.0000 0.09286  0.95265  0.00420  Biso   1.000  O
  O96      1.0000 0.87830  0.92850  0.23600  Biso   1.000  O
  O97      1.0000 0.91319  0.98015  0.13580  Biso   1.000  O
  O98      1.0000 0.11030  0.69675  0.61090  Biso   1.000  O
  O99      1.0000 0.15390  0.69890  0.47860  Biso   1.000  O
  O100     1.0000 0.16020  0.92560  0.82770  Biso   1.000  O
  O101     1.0000 0.20207  0.99071  0.78450  Biso   1.000  O
  O102     1.0000 0.19868  0.01403  0.98710  Biso   1.000  O
  O103     1.0000 0.78140  0.92617  0.10720  Biso   1.000  O
  O104     1.0000 0.06040  0.73480  0.75340  Biso   1.000  O
  Co17     1.0000 0.37951  0.25000  0.90331  Biso   1.000  Co
  Co18     1.0000 0.44800  0.25000  0.11544  Biso   1.000  Co
  O105     1.0000 0.45770  0.25000  0.97710  Biso   1.000  O
  Co19     1.0000 0.12049  0.75000  0.40331  Biso   1.000  Co
  Co20     1.0000 0.05200  0.75000  0.61544  Biso   1.000  Co
  O106     1.0000 0.04230  0.75000  0.47710  Biso   1.000  O
  Co21     1.0000 0.62049  0.75000  0.09669  Biso   1.000  Co
  Co22     1.0000 0.55200  0.75000  0.88456  Biso   1.000  Co
  O107     1.0000 0.54230  0.75000  0.02290  Biso   1.000  O
  Co23     1.0000 0.87951  0.25000  0.59669  Biso   1.000  Co
  Co24     1.0000 0.94800  0.25000  0.38456  Biso   1.000  Co
  O108     1.0000 0.95770  0.25000  0.52290  Biso   1.000  O
