data_image0
_cell_length_a       12.045
_cell_length_b       25.38
_cell_length_c       20.658
_cell_angle_alpha    90
_cell_angle_beta     90
_cell_angle_gamma    90

_symmetry_space_group_name_H-M    "P 1"
_symmetry_int_tables_number       1

loop_
  _symmetry_equiv_pos_as_xyz
  'x, y, z'

loop_
  _atom_site_label
  _atom_site_occupancy
  _atom_site_fract_x
  _atom_site_fract_y
  _atom_site_fract_z
  _atom_site_thermal_displace_type
  _atom_site_B_iso_or_equiv
  _atom_site_type_symbol
  W1       1.0000 0.76132  0.21989  0.41479  Biso   1.000  W
  O1       1.0000 0.64750  0.20140  0.37490  Biso   1.000  O
  O2       1.0000 0.72400  0.29060  0.43410  Biso   1.000  O
  O3       1.0000 0.15200  0.37230  0.43640  Biso   1.000  O
  O4       1.0000 0.15300  0.24920  0.35030  Biso   1.000  O
  O5       1.0000 0.84600  0.15650  0.41100  Biso   1.000  O
  O6       1.0000 0.11710  0.08090  0.24000  Biso   1.000  O
  O7       1.0000 0.29480  0.07890  0.26680  Biso   1.000  O
  O8       1.0000 0.04100  0.22870  0.43520  Biso   1.000  O
  N1       1.0000 0.12500  0.17640  0.19020  Biso   1.000  N
  H1       1.0000 0.13540  0.17840  0.14710  Biso   1.000  H
  H2       1.0000 0.10950  0.20890  0.20490  Biso   1.000  H
  C1       1.0000 0.22900  0.15680  0.22100  Biso   1.000  C
  H3       1.0000 0.24790  0.17940  0.25760  Biso   1.000  H
  H4       1.0000 0.28930  0.15770  0.19060  Biso   1.000  H
  C2       1.0000 0.21200  0.10200  0.24470  Biso   1.000  C
  W2       1.0000 0.26132  0.71989  0.91479  Biso   1.000  W
  O9       1.0000 0.14750  0.70140  0.87490  Biso   1.000  O
  O10      1.0000 0.22400  0.79060  0.93410  Biso   1.000  O
  O11      1.0000 0.65200  0.87230  0.93640  Biso   1.000  O
  O12      1.0000 0.65300  0.74920  0.85030  Biso   1.000  O
  O13      1.0000 0.34600  0.65650  0.91100  Biso   1.000  O
  O14      1.0000 0.61710  0.58090  0.74000  Biso   1.000  O
  O15      1.0000 0.79480  0.57890  0.76680  Biso   1.000  O
  O16      1.0000 0.54100  0.72870  0.93520  Biso   1.000  O
  N2       1.0000 0.62500  0.67640  0.69020  Biso   1.000  N
  H5       1.0000 0.63540  0.67840  0.64710  Biso   1.000  H
  H6       1.0000 0.60950  0.70890  0.70490  Biso   1.000  H
  C3       1.0000 0.72900  0.65680  0.72100  Biso   1.000  C
  H7       1.0000 0.74790  0.67940  0.75760  Biso   1.000  H
  H8       1.0000 0.78930  0.65770  0.69060  Biso   1.000  H
  C4       1.0000 0.71200  0.60200  0.74470  Biso   1.000  C
  W3       1.0000 0.23868  0.78011  0.41479  Biso   1.000  W
  O17      1.0000 0.35250  0.79860  0.37490  Biso   1.000  O
  O18      1.0000 0.27600  0.70940  0.43410  Biso   1.000  O
  O19      1.0000 0.84800  0.62770  0.43640  Biso   1.000  O
  O20      1.0000 0.84700  0.75080  0.35030  Biso   1.000  O
  O21      1.0000 0.15400  0.84350  0.41100  Biso   1.000  O
  O22      1.0000 0.88290  0.91910  0.24000  Biso   1.000  O
  O23      1.0000 0.70520  0.92110  0.26680  Biso   1.000  O
  O24      1.0000 0.95900  0.77130  0.43520  Biso   1.000  O
  N3       1.0000 0.87500  0.82360  0.19020  Biso   1.000  N
  H9       1.0000 0.86460  0.82160  0.14710  Biso   1.000  H
  H10      1.0000 0.89050  0.79110  0.20490  Biso   1.000  H
  C5       1.0000 0.77100  0.84320  0.22100  Biso   1.000  C
  H11      1.0000 0.75210  0.82060  0.25760  Biso   1.000  H
  H12      1.0000 0.71070  0.84230  0.19060  Biso   1.000  H
  C6       1.0000 0.78800  0.89800  0.24470  Biso   1.000  C
  W4       1.0000 0.73868  0.28011  0.91479  Biso   1.000  W
  O25      1.0000 0.85250  0.29860  0.87490  Biso   1.000  O
  O26      1.0000 0.77600  0.20940  0.93410  Biso   1.000  O
  O27      1.0000 0.34800  0.12770  0.93640  Biso   1.000  O
  O28      1.0000 0.34700  0.25080  0.85030  Biso   1.000  O
  O29      1.0000 0.65400  0.34350  0.91100  Biso   1.000  O
  O30      1.0000 0.38290  0.41910  0.74000  Biso   1.000  O
  O31      1.0000 0.20520  0.42110  0.76680  Biso   1.000  O
  O32      1.0000 0.45900  0.27130  0.93520  Biso   1.000  O
  N4       1.0000 0.37500  0.32360  0.69020  Biso   1.000  N
  H13      1.0000 0.36460  0.32160  0.64710  Biso   1.000  H
  H14      1.0000 0.39050  0.29110  0.70490  Biso   1.000  H
  C7       1.0000 0.27100  0.34320  0.72100  Biso   1.000  C
  H15      1.0000 0.25210  0.32060  0.75760  Biso   1.000  H
  H16      1.0000 0.21070  0.34230  0.69060  Biso   1.000  H
  C8       1.0000 0.28800  0.39800  0.74470  Biso   1.000  C
  W5       1.0000 0.23868  0.21989  0.58521  Biso   1.000  W
  O33      1.0000 0.35250  0.20140  0.62510  Biso   1.000  O
  O34      1.0000 0.27600  0.29060  0.56590  Biso   1.000  O
  O35      1.0000 0.84800  0.37230  0.56360  Biso   1.000  O
  O36      1.0000 0.84700  0.24920  0.64970  Biso   1.000  O
  O37      1.0000 0.15400  0.15650  0.58900  Biso   1.000  O
  O38      1.0000 0.88290  0.08090  0.76000  Biso   1.000  O
  O39      1.0000 0.70520  0.07890  0.73320  Biso   1.000  O
  O40      1.0000 0.95900  0.22870  0.56480  Biso   1.000  O
  N5       1.0000 0.87500  0.17640  0.80980  Biso   1.000  N
  H17      1.0000 0.86460  0.17840  0.85290  Biso   1.000  H
  H18      1.0000 0.89050  0.20890  0.79510  Biso   1.000  H
  C9       1.0000 0.77100  0.15680  0.77900  Biso   1.000  C
  H19      1.0000 0.75210  0.17940  0.74240  Biso   1.000  H
  H20      1.0000 0.71070  0.15770  0.80940  Biso   1.000  H
  C10      1.0000 0.78800  0.10200  0.75530  Biso   1.000  C
  W6       1.0000 0.73868  0.71989  0.08521  Biso   1.000  W
  O41      1.0000 0.85250  0.70140  0.12510  Biso   1.000  O
  O42      1.0000 0.77600  0.79060  0.06590  Biso   1.000  O
  O43      1.0000 0.34800  0.87230  0.06360  Biso   1.000  O
  O44      1.0000 0.34700  0.74920  0.14970  Biso   1.000  O
  O45      1.0000 0.65400  0.65650  0.08900  Biso   1.000  O
  O46      1.0000 0.38290  0.58090  0.26000  Biso   1.000  O
  O47      1.0000 0.20520  0.57890  0.23320  Biso   1.000  O
  O48      1.0000 0.45900  0.72870  0.06480  Biso   1.000  O
  N6       1.0000 0.37500  0.67640  0.30980  Biso   1.000  N
  H21      1.0000 0.36460  0.67840  0.35290  Biso   1.000  H
  H22      1.0000 0.39050  0.70890  0.29510  Biso   1.000  H
  C11      1.0000 0.27100  0.65680  0.27900  Biso   1.000  C
  H23      1.0000 0.25210  0.67940  0.24240  Biso   1.000  H
  H24      1.0000 0.21070  0.65770  0.30940  Biso   1.000  H
  C12      1.0000 0.28800  0.60200  0.25530  Biso   1.000  C
  W7       1.0000 0.76132  0.78011  0.58521  Biso   1.000  W
  O49      1.0000 0.64750  0.79860  0.62510  Biso   1.000  O
  O50      1.0000 0.72400  0.70940  0.56590  Biso   1.000  O
  O51      1.0000 0.15200  0.62770  0.56360  Biso   1.000  O
  O52      1.0000 0.15300  0.75080  0.64970  Biso   1.000  O
  O53      1.0000 0.84600  0.84350  0.58900  Biso   1.000  O
  O54      1.0000 0.11710  0.91910  0.76000  Biso   1.000  O
  O55      1.0000 0.29480  0.92110  0.73320  Biso   1.000  O
  O56      1.0000 0.04100  0.77130  0.56480  Biso   1.000  O
  N7       1.0000 0.12500  0.82360  0.80980  Biso   1.000  N
  H25      1.0000 0.13540  0.82160  0.85290  Biso   1.000  H
  H26      1.0000 0.10950  0.79110  0.79510  Biso   1.000  H
  C13      1.0000 0.22900  0.84320  0.77900  Biso   1.000  C
  H27      1.0000 0.24790  0.82060  0.74240  Biso   1.000  H
  H28      1.0000 0.28930  0.84230  0.80940  Biso   1.000  H
  C14      1.0000 0.21200  0.89800  0.75530  Biso   1.000  C
  W8       1.0000 0.26132  0.28011  0.08521  Biso   1.000  W
  O57      1.0000 0.14750  0.29860  0.12510  Biso   1.000  O
  O58      1.0000 0.22400  0.20940  0.06590  Biso   1.000  O
  O59      1.0000 0.65200  0.12770  0.06360  Biso   1.000  O
  O60      1.0000 0.65300  0.25080  0.14970  Biso   1.000  O
  O61      1.0000 0.34600  0.34350  0.08900  Biso   1.000  O
  O62      1.0000 0.61710  0.41910  0.26000  Biso   1.000  O
  O63      1.0000 0.79480  0.42110  0.23320  Biso   1.000  O
  O64      1.0000 0.54100  0.27130  0.06480  Biso   1.000  O
  N8       1.0000 0.62500  0.32360  0.30980  Biso   1.000  N
  H29      1.0000 0.63540  0.32160  0.35290  Biso   1.000  H
  H30      1.0000 0.60950  0.29110  0.29510  Biso   1.000  H
  C15      1.0000 0.72900  0.34320  0.27900  Biso   1.000  C
  H31      1.0000 0.74790  0.32060  0.24240  Biso   1.000  H
  H32      1.0000 0.78930  0.34230  0.30940  Biso   1.000  H
  C16      1.0000 0.71200  0.39800  0.25530  Biso   1.000  C
  W9       1.0000 0.23868  0.78011  0.58521  Biso   1.000  W
  O65      1.0000 0.35250  0.79860  0.62510  Biso   1.000  O
  O66      1.0000 0.27600  0.70940  0.56590  Biso   1.000  O
  O67      1.0000 0.84800  0.62770  0.56360  Biso   1.000  O
  O68      1.0000 0.84700  0.75080  0.64970  Biso   1.000  O
  O69      1.0000 0.15400  0.84350  0.58900  Biso   1.000  O
  O70      1.0000 0.88290  0.91910  0.76000  Biso   1.000  O
  O71      1.0000 0.70520  0.92110  0.73320  Biso   1.000  O
  O72      1.0000 0.95900  0.77130  0.56480  Biso   1.000  O
  N9       1.0000 0.87500  0.82360  0.80980  Biso   1.000  N
  H33      1.0000 0.86460  0.82160  0.85290  Biso   1.000  H
  H34      1.0000 0.89050  0.79110  0.79510  Biso   1.000  H
  C17      1.0000 0.77100  0.84320  0.77900  Biso   1.000  C
  H35      1.0000 0.75210  0.82060  0.74240  Biso   1.000  H
  H36      1.0000 0.71070  0.84230  0.80940  Biso   1.000  H
  C18      1.0000 0.78800  0.89800  0.75530  Biso   1.000  C
  W10      1.0000 0.73868  0.28011  0.08521  Biso   1.000  W
  O73      1.0000 0.85250  0.29860  0.12510  Biso   1.000  O
  O74      1.0000 0.77600  0.20940  0.06590  Biso   1.000  O
  O75      1.0000 0.34800  0.12770  0.06360  Biso   1.000  O
  O76      1.0000 0.34700  0.25080  0.14970  Biso   1.000  O
  O77      1.0000 0.65400  0.34350  0.08900  Biso   1.000  O
  O78      1.0000 0.38290  0.41910  0.26000  Biso   1.000  O
  O79      1.0000 0.20520  0.42110  0.23320  Biso   1.000  O
  O80      1.0000 0.45900  0.27130  0.06480  Biso   1.000  O
  N10      1.0000 0.37500  0.32360  0.30980  Biso   1.000  N
  H37      1.0000 0.36460  0.32160  0.35290  Biso   1.000  H
  H38      1.0000 0.39050  0.29110  0.29510  Biso   1.000  H
  C19      1.0000 0.27100  0.34320  0.27900  Biso   1.000  C
  H39      1.0000 0.25210  0.32060  0.24240  Biso   1.000  H
  H40      1.0000 0.21070  0.34230  0.30940  Biso   1.000  H
  C20      1.0000 0.28800  0.39800  0.25530  Biso   1.000  C
  W11      1.0000 0.76132  0.21989  0.58521  Biso   1.000  W
  O81      1.0000 0.64750  0.20140  0.62510  Biso   1.000  O
  O82      1.0000 0.72400  0.29060  0.56590  Biso   1.000  O
  O83      1.0000 0.15200  0.37230  0.56360  Biso   1.000  O
  O84      1.0000 0.15300  0.24920  0.64970  Biso   1.000  O
  O85      1.0000 0.84600  0.15650  0.58900  Biso   1.000  O
  O86      1.0000 0.11710  0.08090  0.76000  Biso   1.000  O
  O87      1.0000 0.29480  0.07890  0.73320  Biso   1.000  O
  O88      1.0000 0.04100  0.22870  0.56480  Biso   1.000  O
  N11      1.0000 0.12500  0.17640  0.80980  Biso   1.000  N
  H41      1.0000 0.13540  0.17840  0.85290  Biso   1.000  H
  H42      1.0000 0.10950  0.20890  0.79510  Biso   1.000  H
  C21      1.0000 0.22900  0.15680  0.77900  Biso   1.000  C
  H43      1.0000 0.24790  0.17940  0.74240  Biso   1.000  H
  H44      1.0000 0.28930  0.15770  0.80940  Biso   1.000  H
  C22      1.0000 0.21200  0.10200  0.75530  Biso   1.000  C
  W12      1.0000 0.26132  0.71989  0.08521  Biso   1.000  W
  O89      1.0000 0.14750  0.70140  0.12510  Biso   1.000  O
  O90      1.0000 0.22400  0.79060  0.06590  Biso   1.000  O
  O91      1.0000 0.65200  0.87230  0.06360  Biso   1.000  O
  O92      1.0000 0.65300  0.74920  0.14970  Biso   1.000  O
  O93      1.0000 0.34600  0.65650  0.08900  Biso   1.000  O
  O94      1.0000 0.61710  0.58090  0.26000  Biso   1.000  O
  O95      1.0000 0.79480  0.57890  0.23320  Biso   1.000  O
  O96      1.0000 0.54100  0.72870  0.06480  Biso   1.000  O
  N12      1.0000 0.62500  0.67640  0.30980  Biso   1.000  N
  H45      1.0000 0.63540  0.67840  0.35290  Biso   1.000  H
  H46      1.0000 0.60950  0.70890  0.29510  Biso   1.000  H
  C23      1.0000 0.72900  0.65680  0.27900  Biso   1.000  C
  H47      1.0000 0.74790  0.67940  0.24240  Biso   1.000  H
  H48      1.0000 0.78930  0.65770  0.30940  Biso   1.000  H
  C24      1.0000 0.71200  0.60200  0.25530  Biso   1.000  C
  W13      1.0000 0.76132  0.78011  0.41479  Biso   1.000  W
  O97      1.0000 0.64750  0.79860  0.37490  Biso   1.000  O
  O98      1.0000 0.72400  0.70940  0.43410  Biso   1.000  O
  O99      1.0000 0.15200  0.62770  0.43640  Biso   1.000  O
  O100     1.0000 0.15300  0.75080  0.35030  Biso   1.000  O
  O101     1.0000 0.84600  0.84350  0.41100  Biso   1.000  O
  O102     1.0000 0.11710  0.91910  0.24000  Biso   1.000  O
  O103     1.0000 0.29480  0.92110  0.26680  Biso   1.000  O
  O104     1.0000 0.04100  0.77130  0.43520  Biso   1.000  O
  N13      1.0000 0.12500  0.82360  0.19020  Biso   1.000  N
  H49      1.0000 0.13540  0.82160  0.14710  Biso   1.000  H
  H50      1.0000 0.10950  0.79110  0.20490  Biso   1.000  H
  C25      1.0000 0.22900  0.84320  0.22100  Biso   1.000  C
  H51      1.0000 0.24790  0.82060  0.25760  Biso   1.000  H
  H52      1.0000 0.28930  0.84230  0.19060  Biso   1.000  H
  C26      1.0000 0.21200  0.89800  0.24470  Biso   1.000  C
  W14      1.0000 0.26132  0.28011  0.91479  Biso   1.000  W
  O105     1.0000 0.14750  0.29860  0.87490  Biso   1.000  O
  O106     1.0000 0.22400  0.20940  0.93410  Biso   1.000  O
  O107     1.0000 0.65200  0.12770  0.93640  Biso   1.000  O
  O108     1.0000 0.65300  0.25080  0.85030  Biso   1.000  O
  O109     1.0000 0.34600  0.34350  0.91100  Biso   1.000  O
  O110     1.0000 0.61710  0.41910  0.74000  Biso   1.000  O
  O111     1.0000 0.79480  0.42110  0.76680  Biso   1.000  O
  O112     1.0000 0.54100  0.27130  0.93520  Biso   1.000  O
  N14      1.0000 0.62500  0.32360  0.69020  Biso   1.000  N
  H53      1.0000 0.63540  0.32160  0.64710  Biso   1.000  H
  H54      1.0000 0.60950  0.29110  0.70490  Biso   1.000  H
  C27      1.0000 0.72900  0.34320  0.72100  Biso   1.000  C
  H55      1.0000 0.74790  0.32060  0.75760  Biso   1.000  H
  H56      1.0000 0.78930  0.34230  0.69060  Biso   1.000  H
  C28      1.0000 0.71200  0.39800  0.74470  Biso   1.000  C
  W15      1.0000 0.23868  0.21989  0.41479  Biso   1.000  W
  O113     1.0000 0.35250  0.20140  0.37490  Biso   1.000  O
  O114     1.0000 0.27600  0.29060  0.43410  Biso   1.000  O
  O115     1.0000 0.84800  0.37230  0.43640  Biso   1.000  O
  O116     1.0000 0.84700  0.24920  0.35030  Biso   1.000  O
  O117     1.0000 0.15400  0.15650  0.41100  Biso   1.000  O
  O118     1.0000 0.88290  0.08090  0.24000  Biso   1.000  O
  O119     1.0000 0.70520  0.07890  0.26680  Biso   1.000  O
  O120     1.0000 0.95900  0.22870  0.43520  Biso   1.000  O
  N15      1.0000 0.87500  0.17640  0.19020  Biso   1.000  N
  H57      1.0000 0.86460  0.17840  0.14710  Biso   1.000  H
  H58      1.0000 0.89050  0.20890  0.20490  Biso   1.000  H
  C29      1.0000 0.77100  0.15680  0.22100  Biso   1.000  C
  H59      1.0000 0.75210  0.17940  0.25760  Biso   1.000  H
  H60      1.0000 0.71070  0.15770  0.19060  Biso   1.000  H
  C30      1.0000 0.78800  0.10200  0.24470  Biso   1.000  C
  W16      1.0000 0.73868  0.71989  0.91479  Biso   1.000  W
  O121     1.0000 0.85250  0.70140  0.87490  Biso   1.000  O
  O122     1.0000 0.77600  0.79060  0.93410  Biso   1.000  O
  O123     1.0000 0.34800  0.87230  0.93640  Biso   1.000  O
  O124     1.0000 0.34700  0.74920  0.85030  Biso   1.000  O
  O125     1.0000 0.65400  0.65650  0.91100  Biso   1.000  O
  O126     1.0000 0.38290  0.58090  0.74000  Biso   1.000  O
  O127     1.0000 0.20520  0.57890  0.76680  Biso   1.000  O
  O128     1.0000 0.45900  0.72870  0.93520  Biso   1.000  O
  N16      1.0000 0.37500  0.67640  0.69020  Biso   1.000  N
  H61      1.0000 0.36460  0.67840  0.64710  Biso   1.000  H
  H62      1.0000 0.39050  0.70890  0.70490  Biso   1.000  H
  C31      1.0000 0.27100  0.65680  0.72100  Biso   1.000  C
  H63      1.0000 0.25210  0.67940  0.75760  Biso   1.000  H
  H64      1.0000 0.21070  0.65770  0.69060  Biso   1.000  H
  C32      1.0000 0.28800  0.60200  0.74470  Biso   1.000  C
  W17      1.0000 0.00000  0.14251  0.40945  Biso   1.000  W
  W18      1.0000 0.00000  0.38221  0.41976  Biso   1.000  W
  W19      1.0000 0.00000  0.25527  0.33157  Biso   1.000  W
  Cu1      1.0000 0.00000  0.12822  0.20930  Biso   1.000  Cu
  O129     1.0000 0.00000  0.17860  0.32790  Biso   1.000  O
  O130     1.0000 0.00000  0.07840  0.38490  Biso   1.000  O
  O131     1.0000 0.00000  0.32650  0.36090  Biso   1.000  O
  O132     1.0000 0.00000  0.27010  0.25180  Biso   1.000  O
  W20      1.0000 0.50000  0.64251  0.90945  Biso   1.000  W
  W21      1.0000 0.50000  0.88221  0.91976  Biso   1.000  W
  W22      1.0000 0.50000  0.75527  0.83157  Biso   1.000  W
  Cu2      1.0000 0.50000  0.62822  0.70930  Biso   1.000  Cu
  O133     1.0000 0.50000  0.67860  0.82790  Biso   1.000  O
  O134     1.0000 0.50000  0.57840  0.88490  Biso   1.000  O
  O135     1.0000 0.50000  0.82650  0.86090  Biso   1.000  O
  O136     1.0000 0.50000  0.77010  0.75180  Biso   1.000  O
  W23      1.0000 0.00000  0.85749  0.40945  Biso   1.000  W
  W24      1.0000 0.00000  0.61779  0.41976  Biso   1.000  W
  W25      1.0000 0.00000  0.74473  0.33157  Biso   1.000  W
  Cu3      1.0000 0.00000  0.87178  0.20930  Biso   1.000  Cu
  O137     1.0000 0.00000  0.82140  0.32790  Biso   1.000  O
  O138     1.0000 0.00000  0.92160  0.38490  Biso   1.000  O
  O139     1.0000 0.00000  0.67350  0.36090  Biso   1.000  O
  O140     1.0000 0.00000  0.72990  0.25180  Biso   1.000  O
  W26      1.0000 0.50000  0.35749  0.90945  Biso   1.000  W
  W27      1.0000 0.50000  0.11779  0.91976  Biso   1.000  W
  W28      1.0000 0.50000  0.24473  0.83157  Biso   1.000  W
  Cu4      1.0000 0.50000  0.37178  0.70930  Biso   1.000  Cu
  O141     1.0000 0.50000  0.32140  0.82790  Biso   1.000  O
  O142     1.0000 0.50000  0.42160  0.88490  Biso   1.000  O
  O143     1.0000 0.50000  0.17350  0.86090  Biso   1.000  O
  O144     1.0000 0.50000  0.22990  0.75180  Biso   1.000  O
  W29      1.0000 0.00000  0.14251  0.59055  Biso   1.000  W
  W30      1.0000 0.00000  0.38221  0.58024  Biso   1.000  W
  W31      1.0000 0.00000  0.25527  0.66843  Biso   1.000  W
  Cu5      1.0000 0.00000  0.12822  0.79070  Biso   1.000  Cu
  O145     1.0000 0.00000  0.17860  0.67210  Biso   1.000  O
  O146     1.0000 0.00000  0.07840  0.61510  Biso   1.000  O
  O147     1.0000 0.00000  0.32650  0.63910  Biso   1.000  O
  O148     1.0000 0.00000  0.27010  0.74820  Biso   1.000  O
  W32      1.0000 0.50000  0.64251  0.09055  Biso   1.000  W
  W33      1.0000 0.50000  0.88221  0.08024  Biso   1.000  W
  W34      1.0000 0.50000  0.75527  0.16843  Biso   1.000  W
  Cu6      1.0000 0.50000  0.62822  0.29070  Biso   1.000  Cu
  O149     1.0000 0.50000  0.67860  0.17210  Biso   1.000  O
  O150     1.0000 0.50000  0.57840  0.11510  Biso   1.000  O
  O151     1.0000 0.50000  0.82650  0.13910  Biso   1.000  O
  O152     1.0000 0.50000  0.77010  0.24820  Biso   1.000  O
  W35      1.0000 0.00000  0.85749  0.59055  Biso   1.000  W
  W36      1.0000 0.00000  0.61779  0.58024  Biso   1.000  W
  W37      1.0000 0.00000  0.74473  0.66843  Biso   1.000  W
  Cu7      1.0000 0.00000  0.87178  0.79070  Biso   1.000  Cu
  O153     1.0000 0.00000  0.82140  0.67210  Biso   1.000  O
  O154     1.0000 0.00000  0.92160  0.61510  Biso   1.000  O
  O155     1.0000 0.00000  0.67350  0.63910  Biso   1.000  O
  O156     1.0000 0.00000  0.72990  0.74820  Biso   1.000  O
  W38      1.0000 0.50000  0.35749  0.09055  Biso   1.000  W
  W39      1.0000 0.50000  0.11779  0.08024  Biso   1.000  W
  W40      1.0000 0.50000  0.24473  0.16843  Biso   1.000  W
  Cu8      1.0000 0.50000  0.37178  0.29070  Biso   1.000  Cu
  O157     1.0000 0.50000  0.32140  0.17210  Biso   1.000  O
  O158     1.0000 0.50000  0.42160  0.11510  Biso   1.000  O
  O159     1.0000 0.50000  0.17350  0.13910  Biso   1.000  O
  O160     1.0000 0.50000  0.22990  0.24820  Biso   1.000  O
  W41      1.0000 0.23961  0.34061  0.50000  Biso   1.000  W
  O161     1.0000 0.72200  0.19760  0.50000  Biso   1.000  O
  O162     1.0000 0.13500  0.25970  0.50000  Biso   1.000  O
  O163     1.0000 0.04200  0.31920  0.50000  Biso   1.000  O
  W42      1.0000 0.73961  0.84061  0.00000  Biso   1.000  W
  O164     1.0000 0.22200  0.69760  0.00000  Biso   1.000  O
  O165     1.0000 0.63500  0.75970  0.00000  Biso   1.000  O
  O166     1.0000 0.54200  0.81920  0.00000  Biso   1.000  O
  W43      1.0000 0.76039  0.65939  0.50000  Biso   1.000  W
  O167     1.0000 0.27800  0.80240  0.50000  Biso   1.000  O
  O168     1.0000 0.86500  0.74030  0.50000  Biso   1.000  O
  O169     1.0000 0.95800  0.68080  0.50000  Biso   1.000  O
  W44      1.0000 0.26039  0.15939  0.00000  Biso   1.000  W
  O170     1.0000 0.77800  0.30240  0.00000  Biso   1.000  O
  O171     1.0000 0.36500  0.24030  0.00000  Biso   1.000  O
  O172     1.0000 0.45800  0.18080  0.00000  Biso   1.000  O
  W45      1.0000 0.76039  0.34061  0.50000  Biso   1.000  W
  O173     1.0000 0.27800  0.19760  0.50000  Biso   1.000  O
  O174     1.0000 0.86500  0.25970  0.50000  Biso   1.000  O
  O175     1.0000 0.95800  0.31920  0.50000  Biso   1.000  O
  W46      1.0000 0.26039  0.84061  0.00000  Biso   1.000  W
  O176     1.0000 0.77800  0.69760  0.00000  Biso   1.000  O
  O177     1.0000 0.36500  0.75970  0.00000  Biso   1.000  O
  O178     1.0000 0.45800  0.81920  0.00000  Biso   1.000  O
  W47      1.0000 0.23961  0.65939  0.50000  Biso   1.000  W
  O179     1.0000 0.72200  0.80240  0.50000  Biso   1.000  O
  O180     1.0000 0.13500  0.74030  0.50000  Biso   1.000  O
  O181     1.0000 0.04200  0.68080  0.50000  Biso   1.000  O
  W48      1.0000 0.73961  0.15939  0.00000  Biso   1.000  W
  O182     1.0000 0.22200  0.30240  0.00000  Biso   1.000  O
  O183     1.0000 0.63500  0.24030  0.00000  Biso   1.000  O
  O184     1.0000 0.54200  0.18080  0.00000  Biso   1.000  O
  Cu9      1.0000 0.30090  0.00000  0.27060  Biso   1.000  Cu
  O185     1.0000 0.22600  0.00000  0.35520  Biso   1.000  O
  Cu10     1.0000 0.80090  0.50000  0.77060  Biso   1.000  Cu
  O186     1.0000 0.72600  0.50000  0.85520  Biso   1.000  O
  Cu11     1.0000 0.69910  0.00000  0.27060  Biso   1.000  Cu
  O187     1.0000 0.77400  0.00000  0.35520  Biso   1.000  O
  Cu12     1.0000 0.19910  0.50000  0.77060  Biso   1.000  Cu
  O188     1.0000 0.27400  0.50000  0.85520  Biso   1.000  O
  Cu13     1.0000 0.69910  0.00000  0.72940  Biso   1.000  Cu
  O189     1.0000 0.77400  0.00000  0.64480  Biso   1.000  O
  Cu14     1.0000 0.19910  0.50000  0.22940  Biso   1.000  Cu
  O190     1.0000 0.27400  0.50000  0.14480  Biso   1.000  O
  Cu15     1.0000 0.30090  0.00000  0.72940  Biso   1.000  Cu
  O191     1.0000 0.22600  0.00000  0.64480  Biso   1.000  O
  Cu16     1.0000 0.80090  0.50000  0.22940  Biso   1.000  Cu
  O192     1.0000 0.72600  0.50000  0.14480  Biso   1.000  O
  P1       1.0000 0.00000  0.25960  0.50000  Biso   1.000  P
  O193     1.0000 0.00000  0.13000  0.50000  Biso   1.000  O
  O194     1.0000 0.00000  0.42140  0.50000  Biso   1.000  O
  P2       1.0000 0.50000  0.75960  0.00000  Biso   1.000  P
  O195     1.0000 0.50000  0.63000  0.00000  Biso   1.000  O
  O196     1.0000 0.50000  0.92140  0.00000  Biso   1.000  O
  P3       1.0000 0.00000  0.74040  0.50000  Biso   1.000  P
  O197     1.0000 0.00000  0.87000  0.50000  Biso   1.000  O
  O198     1.0000 0.00000  0.57860  0.50000  Biso   1.000  O
  P4       1.0000 0.50000  0.24040  0.00000  Biso   1.000  P
  O199     1.0000 0.50000  0.37000  0.00000  Biso   1.000  O
  O200     1.0000 0.50000  0.07860  0.00000  Biso   1.000  O
  Cl1      1.0000 0.50000  0.00000  0.32800  Biso   1.000  Cl
  Cl2      1.0000 0.50000  0.00000  0.30200  Biso   1.000  Cl
  Cl3      1.0000 0.00000  0.50000  0.82800  Biso   1.000  Cl
  Cl4      1.0000 0.00000  0.50000  0.80200  Biso   1.000  Cl
  Cl5      1.0000 0.50000  0.00000  0.67200  Biso   1.000  Cl
  Cl6      1.0000 0.50000  0.00000  0.69800  Biso   1.000  Cl
  Cl7      1.0000 0.00000  0.50000  0.17200  Biso   1.000  Cl
  Cl8      1.0000 0.00000  0.50000  0.19800  Biso   1.000  Cl
  K1       1.0000 0.00000  0.00000  0.30000  Biso   1.000  K
  K2       1.0000 0.50000  0.50000  0.80000  Biso   1.000  K
  K3       1.0000 0.00000  0.00000  0.70000  Biso   1.000  K
  K4       1.0000 0.50000  0.50000  0.20000  Biso   1.000  K
  K5       1.0000 0.50000  0.12740  0.31100  Biso   1.000  K
  K6       1.0000 0.00000  0.62740  0.81100  Biso   1.000  K
  K7       1.0000 0.50000  0.87260  0.31100  Biso   1.000  K
  K8       1.0000 0.00000  0.37260  0.81100  Biso   1.000  K
  K9       1.0000 0.50000  0.12740  0.68900  Biso   1.000  K
  K10      1.0000 0.00000  0.62740  0.18900  Biso   1.000  K
  K11      1.0000 0.50000  0.87260  0.68900  Biso   1.000  K
  K12      1.0000 0.00000  0.37260  0.18900  Biso   1.000  K
