data_image0
_cell_length_a       15.6304
_cell_length_b       17.7732
_cell_length_c       17.2482
_cell_angle_alpha    90
_cell_angle_beta     91.591
_cell_angle_gamma    90

_symmetry_space_group_name_H-M    "P 1"
_symmetry_int_tables_number       1

loop_
  _symmetry_equiv_pos_as_xyz
  'x, y, z'

loop_
  _atom_site_label
  _atom_site_occupancy
  _atom_site_fract_x
  _atom_site_fract_y
  _atom_site_fract_z
  _atom_site_thermal_displace_type
  _atom_site_B_iso_or_equiv
  _atom_site_type_symbol
  Zn1      1.0000 0.46970  0.64139  0.67501  Biso   1.000  Zn
  Zn2      1.0000 0.46567  0.67756  0.26537  Biso   1.000  Zn
  N1       1.0000 0.38020  0.70140  0.73200  Biso   1.000  N
  N2       1.0000 0.30660  0.76260  0.81760  Biso   1.000  N
  N3       1.0000 0.30590  0.78180  0.10110  Biso   1.000  N
  N4       1.0000 0.37740  0.72720  0.19670  Biso   1.000  N
  N5       1.0000 0.09120  0.06730  0.89500  Biso   1.000  N
  N6       1.0000 0.17400  0.97400  0.94300  Biso   1.000  N
  O1       1.0000 0.55150  0.70200  0.61860  Biso   1.000  O
  O2       1.0000 0.44150  0.75270  0.55970  Biso   1.000  O
  O3       1.0000 0.52410  0.75660  0.32700  Biso   1.000  O
  O4       1.0000 0.52170  0.67920  0.42840  Biso   1.000  O
  O5       1.0000 0.95540  0.09700  0.26330  Biso   1.000  O
  O6       1.0000 0.92770  0.18090  0.35260  Biso   1.000  O
  O7       1.0000 0.96670  0.09590  0.73600  Biso   1.000  O
  O8       1.0000 0.89850  0.03750  0.83000  Biso   1.000  O
  C1       1.0000 0.52130  0.74240  0.56830  Biso   1.000  C
  C2       1.0000 0.58160  0.79290  0.52560  Biso   1.000  C
  C3       1.0000 0.63300  0.84170  0.57280  Biso   1.000  C
  H1       1.0000 0.62970  0.83920  0.62650  Biso   1.000  H
  C4       1.0000 0.68920  0.89400  0.53900  Biso   1.000  C
  C5       1.0000 0.68920  0.90140  0.45900  Biso   1.000  C
  C6       1.0000 0.63830  0.85150  0.41210  Biso   1.000  C
  H2       1.0000 0.63990  0.85520  0.35830  Biso   1.000  H
  C7       1.0000 0.58540  0.79670  0.44550  Biso   1.000  C
  C8       1.0000 0.54030  0.74090  0.39660  Biso   1.000  C
  C9       1.0000 0.74230  0.95990  0.41950  Biso   1.000  C
  C10      1.0000 0.79560  0.93990  0.36160  Biso   1.000  C
  H3       1.0000 0.79430  0.89080  0.34310  Biso   1.000  H
  C11      1.0000 0.85150  0.99120  0.32990  Biso   1.000  C
  H4       1.0000 0.88880  0.97590  0.29180  Biso   1.000  H
  C12      1.0000 0.85170  0.06650  0.35560  Biso   1.000  C
  C13      1.0000 0.79730  0.08680  0.41140  Biso   1.000  C
  H5       1.0000 0.79800  0.13630  0.42920  Biso   1.000  H
  C14      1.0000 0.74050  0.03610  0.44300  Biso   1.000  C
  H6       1.0000 0.70150  0.05210  0.47930  Biso   1.000  H
  C15      1.0000 0.91520  0.12020  0.32200  Biso   1.000  C
  C16      1.0000 0.74730  0.93620  0.59320  Biso   1.000  C
  C17      1.0000 0.71720  0.96230  0.66230  Biso   1.000  C
  H7       1.0000 0.66010  0.95480  0.67390  Biso   1.000  H
  C18      1.0000 0.77030  0.99950  0.71460  Biso   1.000  C
  H8       1.0000 0.74830  0.01560  0.76130  Biso   1.000  H
  C19      1.0000 0.85160  0.01290  0.70030  Biso   1.000  C
  C20      1.0000 0.88550  0.98620  0.63050  Biso   1.000  C
  H9       1.0000 0.94270  0.99410  0.61950  Biso   1.000  H
  C21      1.0000 0.83260  0.94860  0.57930  Biso   1.000  C
  H10      1.0000 0.85500  0.93070  0.53340  Biso   1.000  H
  C22      1.0000 0.90980  0.05120  0.75990  Biso   1.000  C
  C23      1.0000 0.29670  0.71400  0.70340  Biso   1.000  C
  H11      1.0000 0.27490  0.69770  0.65560  Biso   1.000  H
  C24      1.0000 0.25440  0.75200  0.75410  Biso   1.000  C
  H12      1.0000 0.19840  0.76900  0.74810  Biso   1.000  H
  C25      1.0000 0.38200  0.73080  0.80020  Biso   1.000  C
  H13      1.0000 0.42970  0.73020  0.83360  Biso   1.000  H
  C26      1.0000 0.28470  0.80060  0.88890  Biso   1.000  C
  C27      1.0000 0.30880  0.77360  0.95980  Biso   1.000  C
  H14      1.0000 0.34190  0.73020  0.96380  Biso   1.000  H
  C28      1.0000 0.28420  0.81050  0.02570  Biso   1.000  C
  C29      1.0000 0.23350  0.87720  0.02000  Biso   1.000  C
  H15      1.0000 0.21770  0.90280  0.06430  Biso   1.000  H
  C30      1.0000 0.20930  0.90200  0.94960  Biso   1.000  C
  C31      1.0000 0.23570  0.86810  0.88110  Biso   1.000  C
  H16      1.0000 0.22200  0.88860  0.83270  Biso   1.000  H
  C32      1.0000 0.37840  0.74380  0.12420  Biso   1.000  C
  H17      1.0000 0.42270  0.73150  0.09160  Biso   1.000  H
  C33      1.0000 0.30050  0.75250  0.22280  Biso   1.000  C
  H18      1.0000 0.28200  0.74650  0.27320  Biso   1.000  H
  C34      1.0000 0.25700  0.78600  0.16760  Biso   1.000  C
  H19      1.0000 0.20360  0.80840  0.17160  Biso   1.000  H
  C35      1.0000 0.12980  0.00590  0.88480  Biso   1.000  C
  H20      1.0000 0.14810  0.99300  0.83570  Biso   1.000  H
  C36      1.0000 0.19070  0.04050  0.99160  Biso   1.000  C
  H21      1.0000 0.22720  0.04300  0.03510  Biso   1.000  H
  C37      1.0000 0.14320  0.09760  0.96100  Biso   1.000  C
  H22      1.0000 0.14330  0.14710  0.97840  Biso   1.000  H
  N7       1.0000 0.14300  0.96300  0.94100  Biso   1.000  N
  C38      1.0000 0.08250  0.97890  0.99300  Biso   1.000  C
  H23      1.0000 0.06860  0.95290  0.03770  Biso   1.000  H
  C39      1.0000 0.04680  0.04370  0.96250  Biso   1.000  C
  H24      1.0000 0.00030  0.06870  0.98290  Biso   1.000  H
  Zn3      1.0000 0.03030  0.14139  0.82499  Biso   1.000  Zn
  Zn4      1.0000 0.03433  0.17756  0.23463  Biso   1.000  Zn
  N8       1.0000 0.11980  0.20140  0.76800  Biso   1.000  N
  N9       1.0000 0.19340  0.26260  0.68240  Biso   1.000  N
  N10      1.0000 0.19410  0.28180  0.39890  Biso   1.000  N
  N11      1.0000 0.12260  0.22720  0.30330  Biso   1.000  N
  N12      1.0000 0.40880  0.56730  0.60500  Biso   1.000  N
  N13      1.0000 0.32600  0.47400  0.55700  Biso   1.000  N
  O9       1.0000 0.94850  0.20200  0.88140  Biso   1.000  O
  O10      1.0000 0.05850  0.25270  0.94030  Biso   1.000  O
  O11      1.0000 0.97590  0.25660  0.17300  Biso   1.000  O
  O12      1.0000 0.97830  0.17920  0.07160  Biso   1.000  O
  O13      1.0000 0.54460  0.59700  0.23670  Biso   1.000  O
  O14      1.0000 0.57230  0.68090  0.14740  Biso   1.000  O
  O15      1.0000 0.53330  0.59590  0.76400  Biso   1.000  O
  O16      1.0000 0.60150  0.53750  0.67000  Biso   1.000  O
  C40      1.0000 0.97870  0.24240  0.93170  Biso   1.000  C
  C41      1.0000 0.91840  0.29290  0.97440  Biso   1.000  C
  C42      1.0000 0.86700  0.34170  0.92720  Biso   1.000  C
  H25      1.0000 0.87030  0.33920  0.87350  Biso   1.000  H
  C43      1.0000 0.81080  0.39400  0.96100  Biso   1.000  C
  C44      1.0000 0.81080  0.40140  0.04100  Biso   1.000  C
  C45      1.0000 0.86170  0.35150  0.08790  Biso   1.000  C
  H26      1.0000 0.86010  0.35520  0.14170  Biso   1.000  H
  C46      1.0000 0.91460  0.29670  0.05450  Biso   1.000  C
  C47      1.0000 0.95970  0.24090  0.10340  Biso   1.000  C
  C48      1.0000 0.75770  0.45990  0.08050  Biso   1.000  C
  C49      1.0000 0.70440  0.43990  0.13840  Biso   1.000  C
  H27      1.0000 0.70570  0.39080  0.15690  Biso   1.000  H
  C50      1.0000 0.64850  0.49120  0.17010  Biso   1.000  C
  H28      1.0000 0.61120  0.47590  0.20820  Biso   1.000  H
  C51      1.0000 0.64830  0.56650  0.14440  Biso   1.000  C
  C52      1.0000 0.70270  0.58680  0.08860  Biso   1.000  C
  H29      1.0000 0.70200  0.63630  0.07080  Biso   1.000  H
  C53      1.0000 0.75950  0.53610  0.05700  Biso   1.000  C
  H30      1.0000 0.79850  0.55210  0.02070  Biso   1.000  H
  C54      1.0000 0.58480  0.62020  0.17800  Biso   1.000  C
  C55      1.0000 0.75270  0.43620  0.90680  Biso   1.000  C
  C56      1.0000 0.78280  0.46230  0.83770  Biso   1.000  C
  H31      1.0000 0.83990  0.45480  0.82610  Biso   1.000  H
  C57      1.0000 0.72970  0.49950  0.78540  Biso   1.000  C
  H32      1.0000 0.75170  0.51560  0.73870  Biso   1.000  H
  C58      1.0000 0.64840  0.51290  0.79970  Biso   1.000  C
  C59      1.0000 0.61450  0.48620  0.86950  Biso   1.000  C
  H33      1.0000 0.55730  0.49410  0.88050  Biso   1.000  H
  C60      1.0000 0.66740  0.44860  0.92070  Biso   1.000  C
  H34      1.0000 0.64500  0.43070  0.96660  Biso   1.000  H
  C61      1.0000 0.59020  0.55120  0.74010  Biso   1.000  C
  C62      1.0000 0.20330  0.21400  0.79660  Biso   1.000  C
  H35      1.0000 0.22510  0.19770  0.84440  Biso   1.000  H
  C63      1.0000 0.24560  0.25200  0.74590  Biso   1.000  C
  H36      1.0000 0.30160  0.26900  0.75190  Biso   1.000  H
  C64      1.0000 0.11800  0.23080  0.69980  Biso   1.000  C
  H37      1.0000 0.07030  0.23020  0.66640  Biso   1.000  H
  C65      1.0000 0.21530  0.30060  0.61110  Biso   1.000  C
  C66      1.0000 0.19120  0.27360  0.54020  Biso   1.000  C
  H38      1.0000 0.15810  0.23020  0.53620  Biso   1.000  H
  C67      1.0000 0.21580  0.31050  0.47430  Biso   1.000  C
  C68      1.0000 0.26650  0.37720  0.48000  Biso   1.000  C
  H39      1.0000 0.28230  0.40280  0.43570  Biso   1.000  H
  C69      1.0000 0.29070  0.40200  0.55040  Biso   1.000  C
  C70      1.0000 0.26430  0.36810  0.61890  Biso   1.000  C
  H40      1.0000 0.27800  0.38860  0.66730  Biso   1.000  H
  C71      1.0000 0.12160  0.24380  0.37580  Biso   1.000  C
  H41      1.0000 0.07730  0.23150  0.40840  Biso   1.000  H
  C72      1.0000 0.19950  0.25250  0.27720  Biso   1.000  C
  H42      1.0000 0.21800  0.24650  0.22680  Biso   1.000  H
  C73      1.0000 0.24300  0.28600  0.33240  Biso   1.000  C
  H43      1.0000 0.29640  0.30840  0.32840  Biso   1.000  H
  C74      1.0000 0.37020  0.50590  0.61520  Biso   1.000  C
  H44      1.0000 0.35190  0.49300  0.66430  Biso   1.000  H
  C75      1.0000 0.30930  0.54050  0.50840  Biso   1.000  C
  H45      1.0000 0.27280  0.54300  0.46490  Biso   1.000  H
  C76      1.0000 0.35680  0.59760  0.53900  Biso   1.000  C
  H46      1.0000 0.35670  0.64710  0.52160  Biso   1.000  H
  N14      1.0000 0.35700  0.46300  0.55900  Biso   1.000  N
  C77      1.0000 0.41750  0.47890  0.50700  Biso   1.000  C
  H47      1.0000 0.43140  0.45290  0.46230  Biso   1.000  H
  C78      1.0000 0.45320  0.54370  0.53750  Biso   1.000  C
  H48      1.0000 0.49970  0.56870  0.51710  Biso   1.000  H
  Zn5      1.0000 0.53030  0.35861  0.32499  Biso   1.000  Zn
  Zn6      1.0000 0.53433  0.32244  0.73463  Biso   1.000  Zn
  N15      1.0000 0.61980  0.29860  0.26800  Biso   1.000  N
  N16      1.0000 0.69340  0.23740  0.18240  Biso   1.000  N
  N17      1.0000 0.69410  0.21820  0.89890  Biso   1.000  N
  N18      1.0000 0.62260  0.27280  0.80330  Biso   1.000  N
  N19      1.0000 0.90880  0.93270  0.10500  Biso   1.000  N
  N20      1.0000 0.82600  0.02600  0.05700  Biso   1.000  N
  O17      1.0000 0.44850  0.29800  0.38140  Biso   1.000  O
  O18      1.0000 0.55850  0.24730  0.44030  Biso   1.000  O
  O19      1.0000 0.47590  0.24340  0.67300  Biso   1.000  O
  O20      1.0000 0.47830  0.32080  0.57160  Biso   1.000  O
  O21      1.0000 0.04460  0.90300  0.73670  Biso   1.000  O
  O22      1.0000 0.07230  0.81910  0.64740  Biso   1.000  O
  O23      1.0000 0.03330  0.90410  0.26400  Biso   1.000  O
  O24      1.0000 0.10150  0.96250  0.17000  Biso   1.000  O
  C79      1.0000 0.47870  0.25760  0.43170  Biso   1.000  C
  C80      1.0000 0.41840  0.20710  0.47440  Biso   1.000  C
  C81      1.0000 0.36700  0.15830  0.42720  Biso   1.000  C
  H49      1.0000 0.37030  0.16080  0.37350  Biso   1.000  H
  C82      1.0000 0.31080  0.10600  0.46100  Biso   1.000  C
  C83      1.0000 0.31080  0.09860  0.54100  Biso   1.000  C
  C84      1.0000 0.36170  0.14850  0.58790  Biso   1.000  C
  H50      1.0000 0.36010  0.14480  0.64170  Biso   1.000  H
  C85      1.0000 0.41460  0.20330  0.55450  Biso   1.000  C
  C86      1.0000 0.45970  0.25910  0.60340  Biso   1.000  C
  C87      1.0000 0.25770  0.04010  0.58050  Biso   1.000  C
  C88      1.0000 0.20440  0.06010  0.63840  Biso   1.000  C
  H51      1.0000 0.20570  0.10920  0.65690  Biso   1.000  H
  C89      1.0000 0.14850  0.00880  0.67010  Biso   1.000  C
  H52      1.0000 0.11120  0.02410  0.70820  Biso   1.000  H
  C90      1.0000 0.14830  0.93350  0.64440  Biso   1.000  C
  C91      1.0000 0.20270  0.91320  0.58860  Biso   1.000  C
  H53      1.0000 0.20200  0.86370  0.57080  Biso   1.000  H
  C92      1.0000 0.25950  0.96390  0.55700  Biso   1.000  C
  H54      1.0000 0.29850  0.94790  0.52070  Biso   1.000  H
  C93      1.0000 0.08480  0.87980  0.67800  Biso   1.000  C
  C94      1.0000 0.25270  0.06380  0.40680  Biso   1.000  C
  C95      1.0000 0.28280  0.03770  0.33770  Biso   1.000  C
  H55      1.0000 0.33990  0.04520  0.32610  Biso   1.000  H
  C96      1.0000 0.22970  0.00050  0.28540  Biso   1.000  C
  H56      1.0000 0.25170  0.98440  0.23870  Biso   1.000  H
  C97      1.0000 0.14840  0.98710  0.29970  Biso   1.000  C
  C98      1.0000 0.11450  0.01380  0.36950  Biso   1.000  C
  H57      1.0000 0.05730  0.00590  0.38050  Biso   1.000  H
  C99      1.0000 0.16740  0.05140  0.42070  Biso   1.000  C
  H58      1.0000 0.14500  0.06930  0.46660  Biso   1.000  H
  C100     1.0000 0.09020  0.94880  0.24010  Biso   1.000  C
  C101     1.0000 0.70330  0.28600  0.29660  Biso   1.000  C
  H59      1.0000 0.72510  0.30230  0.34440  Biso   1.000  H
  C102     1.0000 0.74560  0.24800  0.24590  Biso   1.000  C
  H60      1.0000 0.80160  0.23100  0.25190  Biso   1.000  H
  C103     1.0000 0.61800  0.26920  0.19980  Biso   1.000  C
  H61      1.0000 0.57030  0.26980  0.16640  Biso   1.000  H
  C104     1.0000 0.71530  0.19940  0.11110  Biso   1.000  C
  C105     1.0000 0.69120  0.22640  0.04020  Biso   1.000  C
  H62      1.0000 0.65810  0.26980  0.03620  Biso   1.000  H
  C106     1.0000 0.71580  0.18950  0.97430  Biso   1.000  C
  C107     1.0000 0.76650  0.12280  0.98000  Biso   1.000  C
  H63      1.0000 0.78230  0.09720  0.93570  Biso   1.000  H
  C108     1.0000 0.79070  0.09800  0.05040  Biso   1.000  C
  C109     1.0000 0.76430  0.13190  0.11890  Biso   1.000  C
  H64      1.0000 0.77800  0.11140  0.16730  Biso   1.000  H
  C110     1.0000 0.62160  0.25620  0.87580  Biso   1.000  C
  H65      1.0000 0.57730  0.26850  0.90840  Biso   1.000  H
  C111     1.0000 0.69950  0.24750  0.77720  Biso   1.000  C
  H66      1.0000 0.71800  0.25350  0.72680  Biso   1.000  H
  C112     1.0000 0.74300  0.21400  0.83240  Biso   1.000  C
  H67      1.0000 0.79640  0.19160  0.82840  Biso   1.000  H
  C113     1.0000 0.87020  0.99410  0.11520  Biso   1.000  C
  H68      1.0000 0.85190  0.00700  0.16430  Biso   1.000  H
  C114     1.0000 0.80930  0.95950  0.00840  Biso   1.000  C
  H69      1.0000 0.77280  0.95700  0.96490  Biso   1.000  H
  C115     1.0000 0.85680  0.90240  0.03900  Biso   1.000  C
  H70      1.0000 0.85670  0.85290  0.02160  Biso   1.000  H
  N21      1.0000 0.85700  0.03700  0.05900  Biso   1.000  N
  C116     1.0000 0.91750  0.02110  0.00700  Biso   1.000  C
  H71      1.0000 0.93140  0.04710  0.96230  Biso   1.000  H
  C117     1.0000 0.95320  0.95630  0.03750  Biso   1.000  C
  H72      1.0000 0.99970  0.93130  0.01710  Biso   1.000  H
  Zn7      1.0000 0.96970  0.85861  0.17501  Biso   1.000  Zn
  Zn8      1.0000 0.96567  0.82244  0.76537  Biso   1.000  Zn
  N22      1.0000 0.88020  0.79860  0.23200  Biso   1.000  N
  N23      1.0000 0.80660  0.73740  0.31760  Biso   1.000  N
  N24      1.0000 0.80590  0.71820  0.60110  Biso   1.000  N
  N25      1.0000 0.87740  0.77280  0.69670  Biso   1.000  N
  N26      1.0000 0.59120  0.43270  0.39500  Biso   1.000  N
  N27      1.0000 0.67400  0.52600  0.44300  Biso   1.000  N
  O25      1.0000 0.05150  0.79800  0.11860  Biso   1.000  O
  O26      1.0000 0.94150  0.74730  0.05970  Biso   1.000  O
  O27      1.0000 0.02410  0.74340  0.82700  Biso   1.000  O
  O28      1.0000 0.02170  0.82080  0.92840  Biso   1.000  O
  O29      1.0000 0.45540  0.40300  0.76330  Biso   1.000  O
  O30      1.0000 0.42770  0.31910  0.85260  Biso   1.000  O
  O31      1.0000 0.46670  0.40410  0.23600  Biso   1.000  O
  O32      1.0000 0.39850  0.46250  0.33000  Biso   1.000  O
  C118     1.0000 0.02130  0.75760  0.06830  Biso   1.000  C
  C119     1.0000 0.08160  0.70710  0.02560  Biso   1.000  C
  C120     1.0000 0.13300  0.65830  0.07280  Biso   1.000  C
  H73      1.0000 0.12970  0.66080  0.12650  Biso   1.000  H
  C121     1.0000 0.18920  0.60600  0.03900  Biso   1.000  C
  C122     1.0000 0.18920  0.59860  0.95900  Biso   1.000  C
  C123     1.0000 0.13830  0.64850  0.91210  Biso   1.000  C
  H74      1.0000 0.13990  0.64480  0.85830  Biso   1.000  H
  C124     1.0000 0.08540  0.70330  0.94550  Biso   1.000  C
  C125     1.0000 0.04030  0.75910  0.89660  Biso   1.000  C
  C126     1.0000 0.24230  0.54010  0.91950  Biso   1.000  C
  C127     1.0000 0.29560  0.56010  0.86160  Biso   1.000  C
  H75      1.0000 0.29430  0.60920  0.84310  Biso   1.000  H
  C128     1.0000 0.35150  0.50880  0.82990  Biso   1.000  C
  H76      1.0000 0.38880  0.52410  0.79180  Biso   1.000  H
  C129     1.0000 0.35170  0.43350  0.85560  Biso   1.000  C
  C130     1.0000 0.29730  0.41320  0.91140  Biso   1.000  C
  H77      1.0000 0.29800  0.36370  0.92920  Biso   1.000  H
  C131     1.0000 0.24050  0.46390  0.94300  Biso   1.000  C
  H78      1.0000 0.20150  0.44790  0.97930  Biso   1.000  H
  C132     1.0000 0.41520  0.37980  0.82200  Biso   1.000  C
  C133     1.0000 0.24730  0.56380  0.09320  Biso   1.000  C
  C134     1.0000 0.21720  0.53770  0.16230  Biso   1.000  C
  H79      1.0000 0.16010  0.54520  0.17390  Biso   1.000  H
  C135     1.0000 0.27030  0.50050  0.21460  Biso   1.000  C
  H80      1.0000 0.24830  0.48440  0.26130  Biso   1.000  H
  C136     1.0000 0.35160  0.48710  0.20030  Biso   1.000  C
  C137     1.0000 0.38550  0.51380  0.13050  Biso   1.000  C
  H81      1.0000 0.44270  0.50590  0.11950  Biso   1.000  H
  C138     1.0000 0.33260  0.55140  0.07930  Biso   1.000  C
  H82      1.0000 0.35500  0.56930  0.03340  Biso   1.000  H
  C139     1.0000 0.40980  0.44880  0.25990  Biso   1.000  C
  C140     1.0000 0.79670  0.78600  0.20340  Biso   1.000  C
  H83      1.0000 0.77490  0.80230  0.15560  Biso   1.000  H
  C141     1.0000 0.75440  0.74800  0.25410  Biso   1.000  C
  H84      1.0000 0.69840  0.73100  0.24810  Biso   1.000  H
  C142     1.0000 0.88200  0.76920  0.30020  Biso   1.000  C
  H85      1.0000 0.92970  0.76980  0.33360  Biso   1.000  H
  C143     1.0000 0.78470  0.69940  0.38890  Biso   1.000  C
  C144     1.0000 0.80880  0.72640  0.45980  Biso   1.000  C
  H86      1.0000 0.84190  0.76980  0.46380  Biso   1.000  H
  C145     1.0000 0.78420  0.68950  0.52570  Biso   1.000  C
  C146     1.0000 0.73350  0.62280  0.52000  Biso   1.000  C
  H87      1.0000 0.71770  0.59720  0.56430  Biso   1.000  H
  C147     1.0000 0.70930  0.59800  0.44960  Biso   1.000  C
  C148     1.0000 0.73570  0.63190  0.38110  Biso   1.000  C
  H88      1.0000 0.72200  0.61140  0.33270  Biso   1.000  H
  C149     1.0000 0.87840  0.75620  0.62420  Biso   1.000  C
  H89      1.0000 0.92270  0.76850  0.59160  Biso   1.000  H
  C150     1.0000 0.80050  0.74750  0.72280  Biso   1.000  C
  H90      1.0000 0.78200  0.75350  0.77320  Biso   1.000  H
  C151     1.0000 0.75700  0.71400  0.66760  Biso   1.000  C
  H91      1.0000 0.70360  0.69160  0.67160  Biso   1.000  H
  C152     1.0000 0.62980  0.49410  0.38480  Biso   1.000  C
  H92      1.0000 0.64810  0.50700  0.33570  Biso   1.000  H
  C153     1.0000 0.69070  0.45950  0.49160  Biso   1.000  C
  H93      1.0000 0.72720  0.45700  0.53510  Biso   1.000  H
  C154     1.0000 0.64320  0.40240  0.46100  Biso   1.000  C
  H94      1.0000 0.64330  0.35290  0.47840  Biso   1.000  H
  N28      1.0000 0.64300  0.53700  0.44100  Biso   1.000  N
  C155     1.0000 0.58250  0.52110  0.49300  Biso   1.000  C
  H95      1.0000 0.56860  0.54710  0.53770  Biso   1.000  H
  C156     1.0000 0.54680  0.45630  0.46250  Biso   1.000  C
  H96      1.0000 0.50030  0.43130  0.48290  Biso   1.000  H
