data_image0
_cell_length_a       26.3396
_cell_length_b       14.0398
_cell_length_c       16.8718
_cell_angle_alpha    90
_cell_angle_beta     97.759
_cell_angle_gamma    90

_symmetry_space_group_name_H-M    "P 1"
_symmetry_int_tables_number       1

loop_
  _symmetry_equiv_pos_as_xyz
  'x, y, z'

loop_
  _atom_site_label
  _atom_site_occupancy
  _atom_site_fract_x
  _atom_site_fract_y
  _atom_site_fract_z
  _atom_site_thermal_displace_type
  _atom_site_B_iso_or_equiv
  _atom_site_type_symbol
  Eu1      1.0000 0.00142  0.57673  0.38946  Biso   1.000  Eu
  N1       1.0000 0.19030  0.23220  0.47340  Biso   1.000  N
  N2       1.0000 0.29120  0.27420  0.35390  Biso   1.000  N
  N3       1.0000 0.22940  0.69580  0.32180  Biso   1.000  N
  N4       1.0000 0.30580  0.77700  0.16700  Biso   1.000  N
  N5       1.0000 0.81340  0.27840  0.47820  Biso   1.000  N
  N6       1.0000 0.69090  0.25710  0.35830  Biso   1.000  N
  N7       1.0000 0.01760  0.74250  0.41030  Biso   1.000  N
  H1       1.0000 0.02250  0.74760  0.46390  Biso   1.000  H
  H2       1.0000 0.04880  0.75000  0.39530  Biso   1.000  H
  H3       1.0000 0.53120  0.29480  0.23660  Biso   1.000  H
  H4       1.0000 0.47810  0.29480  0.20560  Biso   1.000  H
  O1       1.0000 0.04720  0.43100  0.40330  Biso   1.000  O
  O2       1.0000 0.05920  0.36780  0.52650  Biso   1.000  O
  O3       1.0000 0.43040  0.16360  0.31580  Biso   1.000  O
  O4       1.0000 0.44310  0.10330  0.43850  Biso   1.000  O
  O5       1.0000 0.07890  0.61070  0.33420  Biso   1.000  O
  O6       1.0000 0.05370  0.65590  0.20880  Biso   1.000  O
  O7       1.0000 0.45070  0.97250  0.24770  Biso   1.000  O
  O8       1.0000 0.43470  0.92170  0.12380  Biso   1.000  O
  O9       1.0000 0.95020  0.42400  0.48210  Biso   1.000  O
  O10      1.0000 0.92870  0.47080  0.35780  Biso   1.000  O
  O11      1.0000 0.54740  0.14110  0.37310  Biso   1.000  O
  O12      1.0000 0.57470  0.07620  0.48820  Biso   1.000  O
  H5       1.0000 0.97390  0.45450  0.24510  Biso   1.000  H
  C1       1.0000 0.07200  0.38410  0.46010  Biso   1.000  C
  C2       1.0000 0.14420  0.26580  0.48500  Biso   1.000  C
  H6       1.0000 0.12600  0.23580  0.52140  Biso   1.000  H
  C3       1.0000 0.12310  0.34640  0.44250  Biso   1.000  C
  C4       1.0000 0.14620  0.38080  0.38270  Biso   1.000  C
  H7       1.0000 0.13090  0.42760  0.34840  Biso   1.000  H
  C5       1.0000 0.19430  0.34340  0.37420  Biso   1.000  C
  H8       1.0000 0.21180  0.36730  0.33410  Biso   1.000  H
  C6       1.0000 0.21590  0.27510  0.42100  Biso   1.000  C
  C7       1.0000 0.41760  0.14540  0.38210  Biso   1.000  C
  C8       1.0000 0.33790  0.24270  0.34450  Biso   1.000  C
  H9       1.0000 0.35340  0.26680  0.30240  Biso   1.000  H
  C9       1.0000 0.36400  0.17610  0.39430  Biso   1.000  C
  C10      1.0000 0.34200  0.14510  0.45600  Biso   1.000  C
  H10      1.0000 0.36010  0.10570  0.49420  Biso   1.000  H
  C11      1.0000 0.29190  0.17170  0.46340  Biso   1.000  C
  H11      1.0000 0.27490  0.14320  0.50210  Biso   1.000  H
  C12      1.0000 0.26750  0.23970  0.41370  Biso   1.000  C
  C13      1.0000 0.08750  0.64420  0.26790  Biso   1.000  C
  C14      1.0000 0.18070  0.66000  0.32340  Biso   1.000  C
  H12      1.0000 0.17430  0.62310  0.36670  Biso   1.000  H
  C15      1.0000 0.14060  0.67770  0.26160  Biso   1.000  C
  C16      1.0000 0.14810  0.72700  0.20050  Biso   1.000  C
  H13      1.0000 0.12200  0.73680  0.15850  Biso   1.000  H
  C17      1.0000 0.19760  0.76600  0.19890  Biso   1.000  C
  H14      1.0000 0.20220  0.80730  0.15750  Biso   1.000  H
  C18      1.0000 0.23570  0.74770  0.24990  Biso   1.000  C
  C19      1.0000 0.42570  0.92500  0.19310  Biso   1.000  C
  C20      1.0000 0.34850  0.81550  0.15670  Biso   1.000  C
  H15      1.0000 0.36140  0.80090  0.10940  Biso   1.000  H
  C21      1.0000 0.37740  0.87670  0.20900  Biso   1.000  C
  C22      1.0000 0.35610  0.89600  0.27970  Biso   1.000  C
  H16      1.0000 0.37290  0.93570  0.31890  Biso   1.000  H
  C23      1.0000 0.30920  0.85400  0.29000  Biso   1.000  C
  H17      1.0000 0.29320  0.87020  0.33390  Biso   1.000  H
  C24      1.0000 0.28700  0.79000  0.23600  Biso   1.000  C
  C25      1.0000 0.92030  0.42630  0.41900  Biso   1.000  C
  C26      1.0000 0.85890  0.32320  0.47720  Biso   1.000  C
  H18      1.0000 0.88380  0.31710  0.52160  Biso   1.000  H
  C27      1.0000 0.87000  0.37650  0.41440  Biso   1.000  C
  C28      1.0000 0.83350  0.38230  0.35060  Biso   1.000  C
  H19      1.0000 0.84020  0.41690  0.30610  Biso   1.000  H
  C29      1.0000 0.78680  0.33860  0.34940  Biso   1.000  C
  H20      1.0000 0.76160  0.34510  0.30550  Biso   1.000  H
  C30      1.0000 0.77810  0.28460  0.41480  Biso   1.000  C
  C31      1.0000 0.58120  0.12660  0.42920  Biso   1.000  C
  C32      1.0000 0.64360  0.21940  0.36220  Biso   1.000  C
  H21      1.0000 0.61750  0.23050  0.32050  Biso   1.000  H
  C33      1.0000 0.63380  0.16630  0.42540  Biso   1.000  C
  C34      1.0000 0.67470  0.14490  0.48000  Biso   1.000  C
  H22      1.0000 0.67040  0.10230  0.52070  Biso   1.000  H
  C35      1.0000 0.72160  0.18310  0.47770  Biso   1.000  C
  H23      1.0000 0.74920  0.16810  0.51620  Biso   1.000  H
  C36      1.0000 0.72680  0.24270  0.41850  Biso   1.000  C
  C37      1.0000 0.99280  0.82830  0.38590  Biso   1.000  C
  H24      1.0000 0.01040  0.85860  0.34650  Biso   1.000  H
  H25      1.0000 0.99300  0.86970  0.43120  Biso   1.000  H
  H26      1.0000 0.95800  0.81530  0.36330  Biso   1.000  H
  H27      1.0000 0.50640  0.41780  0.27200  Biso   1.000  H
  H28      1.0000 0.50730  0.35680  0.35000  Biso   1.000  H
  H29      1.0000 0.45510  0.37830  0.29670  Biso   1.000  H
  Eu2      1.0000 0.49758  0.97548  0.03638  Biso   1.000  Eu
  C38      1.0000 0.49080  0.36530  0.29620  Biso   1.000  C
  N8       1.0000 0.21920  0.75810  0.31240  Biso   1.000  N
  N9       1.0000 0.29660  0.84930  0.20180  Biso   1.000  N
  O13      1.0000 0.43240  0.98690  0.20510  Biso   1.000  O
  O14      1.0000 0.45590  0.96220  0.33330  Biso   1.000  O
  C39      1.0000 0.17240  0.71800  0.32080  Biso   1.000  C
  H30      1.0000 0.16210  0.71870  0.37140  Biso   1.000  H
  C40      1.0000 0.15930  0.68000  0.18600  Biso   1.000  C
  H31      1.0000 0.13790  0.66010  0.14080  Biso   1.000  H
  C41      1.0000 0.20680  0.71120  0.17780  Biso   1.000  C
  H32      1.0000 0.21990  0.70900  0.12930  Biso   1.000  H
  C42      1.0000 0.42670  0.95300  0.26510  Biso   1.000  C
  C43      1.0000 0.34150  0.89520  0.20350  Biso   1.000  C
  H33      1.0000 0.34670  0.93230  0.15970  Biso   1.000  H
  C44      1.0000 0.37940  0.89000  0.26530  Biso   1.000  C
  C45      1.0000 0.36760  0.83580  0.33270  Biso   1.000  C
  H34      1.0000 0.39110  0.83440  0.37910  Biso   1.000  H
  C46      1.0000 0.32320  0.78690  0.33030  Biso   1.000  C
  H35      1.0000 0.31680  0.74800  0.37250  Biso   1.000  H
  C47      1.0000 0.28700  0.79700  0.26200  Biso   1.000  C
  Eu3      1.0000 0.99858  0.57673  0.11054  Biso   1.000  Eu
  N10      1.0000 0.80970  0.23220  0.02660  Biso   1.000  N
  N11      1.0000 0.70880  0.27420  0.14610  Biso   1.000  N
  N12      1.0000 0.77060  0.69580  0.17820  Biso   1.000  N
  N13      1.0000 0.69420  0.77700  0.33300  Biso   1.000  N
  N14      1.0000 0.18660  0.27840  0.02180  Biso   1.000  N
  N15      1.0000 0.30910  0.25710  0.14170  Biso   1.000  N
  N16      1.0000 0.98240  0.74250  0.08970  Biso   1.000  N
  H36      1.0000 0.97750  0.74760  0.03610  Biso   1.000  H
  H37      1.0000 0.95120  0.75000  0.10470  Biso   1.000  H
  H38      1.0000 0.46880  0.29480  0.26340  Biso   1.000  H
  H39      1.0000 0.52190  0.29480  0.29440  Biso   1.000  H
  O15      1.0000 0.95280  0.43100  0.09670  Biso   1.000  O
  O16      1.0000 0.94080  0.36780  0.97350  Biso   1.000  O
  O17      1.0000 0.56960  0.16360  0.18420  Biso   1.000  O
  O18      1.0000 0.55690  0.10330  0.06150  Biso   1.000  O
  O19      1.0000 0.92110  0.61070  0.16580  Biso   1.000  O
  O20      1.0000 0.94630  0.65590  0.29120  Biso   1.000  O
  O21      1.0000 0.54930  0.97250  0.25230  Biso   1.000  O
  O22      1.0000 0.56530  0.92170  0.37620  Biso   1.000  O
  O23      1.0000 0.04980  0.42400  0.01790  Biso   1.000  O
  O24      1.0000 0.07130  0.47080  0.14220  Biso   1.000  O
  O25      1.0000 0.45260  0.14110  0.12690  Biso   1.000  O
  O26      1.0000 0.42530  0.07620  0.01180  Biso   1.000  O
  H40      1.0000 0.02610  0.45450  0.25490  Biso   1.000  H
  C48      1.0000 0.92800  0.38410  0.03990  Biso   1.000  C
  C49      1.0000 0.85580  0.26580  0.01500  Biso   1.000  C
  H41      1.0000 0.87400  0.23580  0.97860  Biso   1.000  H
  C50      1.0000 0.87690  0.34640  0.05750  Biso   1.000  C
  C51      1.0000 0.85380  0.38080  0.11730  Biso   1.000  C
  H42      1.0000 0.86910  0.42760  0.15160  Biso   1.000  H
  C52      1.0000 0.80570  0.34340  0.12580  Biso   1.000  C
  H43      1.0000 0.78820  0.36730  0.16590  Biso   1.000  H
  C53      1.0000 0.78410  0.27510  0.07900  Biso   1.000  C
  C54      1.0000 0.58240  0.14540  0.11790  Biso   1.000  C
  C55      1.0000 0.66210  0.24270  0.15550  Biso   1.000  C
  H44      1.0000 0.64660  0.26680  0.19760  Biso   1.000  H
  C56      1.0000 0.63600  0.17610  0.10570  Biso   1.000  C
  C57      1.0000 0.65800  0.14510  0.04400  Biso   1.000  C
  H45      1.0000 0.63990  0.10570  0.00580  Biso   1.000  H
  C58      1.0000 0.70810  0.17170  0.03660  Biso   1.000  C
  H46      1.0000 0.72510  0.14320  0.99790  Biso   1.000  H
  C59      1.0000 0.73250  0.23970  0.08630  Biso   1.000  C
  C60      1.0000 0.91250  0.64420  0.23210  Biso   1.000  C
  C61      1.0000 0.81930  0.66000  0.17660  Biso   1.000  C
  H47      1.0000 0.82570  0.62310  0.13330  Biso   1.000  H
  C62      1.0000 0.85940  0.67770  0.23840  Biso   1.000  C
  C63      1.0000 0.85190  0.72700  0.29950  Biso   1.000  C
  H48      1.0000 0.87800  0.73680  0.34150  Biso   1.000  H
  C64      1.0000 0.80240  0.76600  0.30110  Biso   1.000  C
  H49      1.0000 0.79780  0.80730  0.34250  Biso   1.000  H
  C65      1.0000 0.76430  0.74770  0.25010  Biso   1.000  C
  C66      1.0000 0.57430  0.92500  0.30690  Biso   1.000  C
  C67      1.0000 0.65150  0.81550  0.34330  Biso   1.000  C
  H50      1.0000 0.63860  0.80090  0.39060  Biso   1.000  H
  C68      1.0000 0.62260  0.87670  0.29100  Biso   1.000  C
  C69      1.0000 0.64390  0.89600  0.22030  Biso   1.000  C
  H51      1.0000 0.62710  0.93570  0.18110  Biso   1.000  H
  C70      1.0000 0.69080  0.85400  0.21000  Biso   1.000  C
  H52      1.0000 0.70680  0.87020  0.16610  Biso   1.000  H
  C71      1.0000 0.71300  0.79000  0.26400  Biso   1.000  C
  C72      1.0000 0.07970  0.42630  0.08100  Biso   1.000  C
  C73      1.0000 0.14110  0.32320  0.02280  Biso   1.000  C
  H53      1.0000 0.11620  0.31710  0.97840  Biso   1.000  H
  C74      1.0000 0.13000  0.37650  0.08560  Biso   1.000  C
  C75      1.0000 0.16650  0.38230  0.14940  Biso   1.000  C
  H54      1.0000 0.15980  0.41690  0.19390  Biso   1.000  H
  C76      1.0000 0.21320  0.33860  0.15060  Biso   1.000  C
  H55      1.0000 0.23840  0.34510  0.19450  Biso   1.000  H
  C77      1.0000 0.22190  0.28460  0.08520  Biso   1.000  C
  C78      1.0000 0.41880  0.12660  0.07080  Biso   1.000  C
  C79      1.0000 0.35640  0.21940  0.13780  Biso   1.000  C
  H56      1.0000 0.38250  0.23050  0.17950  Biso   1.000  H
  C80      1.0000 0.36620  0.16630  0.07460  Biso   1.000  C
  C81      1.0000 0.32530  0.14490  0.02000  Biso   1.000  C
  H57      1.0000 0.32960  0.10230  0.97930  Biso   1.000  H
  C82      1.0000 0.27840  0.18310  0.02230  Biso   1.000  C
  H58      1.0000 0.25080  0.16810  0.98380  Biso   1.000  H
  C83      1.0000 0.27320  0.24270  0.08150  Biso   1.000  C
  C84      1.0000 0.00720  0.82830  0.11410  Biso   1.000  C
  H59      1.0000 0.98960  0.85860  0.15350  Biso   1.000  H
  H60      1.0000 0.00700  0.86970  0.06880  Biso   1.000  H
  H61      1.0000 0.04200  0.81530  0.13670  Biso   1.000  H
  H62      1.0000 0.49360  0.41780  0.22800  Biso   1.000  H
  H63      1.0000 0.49270  0.35680  0.15000  Biso   1.000  H
  H64      1.0000 0.54490  0.37830  0.20330  Biso   1.000  H
  Eu4      1.0000 0.50242  0.97548  0.46362  Biso   1.000  Eu
  C85      1.0000 0.50920  0.36530  0.20380  Biso   1.000  C
  N17      1.0000 0.78080  0.75810  0.18760  Biso   1.000  N
  N18      1.0000 0.70340  0.84930  0.29820  Biso   1.000  N
  O27      1.0000 0.56760  0.98690  0.29490  Biso   1.000  O
  O28      1.0000 0.54410  0.96220  0.16670  Biso   1.000  O
  C86      1.0000 0.82760  0.71800  0.17920  Biso   1.000  C
  H65      1.0000 0.83790  0.71870  0.12860  Biso   1.000  H
  C87      1.0000 0.84070  0.68000  0.31400  Biso   1.000  C
  H66      1.0000 0.86210  0.66010  0.35920  Biso   1.000  H
  C88      1.0000 0.79320  0.71120  0.32220  Biso   1.000  C
  H67      1.0000 0.78010  0.70900  0.37070  Biso   1.000  H
  C89      1.0000 0.57330  0.95300  0.23490  Biso   1.000  C
  C90      1.0000 0.65850  0.89520  0.29650  Biso   1.000  C
  H68      1.0000 0.65330  0.93230  0.34030  Biso   1.000  H
  C91      1.0000 0.62060  0.89000  0.23470  Biso   1.000  C
  C92      1.0000 0.63240  0.83580  0.16730  Biso   1.000  C
  H69      1.0000 0.60890  0.83440  0.12090  Biso   1.000  H
  C93      1.0000 0.67680  0.78690  0.16970  Biso   1.000  C
  H70      1.0000 0.68320  0.74800  0.12750  Biso   1.000  H
  C94      1.0000 0.71300  0.79700  0.23800  Biso   1.000  C
  Eu5      1.0000 0.99858  0.42327  0.61054  Biso   1.000  Eu
  N19      1.0000 0.80970  0.76780  0.52660  Biso   1.000  N
  N20      1.0000 0.70880  0.72580  0.64610  Biso   1.000  N
  N21      1.0000 0.77060  0.30420  0.67820  Biso   1.000  N
  N22      1.0000 0.69420  0.22300  0.83300  Biso   1.000  N
  N23      1.0000 0.18660  0.72160  0.52180  Biso   1.000  N
  N24      1.0000 0.30910  0.74290  0.64170  Biso   1.000  N
  N25      1.0000 0.98240  0.25750  0.58970  Biso   1.000  N
  H71      1.0000 0.97750  0.25240  0.53610  Biso   1.000  H
  H72      1.0000 0.95120  0.25000  0.60470  Biso   1.000  H
  H73      1.0000 0.46880  0.70520  0.76340  Biso   1.000  H
  H74      1.0000 0.52190  0.70520  0.79440  Biso   1.000  H
  O29      1.0000 0.95280  0.56900  0.59670  Biso   1.000  O
  O30      1.0000 0.94080  0.63220  0.47350  Biso   1.000  O
  O31      1.0000 0.56960  0.83640  0.68420  Biso   1.000  O
  O32      1.0000 0.55690  0.89670  0.56150  Biso   1.000  O
  O33      1.0000 0.92110  0.38930  0.66580  Biso   1.000  O
  O34      1.0000 0.94630  0.34410  0.79120  Biso   1.000  O
  O35      1.0000 0.54930  0.02750  0.75230  Biso   1.000  O
  O36      1.0000 0.56530  0.07830  0.87620  Biso   1.000  O
  O37      1.0000 0.04980  0.57600  0.51790  Biso   1.000  O
  O38      1.0000 0.07130  0.52920  0.64220  Biso   1.000  O
  O39      1.0000 0.45260  0.85890  0.62690  Biso   1.000  O
  O40      1.0000 0.42530  0.92380  0.51180  Biso   1.000  O
  H75      1.0000 0.02610  0.54550  0.75490  Biso   1.000  H
  C95      1.0000 0.92800  0.61590  0.53990  Biso   1.000  C
  C96      1.0000 0.85580  0.73420  0.51500  Biso   1.000  C
  H76      1.0000 0.87400  0.76420  0.47860  Biso   1.000  H
  C97      1.0000 0.87690  0.65360  0.55750  Biso   1.000  C
  C98      1.0000 0.85380  0.61920  0.61730  Biso   1.000  C
  H77      1.0000 0.86910  0.57240  0.65160  Biso   1.000  H
  C99      1.0000 0.80570  0.65660  0.62580  Biso   1.000  C
  H78      1.0000 0.78820  0.63270  0.66590  Biso   1.000  H
  C100     1.0000 0.78410  0.72490  0.57900  Biso   1.000  C
  C101     1.0000 0.58240  0.85460  0.61790  Biso   1.000  C
  C102     1.0000 0.66210  0.75730  0.65550  Biso   1.000  C
  H79      1.0000 0.64660  0.73320  0.69760  Biso   1.000  H
  C103     1.0000 0.63600  0.82390  0.60570  Biso   1.000  C
  C104     1.0000 0.65800  0.85490  0.54400  Biso   1.000  C
  H80      1.0000 0.63990  0.89430  0.50580  Biso   1.000  H
  C105     1.0000 0.70810  0.82830  0.53660  Biso   1.000  C
  H81      1.0000 0.72510  0.85680  0.49790  Biso   1.000  H
  C106     1.0000 0.73250  0.76030  0.58630  Biso   1.000  C
  C107     1.0000 0.91250  0.35580  0.73210  Biso   1.000  C
  C108     1.0000 0.81930  0.34000  0.67660  Biso   1.000  C
  H82      1.0000 0.82570  0.37690  0.63330  Biso   1.000  H
  C109     1.0000 0.85940  0.32230  0.73840  Biso   1.000  C
  C110     1.0000 0.85190  0.27300  0.79950  Biso   1.000  C
  H83      1.0000 0.87800  0.26320  0.84150  Biso   1.000  H
  C111     1.0000 0.80240  0.23400  0.80110  Biso   1.000  C
  H84      1.0000 0.79780  0.19270  0.84250  Biso   1.000  H
  C112     1.0000 0.76430  0.25230  0.75010  Biso   1.000  C
  C113     1.0000 0.57430  0.07500  0.80690  Biso   1.000  C
  C114     1.0000 0.65150  0.18450  0.84330  Biso   1.000  C
  H85      1.0000 0.63860  0.19910  0.89060  Biso   1.000  H
  C115     1.0000 0.62260  0.12330  0.79100  Biso   1.000  C
  C116     1.0000 0.64390  0.10400  0.72030  Biso   1.000  C
  H86      1.0000 0.62710  0.06430  0.68110  Biso   1.000  H
  C117     1.0000 0.69080  0.14600  0.71000  Biso   1.000  C
  H87      1.0000 0.70680  0.12980  0.66610  Biso   1.000  H
  C118     1.0000 0.71300  0.21000  0.76400  Biso   1.000  C
  C119     1.0000 0.07970  0.57370  0.58100  Biso   1.000  C
  C120     1.0000 0.14110  0.67680  0.52280  Biso   1.000  C
  H88      1.0000 0.11620  0.68290  0.47840  Biso   1.000  H
  C121     1.0000 0.13000  0.62350  0.58560  Biso   1.000  C
  C122     1.0000 0.16650  0.61770  0.64940  Biso   1.000  C
  H89      1.0000 0.15980  0.58310  0.69390  Biso   1.000  H
  C123     1.0000 0.21320  0.66140  0.65060  Biso   1.000  C
  H90      1.0000 0.23840  0.65490  0.69450  Biso   1.000  H
  C124     1.0000 0.22190  0.71540  0.58520  Biso   1.000  C
  C125     1.0000 0.41880  0.87340  0.57080  Biso   1.000  C
  C126     1.0000 0.35640  0.78060  0.63780  Biso   1.000  C
  H91      1.0000 0.38250  0.76950  0.67950  Biso   1.000  H
  C127     1.0000 0.36620  0.83370  0.57460  Biso   1.000  C
  C128     1.0000 0.32530  0.85510  0.52000  Biso   1.000  C
  H92      1.0000 0.32960  0.89770  0.47930  Biso   1.000  H
  C129     1.0000 0.27840  0.81690  0.52230  Biso   1.000  C
  H93      1.0000 0.25080  0.83190  0.48380  Biso   1.000  H
  C130     1.0000 0.27320  0.75730  0.58150  Biso   1.000  C
  C131     1.0000 0.00720  0.17170  0.61410  Biso   1.000  C
  H94      1.0000 0.98960  0.14140  0.65350  Biso   1.000  H
  H95      1.0000 0.00700  0.13030  0.56880  Biso   1.000  H
  H96      1.0000 0.04200  0.18470  0.63670  Biso   1.000  H
  H97      1.0000 0.49360  0.58220  0.72800  Biso   1.000  H
  H98      1.0000 0.49270  0.64320  0.65000  Biso   1.000  H
  H99      1.0000 0.54490  0.62170  0.70330  Biso   1.000  H
  Eu6      1.0000 0.50242  0.02452  0.96362  Biso   1.000  Eu
  C132     1.0000 0.50920  0.63470  0.70380  Biso   1.000  C
  N26      1.0000 0.78080  0.24190  0.68760  Biso   1.000  N
  N27      1.0000 0.70340  0.15070  0.79820  Biso   1.000  N
  O41      1.0000 0.56760  0.01310  0.79490  Biso   1.000  O
  O42      1.0000 0.54410  0.03780  0.66670  Biso   1.000  O
  C133     1.0000 0.82760  0.28200  0.67920  Biso   1.000  C
  H100     1.0000 0.83790  0.28130  0.62860  Biso   1.000  H
  C134     1.0000 0.84070  0.32000  0.81400  Biso   1.000  C
  H101     1.0000 0.86210  0.33990  0.85920  Biso   1.000  H
  C135     1.0000 0.79320  0.28880  0.82220  Biso   1.000  C
  H102     1.0000 0.78010  0.29100  0.87070  Biso   1.000  H
  C136     1.0000 0.57330  0.04700  0.73490  Biso   1.000  C
  C137     1.0000 0.65850  0.10480  0.79650  Biso   1.000  C
  H103     1.0000 0.65330  0.06770  0.84030  Biso   1.000  H
  C138     1.0000 0.62060  0.11000  0.73470  Biso   1.000  C
  C139     1.0000 0.63240  0.16420  0.66730  Biso   1.000  C
  H104     1.0000 0.60890  0.16560  0.62090  Biso   1.000  H
  C140     1.0000 0.67680  0.21310  0.66970  Biso   1.000  C
  H105     1.0000 0.68320  0.25200  0.62750  Biso   1.000  H
  C141     1.0000 0.71300  0.20300  0.73800  Biso   1.000  C
  Eu7      1.0000 0.00142  0.42327  0.88946  Biso   1.000  Eu
  N28      1.0000 0.19030  0.76780  0.97340  Biso   1.000  N
  N29      1.0000 0.29120  0.72580  0.85390  Biso   1.000  N
  N30      1.0000 0.22940  0.30420  0.82180  Biso   1.000  N
  N31      1.0000 0.30580  0.22300  0.66700  Biso   1.000  N
  N32      1.0000 0.81340  0.72160  0.97820  Biso   1.000  N
  N33      1.0000 0.69090  0.74290  0.85830  Biso   1.000  N
  N34      1.0000 0.01760  0.25750  0.91030  Biso   1.000  N
  H106     1.0000 0.02250  0.25240  0.96390  Biso   1.000  H
  H107     1.0000 0.04880  0.25000  0.89530  Biso   1.000  H
  H108     1.0000 0.53120  0.70520  0.73660  Biso   1.000  H
  H109     1.0000 0.47810  0.70520  0.70560  Biso   1.000  H
  O43      1.0000 0.04720  0.56900  0.90330  Biso   1.000  O
  O44      1.0000 0.05920  0.63220  0.02650  Biso   1.000  O
  O45      1.0000 0.43040  0.83640  0.81580  Biso   1.000  O
  O46      1.0000 0.44310  0.89670  0.93850  Biso   1.000  O
  O47      1.0000 0.07890  0.38930  0.83420  Biso   1.000  O
  O48      1.0000 0.05370  0.34410  0.70880  Biso   1.000  O
  O49      1.0000 0.45070  0.02750  0.74770  Biso   1.000  O
  O50      1.0000 0.43470  0.07830  0.62380  Biso   1.000  O
  O51      1.0000 0.95020  0.57600  0.98210  Biso   1.000  O
  O52      1.0000 0.92870  0.52920  0.85780  Biso   1.000  O
  O53      1.0000 0.54740  0.85890  0.87310  Biso   1.000  O
  O54      1.0000 0.57470  0.92380  0.98820  Biso   1.000  O
  H110     1.0000 0.97390  0.54550  0.74510  Biso   1.000  H
  C142     1.0000 0.07200  0.61590  0.96010  Biso   1.000  C
  C143     1.0000 0.14420  0.73420  0.98500  Biso   1.000  C
  H111     1.0000 0.12600  0.76420  0.02140  Biso   1.000  H
  C144     1.0000 0.12310  0.65360  0.94250  Biso   1.000  C
  C145     1.0000 0.14620  0.61920  0.88270  Biso   1.000  C
  H112     1.0000 0.13090  0.57240  0.84840  Biso   1.000  H
  C146     1.0000 0.19430  0.65660  0.87420  Biso   1.000  C
  H113     1.0000 0.21180  0.63270  0.83410  Biso   1.000  H
  C147     1.0000 0.21590  0.72490  0.92100  Biso   1.000  C
  C148     1.0000 0.41760  0.85460  0.88210  Biso   1.000  C
  C149     1.0000 0.33790  0.75730  0.84450  Biso   1.000  C
  H114     1.0000 0.35340  0.73320  0.80240  Biso   1.000  H
  C150     1.0000 0.36400  0.82390  0.89430  Biso   1.000  C
  C151     1.0000 0.34200  0.85490  0.95600  Biso   1.000  C
  H115     1.0000 0.36010  0.89430  0.99420  Biso   1.000  H
  C152     1.0000 0.29190  0.82830  0.96340  Biso   1.000  C
  H116     1.0000 0.27490  0.85680  0.00210  Biso   1.000  H
  C153     1.0000 0.26750  0.76030  0.91370  Biso   1.000  C
  C154     1.0000 0.08750  0.35580  0.76790  Biso   1.000  C
  C155     1.0000 0.18070  0.34000  0.82340  Biso   1.000  C
  H117     1.0000 0.17430  0.37690  0.86670  Biso   1.000  H
  C156     1.0000 0.14060  0.32230  0.76160  Biso   1.000  C
  C157     1.0000 0.14810  0.27300  0.70050  Biso   1.000  C
  H118     1.0000 0.12200  0.26320  0.65850  Biso   1.000  H
  C158     1.0000 0.19760  0.23400  0.69890  Biso   1.000  C
  H119     1.0000 0.20220  0.19270  0.65750  Biso   1.000  H
  C159     1.0000 0.23570  0.25230  0.74990  Biso   1.000  C
  C160     1.0000 0.42570  0.07500  0.69310  Biso   1.000  C
  C161     1.0000 0.34850  0.18450  0.65670  Biso   1.000  C
  H120     1.0000 0.36140  0.19910  0.60940  Biso   1.000  H
  C162     1.0000 0.37740  0.12330  0.70900  Biso   1.000  C
  C163     1.0000 0.35610  0.10400  0.77970  Biso   1.000  C
  H121     1.0000 0.37290  0.06430  0.81890  Biso   1.000  H
  C164     1.0000 0.30920  0.14600  0.79000  Biso   1.000  C
  H122     1.0000 0.29320  0.12980  0.83390  Biso   1.000  H
  C165     1.0000 0.28700  0.21000  0.73600  Biso   1.000  C
  C166     1.0000 0.92030  0.57370  0.91900  Biso   1.000  C
  C167     1.0000 0.85890  0.67680  0.97720  Biso   1.000  C
  H123     1.0000 0.88380  0.68290  0.02160  Biso   1.000  H
  C168     1.0000 0.87000  0.62350  0.91440  Biso   1.000  C
  C169     1.0000 0.83350  0.61770  0.85060  Biso   1.000  C
  H124     1.0000 0.84020  0.58310  0.80610  Biso   1.000  H
  C170     1.0000 0.78680  0.66140  0.84940  Biso   1.000  C
  H125     1.0000 0.76160  0.65490  0.80550  Biso   1.000  H
  C171     1.0000 0.77810  0.71540  0.91480  Biso   1.000  C
  C172     1.0000 0.58120  0.87340  0.92920  Biso   1.000  C
  C173     1.0000 0.64360  0.78060  0.86220  Biso   1.000  C
  H126     1.0000 0.61750  0.76950  0.82050  Biso   1.000  H
  C174     1.0000 0.63380  0.83370  0.92540  Biso   1.000  C
  C175     1.0000 0.67470  0.85510  0.98000  Biso   1.000  C
  H127     1.0000 0.67040  0.89770  0.02070  Biso   1.000  H
  C176     1.0000 0.72160  0.81690  0.97770  Biso   1.000  C
  H128     1.0000 0.74920  0.83190  0.01620  Biso   1.000  H
  C177     1.0000 0.72680  0.75730  0.91850  Biso   1.000  C
  C178     1.0000 0.99280  0.17170  0.88590  Biso   1.000  C
  H129     1.0000 0.01040  0.14140  0.84650  Biso   1.000  H
  H130     1.0000 0.99300  0.13030  0.93120  Biso   1.000  H
  H131     1.0000 0.95800  0.18470  0.86330  Biso   1.000  H
  H132     1.0000 0.50640  0.58220  0.77200  Biso   1.000  H
  H133     1.0000 0.50730  0.64320  0.85000  Biso   1.000  H
  H134     1.0000 0.45510  0.62170  0.79670  Biso   1.000  H
  Eu8      1.0000 0.49758  0.02452  0.53638  Biso   1.000  Eu
  C179     1.0000 0.49080  0.63470  0.79620  Biso   1.000  C
  N35      1.0000 0.21920  0.24190  0.81240  Biso   1.000  N
  N36      1.0000 0.29660  0.15070  0.70180  Biso   1.000  N
  O55      1.0000 0.43240  0.01310  0.70510  Biso   1.000  O
  O56      1.0000 0.45590  0.03780  0.83330  Biso   1.000  O
  C180     1.0000 0.17240  0.28200  0.82080  Biso   1.000  C
  H135     1.0000 0.16210  0.28130  0.87140  Biso   1.000  H
  C181     1.0000 0.15930  0.32000  0.68600  Biso   1.000  C
  H136     1.0000 0.13790  0.33990  0.64080  Biso   1.000  H
  C182     1.0000 0.20680  0.28880  0.67780  Biso   1.000  C
  H137     1.0000 0.21990  0.29100  0.62930  Biso   1.000  H
  C183     1.0000 0.42670  0.04700  0.76510  Biso   1.000  C
  C184     1.0000 0.34150  0.10480  0.70350  Biso   1.000  C
  H138     1.0000 0.34670  0.06770  0.65970  Biso   1.000  H
  C185     1.0000 0.37940  0.11000  0.76530  Biso   1.000  C
  C186     1.0000 0.36760  0.16420  0.83270  Biso   1.000  C
  H139     1.0000 0.39110  0.16560  0.87910  Biso   1.000  H
  C187     1.0000 0.32320  0.21310  0.83030  Biso   1.000  C
  H140     1.0000 0.31680  0.25200  0.87250  Biso   1.000  H
  C188     1.0000 0.28700  0.20300  0.76200  Biso   1.000  C
  Eu9      1.0000 0.50000  0.11263  0.25000  Biso   1.000  Eu
  N37      1.0000 0.50000  0.28190  0.25000  Biso   1.000  N
  Eu10     1.0000 0.50000  0.88737  0.75000  Biso   1.000  Eu
  N38      1.0000 0.50000  0.71810  0.75000  Biso   1.000  N
  O57      1.0000 0.00000  0.49080  0.25000  Biso   1.000  O
  O58      1.0000 0.00000  0.50920  0.75000  Biso   1.000  O
