data_image0
_cell_length_a       10.2904
_cell_length_b       13.2061
_cell_length_c       24.8674
_cell_angle_alpha    90
_cell_angle_beta     90.922
_cell_angle_gamma    90

_symmetry_space_group_name_H-M    "P 1"
_symmetry_int_tables_number       1

loop_
  _symmetry_equiv_pos_as_xyz
  'x, y, z'

loop_
  _atom_site_label
  _atom_site_occupancy
  _atom_site_fract_x
  _atom_site_fract_y
  _atom_site_fract_z
  _atom_site_thermal_displace_type
  _atom_site_B_iso_or_equiv
  _atom_site_type_symbol
  Ag1      1.0000 0.18870  0.60735  0.05483  Biso   1.000  Ag
  S1       1.0000 0.41300  0.78970  0.07487  Biso   1.000  S
  O1       1.0000 0.40630  0.70240  0.04100  Biso   1.000  O
  O2       1.0000 0.32840  0.78870  0.11940  Biso   1.000  O
  O3       1.0000 0.53820  0.82630  0.08860  Biso   1.000  O
  C1       1.0000 0.34960  0.88680  0.03210  Biso   1.000  C
  F1       1.0000 0.22740  0.86560  0.01950  Biso   1.000  F
  F2       1.0000 0.41440  0.89490  0.98720  Biso   1.000  F
  F3       1.0000 0.35840  0.97730  0.05640  Biso   1.000  F
  Si1      1.0000 0.82576  0.17276  0.21279  Biso   1.000  Si
  N1       1.0000 0.03420  0.70380  0.08991  Biso   1.000  N
  N2       1.0000 0.32760  0.49370  0.09472  Biso   1.000  N
  N3       1.0000 0.67060  0.96760  0.47301  Biso   1.000  N
  C2       1.0000 0.87110  0.05420  0.17548  Biso   1.000  C
  C3       1.0000 0.00120  0.02550  0.17442  Biso   1.000  C
  H1       1.0000 0.06530  0.06940  0.18950  Biso   1.000  H
  C4       1.0000 0.03960  0.93480  0.15198  Biso   1.000  C
  H2       1.0000 0.12890  0.91650  0.15190  Biso   1.000  H
  C5       1.0000 0.94730  0.87070  0.12963  Biso   1.000  C
  C6       1.0000 0.81650  0.89690  0.12950  Biso   1.000  C
  H3       1.0000 0.75320  0.85270  0.11410  Biso   1.000  H
  C7       1.0000 0.77950  0.98800  0.15213  Biso   1.000  C
  H4       1.0000 0.69020  0.00620  0.15180  Biso   1.000  H
  C8       1.0000 0.99190  0.77690  0.10646  Biso   1.000  C
  C9       1.0000 0.68960  0.24620  0.18000  Biso   1.000  C
  C10      1.0000 0.65590  0.23960  0.12569  Biso   1.000  C
  H5       1.0000 0.69720  0.19030  0.10400  Biso   1.000  H
  C11      1.0000 0.56360  0.30310  0.10246  Biso   1.000  C
  H6       1.0000 0.54180  0.29770  0.06530  Biso   1.000  H
  C12      1.0000 0.50350  0.37480  0.13446  Biso   1.000  C
  C13      1.0000 0.53450  0.38350  0.18903  Biso   1.000  C
  H7       1.0000 0.49280  0.43250  0.21080  Biso   1.000  H
  C14      1.0000 0.62710  0.31940  0.21074  Biso   1.000  C
  H8       1.0000 0.64910  0.32520  0.24790  Biso   1.000  H
  C15      1.0000 0.40670  0.44130  0.11152  Biso   1.000  C
  C16      1.0000 0.77530  0.12990  0.28127  Biso   1.000  C
  C17      1.0000 0.66440  0.07020  0.28812  Biso   1.000  C
  H9       1.0000 0.60810  0.05790  0.25820  Biso   1.000  H
  C18      1.0000 0.63510  0.02890  0.33712  Biso   1.000  C
  H10      1.0000 0.55980  0.98800  0.34090  Biso   1.000  H
  C19      1.0000 0.71580  0.04730  0.38087  Biso   1.000  C
  C20      1.0000 0.82450  0.10820  0.37629  Biso   1.000  C
  H11      1.0000 0.87880  0.12190  0.40670  Biso   1.000  H
  C21      1.0000 0.85250  0.14860  0.32646  Biso   1.000  C
  H12      1.0000 0.92690  0.19060  0.32310  Biso   1.000  H
  C22      1.0000 0.68870  0.00340  0.43221  Biso   1.000  C
  C23      1.0000 0.96720  0.25940  0.21878  Biso   1.000  C
  H13      1.0000 0.99940  0.27500  0.18280  Biso   1.000  H
  H14      1.0000 0.03620  0.22670  0.24010  Biso   1.000  H
  H15      1.0000 0.94060  0.32210  0.23650  Biso   1.000  H
  Ag2      1.0000 0.16360  0.60580  0.05230  Biso   1.000  Ag
  S2       1.0000 0.40610  0.76990  0.05720  Biso   1.000  S
  O4       1.0000 0.30770  0.73260  0.02110  Biso   1.000  O
  O5       1.0000 0.38650  0.75750  0.11310  Biso   1.000  O
  O6       1.0000 0.53400  0.75120  0.03950  Biso   1.000  O
  C24      1.0000 0.39180  0.90330  0.04640  Biso   1.000  C
  F4       1.0000 0.27560  0.93110  0.06340  Biso   1.000  F
  F5       1.0000 0.39900  0.92760  0.99540  Biso   1.000  F
  F6       1.0000 0.49190  0.95010  0.07130  Biso   1.000  F
  Ag3      1.0000 0.68870  0.89265  0.55483  Biso   1.000  Ag
  S3       1.0000 0.91300  0.71030  0.57487  Biso   1.000  S
  O7       1.0000 0.90630  0.79760  0.54100  Biso   1.000  O
  O8       1.0000 0.82840  0.71130  0.61940  Biso   1.000  O
  O9       1.0000 0.03820  0.67370  0.58860  Biso   1.000  O
  C25      1.0000 0.84960  0.61320  0.53210  Biso   1.000  C
  F7       1.0000 0.72740  0.63440  0.51950  Biso   1.000  F
  F8       1.0000 0.91440  0.60510  0.48720  Biso   1.000  F
  F9       1.0000 0.85840  0.52270  0.55640  Biso   1.000  F
  Si2      1.0000 0.32576  0.32724  0.71279  Biso   1.000  Si
  N4       1.0000 0.53420  0.79620  0.58991  Biso   1.000  N
  N5       1.0000 0.82760  0.00630  0.59472  Biso   1.000  N
  N6       1.0000 0.17060  0.53240  0.97301  Biso   1.000  N
  C26      1.0000 0.37110  0.44580  0.67548  Biso   1.000  C
  C27      1.0000 0.50120  0.47450  0.67442  Biso   1.000  C
  H16      1.0000 0.56530  0.43060  0.68950  Biso   1.000  H
  C28      1.0000 0.53960  0.56520  0.65198  Biso   1.000  C
  H17      1.0000 0.62890  0.58350  0.65190  Biso   1.000  H
  C29      1.0000 0.44730  0.62930  0.62963  Biso   1.000  C
  C30      1.0000 0.31650  0.60310  0.62950  Biso   1.000  C
  H18      1.0000 0.25320  0.64730  0.61410  Biso   1.000  H
  C31      1.0000 0.27950  0.51200  0.65213  Biso   1.000  C
  H19      1.0000 0.19020  0.49380  0.65180  Biso   1.000  H
  C32      1.0000 0.49190  0.72310  0.60646  Biso   1.000  C
  C33      1.0000 0.18960  0.25380  0.68000  Biso   1.000  C
  C34      1.0000 0.15590  0.26040  0.62569  Biso   1.000  C
  H20      1.0000 0.19720  0.30970  0.60400  Biso   1.000  H
  C35      1.0000 0.06360  0.19690  0.60246  Biso   1.000  C
  H21      1.0000 0.04180  0.20230  0.56530  Biso   1.000  H
  C36      1.0000 0.00350  0.12520  0.63446  Biso   1.000  C
  C37      1.0000 0.03450  0.11650  0.68903  Biso   1.000  C
  H22      1.0000 0.99280  0.06750  0.71080  Biso   1.000  H
  C38      1.0000 0.12710  0.18060  0.71074  Biso   1.000  C
  H23      1.0000 0.14910  0.17480  0.74790  Biso   1.000  H
  C39      1.0000 0.90670  0.05870  0.61152  Biso   1.000  C
  C40      1.0000 0.27530  0.37010  0.78127  Biso   1.000  C
  C41      1.0000 0.16440  0.42980  0.78812  Biso   1.000  C
  H24      1.0000 0.10810  0.44210  0.75820  Biso   1.000  H
  C42      1.0000 0.13510  0.47110  0.83712  Biso   1.000  C
  H25      1.0000 0.05980  0.51200  0.84090  Biso   1.000  H
  C43      1.0000 0.21580  0.45270  0.88087  Biso   1.000  C
  C44      1.0000 0.32450  0.39180  0.87629  Biso   1.000  C
  H26      1.0000 0.37880  0.37810  0.90670  Biso   1.000  H
  C45      1.0000 0.35250  0.35140  0.82646  Biso   1.000  C
  H27      1.0000 0.42690  0.30940  0.82310  Biso   1.000  H
  C46      1.0000 0.18870  0.49660  0.93221  Biso   1.000  C
  C47      1.0000 0.46720  0.24060  0.71878  Biso   1.000  C
  H28      1.0000 0.49940  0.22500  0.68280  Biso   1.000  H
  H29      1.0000 0.53620  0.27330  0.74010  Biso   1.000  H
  H30      1.0000 0.44060  0.17790  0.73650  Biso   1.000  H
  Ag4      1.0000 0.66360  0.89420  0.55230  Biso   1.000  Ag
  S4       1.0000 0.90610  0.73010  0.55720  Biso   1.000  S
  O10      1.0000 0.80770  0.76740  0.52110  Biso   1.000  O
  O11      1.0000 0.88650  0.74250  0.61310  Biso   1.000  O
  O12      1.0000 0.03400  0.74880  0.53950  Biso   1.000  O
  C48      1.0000 0.89180  0.59670  0.54640  Biso   1.000  C
  F10      1.0000 0.77560  0.56890  0.56340  Biso   1.000  F
  F11      1.0000 0.89900  0.57240  0.49540  Biso   1.000  F
  F12      1.0000 0.99190  0.54990  0.57130  Biso   1.000  F
  Ag5      1.0000 0.31130  0.10735  0.44517  Biso   1.000  Ag
  S5       1.0000 0.08700  0.28970  0.42513  Biso   1.000  S
  O13      1.0000 0.09370  0.20240  0.45900  Biso   1.000  O
  O14      1.0000 0.17160  0.28870  0.38060  Biso   1.000  O
  O15      1.0000 0.96180  0.32630  0.41140  Biso   1.000  O
  C49      1.0000 0.15040  0.38680  0.46790  Biso   1.000  C
  F13      1.0000 0.27260  0.36560  0.48050  Biso   1.000  F
  F14      1.0000 0.08560  0.39490  0.51280  Biso   1.000  F
  F15      1.0000 0.14160  0.47730  0.44360  Biso   1.000  F
  Si3      1.0000 0.67424  0.67276  0.28721  Biso   1.000  Si
  N7       1.0000 0.46580  0.20380  0.41009  Biso   1.000  N
  N8       1.0000 0.17240  0.99370  0.40528  Biso   1.000  N
  N9       1.0000 0.82940  0.46760  0.02699  Biso   1.000  N
  C50      1.0000 0.62890  0.55420  0.32452  Biso   1.000  C
  C51      1.0000 0.49880  0.52550  0.32558  Biso   1.000  C
  H31      1.0000 0.43470  0.56940  0.31050  Biso   1.000  H
  C52      1.0000 0.46040  0.43480  0.34802  Biso   1.000  C
  H32      1.0000 0.37110  0.41650  0.34810  Biso   1.000  H
  C53      1.0000 0.55270  0.37070  0.37037  Biso   1.000  C
  C54      1.0000 0.68350  0.39690  0.37050  Biso   1.000  C
  H33      1.0000 0.74680  0.35270  0.38590  Biso   1.000  H
  C55      1.0000 0.72050  0.48800  0.34787  Biso   1.000  C
  H34      1.0000 0.80980  0.50620  0.34820  Biso   1.000  H
  C56      1.0000 0.50810  0.27690  0.39354  Biso   1.000  C
  C57      1.0000 0.81040  0.74620  0.32000  Biso   1.000  C
  C58      1.0000 0.84410  0.73960  0.37431  Biso   1.000  C
  H35      1.0000 0.80280  0.69030  0.39600  Biso   1.000  H
  C59      1.0000 0.93640  0.80310  0.39754  Biso   1.000  C
  H36      1.0000 0.95820  0.79770  0.43470  Biso   1.000  H
  C60      1.0000 0.99650  0.87480  0.36554  Biso   1.000  C
  C61      1.0000 0.96550  0.88350  0.31097  Biso   1.000  C
  H37      1.0000 0.00720  0.93250  0.28920  Biso   1.000  H
  C62      1.0000 0.87290  0.81940  0.28926  Biso   1.000  C
  H38      1.0000 0.85090  0.82520  0.25210  Biso   1.000  H
  C63      1.0000 0.09330  0.94130  0.38848  Biso   1.000  C
  C64      1.0000 0.72470  0.62990  0.21873  Biso   1.000  C
  C65      1.0000 0.83560  0.57020  0.21188  Biso   1.000  C
  H39      1.0000 0.89190  0.55790  0.24180  Biso   1.000  H
  C66      1.0000 0.86490  0.52890  0.16288  Biso   1.000  C
  H40      1.0000 0.94020  0.48800  0.15910  Biso   1.000  H
  C67      1.0000 0.78420  0.54730  0.11913  Biso   1.000  C
  C68      1.0000 0.67550  0.60820  0.12371  Biso   1.000  C
  H41      1.0000 0.62120  0.62190  0.09330  Biso   1.000  H
  C69      1.0000 0.64750  0.64860  0.17354  Biso   1.000  C
  H42      1.0000 0.57310  0.69060  0.17690  Biso   1.000  H
  C70      1.0000 0.81130  0.50340  0.06779  Biso   1.000  C
  C71      1.0000 0.53280  0.75940  0.28122  Biso   1.000  C
  H43      1.0000 0.50060  0.77500  0.31720  Biso   1.000  H
  H44      1.0000 0.46380  0.72670  0.25990  Biso   1.000  H
  H45      1.0000 0.55940  0.82210  0.26350  Biso   1.000  H
  Ag6      1.0000 0.33640  0.10580  0.44770  Biso   1.000  Ag
  S6       1.0000 0.09390  0.26990  0.44280  Biso   1.000  S
  O16      1.0000 0.19230  0.23260  0.47890  Biso   1.000  O
  O17      1.0000 0.11350  0.25750  0.38690  Biso   1.000  O
  O18      1.0000 0.96600  0.25120  0.46050  Biso   1.000  O
  C72      1.0000 0.10820  0.40330  0.45360  Biso   1.000  C
  F16      1.0000 0.22440  0.43110  0.43660  Biso   1.000  F
  F17      1.0000 0.10100  0.42760  0.50460  Biso   1.000  F
  F18      1.0000 0.00810  0.45010  0.42870  Biso   1.000  F
  Ag7      1.0000 0.81130  0.39265  0.94517  Biso   1.000  Ag
  S7       1.0000 0.58700  0.21030  0.92513  Biso   1.000  S
  O19      1.0000 0.59370  0.29760  0.95900  Biso   1.000  O
  O20      1.0000 0.67160  0.21130  0.88060  Biso   1.000  O
  O21      1.0000 0.46180  0.17370  0.91140  Biso   1.000  O
  C73      1.0000 0.65040  0.11320  0.96790  Biso   1.000  C
  F19      1.0000 0.77260  0.13440  0.98050  Biso   1.000  F
  F20      1.0000 0.58560  0.10510  0.01280  Biso   1.000  F
  F21      1.0000 0.64160  0.02270  0.94360  Biso   1.000  F
  Si4      1.0000 0.17424  0.82724  0.78721  Biso   1.000  Si
  N10      1.0000 0.96580  0.29620  0.91009  Biso   1.000  N
  N11      1.0000 0.67240  0.50630  0.90528  Biso   1.000  N
  N12      1.0000 0.32940  0.03240  0.52699  Biso   1.000  N
  C74      1.0000 0.12890  0.94580  0.82452  Biso   1.000  C
  C75      1.0000 0.99880  0.97450  0.82558  Biso   1.000  C
  H46      1.0000 0.93470  0.93060  0.81050  Biso   1.000  H
  C76      1.0000 0.96040  0.06520  0.84802  Biso   1.000  C
  H47      1.0000 0.87110  0.08350  0.84810  Biso   1.000  H
  C77      1.0000 0.05270  0.12930  0.87037  Biso   1.000  C
  C78      1.0000 0.18350  0.10310  0.87050  Biso   1.000  C
  H48      1.0000 0.24680  0.14730  0.88590  Biso   1.000  H
  C79      1.0000 0.22050  0.01200  0.84787  Biso   1.000  C
  H49      1.0000 0.30980  0.99380  0.84820  Biso   1.000  H
  C80      1.0000 0.00810  0.22310  0.89354  Biso   1.000  C
  C81      1.0000 0.31040  0.75380  0.82000  Biso   1.000  C
  C82      1.0000 0.34410  0.76040  0.87431  Biso   1.000  C
  H50      1.0000 0.30280  0.80970  0.89600  Biso   1.000  H
  C83      1.0000 0.43640  0.69690  0.89754  Biso   1.000  C
  H51      1.0000 0.45820  0.70230  0.93470  Biso   1.000  H
  C84      1.0000 0.49650  0.62520  0.86554  Biso   1.000  C
  C85      1.0000 0.46550  0.61650  0.81097  Biso   1.000  C
  H52      1.0000 0.50720  0.56750  0.78920  Biso   1.000  H
  C86      1.0000 0.37290  0.68060  0.78926  Biso   1.000  C
  H53      1.0000 0.35090  0.67480  0.75210  Biso   1.000  H
  C87      1.0000 0.59330  0.55870  0.88848  Biso   1.000  C
  C88      1.0000 0.22470  0.87010  0.71873  Biso   1.000  C
  C89      1.0000 0.33560  0.92980  0.71188  Biso   1.000  C
  H54      1.0000 0.39190  0.94210  0.74180  Biso   1.000  H
  C90      1.0000 0.36490  0.97110  0.66288  Biso   1.000  C
  H55      1.0000 0.44020  0.01200  0.65910  Biso   1.000  H
  C91      1.0000 0.28420  0.95270  0.61913  Biso   1.000  C
  C92      1.0000 0.17550  0.89180  0.62371  Biso   1.000  C
  H56      1.0000 0.12120  0.87810  0.59330  Biso   1.000  H
  C93      1.0000 0.14750  0.85140  0.67354  Biso   1.000  C
  H57      1.0000 0.07310  0.80940  0.67690  Biso   1.000  H
  C94      1.0000 0.31130  0.99660  0.56779  Biso   1.000  C
  C95      1.0000 0.03280  0.74060  0.78122  Biso   1.000  C
  H58      1.0000 0.00060  0.72500  0.81720  Biso   1.000  H
  H59      1.0000 0.96380  0.77330  0.75990  Biso   1.000  H
  H60      1.0000 0.05940  0.67790  0.76350  Biso   1.000  H
  Ag8      1.0000 0.83640  0.39420  0.94770  Biso   1.000  Ag
  S8       1.0000 0.59390  0.23010  0.94280  Biso   1.000  S
  O22      1.0000 0.69230  0.26740  0.97890  Biso   1.000  O
  O23      1.0000 0.61350  0.24250  0.88690  Biso   1.000  O
  O24      1.0000 0.46600  0.24880  0.96050  Biso   1.000  O
  C96      1.0000 0.60820  0.09670  0.95360  Biso   1.000  C
  F22      1.0000 0.72440  0.06890  0.93660  Biso   1.000  F
  F23      1.0000 0.60100  0.07240  0.00460  Biso   1.000  F
  F24      1.0000 0.50810  0.04990  0.92870  Biso   1.000  F
