data_image0
_cell_length_a       19.2151
_cell_length_b       30.1389
_cell_length_c       13.8688
_cell_angle_alpha    90
_cell_angle_beta     128.771
_cell_angle_gamma    90

_symmetry_space_group_name_H-M    "P 1"
_symmetry_int_tables_number       1

loop_
  _symmetry_equiv_pos_as_xyz
  'x, y, z'

loop_
  _atom_site_label
  _atom_site_occupancy
  _atom_site_fract_x
  _atom_site_fract_y
  _atom_site_fract_z
  _atom_site_thermal_displace_type
  _atom_site_B_iso_or_equiv
  _atom_site_type_symbol
  Ag1      1.0000 0.19928  0.22289  0.38637  Biso   1.000  Ag
  O1       1.0000 0.07520  0.12273  0.24080  Biso   1.000  O
  O2       1.0000 0.16120  0.16964  0.23230  Biso   1.000  O
  O3       1.0000 0.28300  0.17243  0.53250  Biso   1.000  O
  O4       1.0000 0.33390  0.21129  0.70230  Biso   1.000  O
  F1       1.0000 0.20130  0.10218  0.14860  Biso   1.000  F
  F2       1.0000 0.25710  0.08571  0.32940  Biso   1.000  F
  F3       1.0000 0.13280  0.05710  0.17850  Biso   1.000  F
  C1       1.0000 0.37700  0.14110  0.73600  Biso   1.000  C
  F4       1.0000 0.37550  0.13530  0.82000  Biso   1.000  F
  F5       1.0000 0.35600  0.10200  0.66900  Biso   1.000  F
  F6       1.0000 0.46510  0.14410  0.78400  Biso   1.000  F
  N1       1.0000 0.11360  0.01748  0.38250  Biso   1.000  N
  N2       1.0000 0.43030  0.73007  0.09540  Biso   1.000  N
  C2       1.0000 0.48430  0.83878  0.84390  Biso   1.000  C
  C3       1.0000 0.41710  0.84787  0.85300  Biso   1.000  C
  H1       1.0000 0.37980  0.87310  0.81240  Biso   1.000  H
  C4       1.0000 0.40480  0.82029  0.92070  Biso   1.000  C
  H2       1.0000 0.35930  0.82660  0.92710  Biso   1.000  H
  C5       1.0000 0.45800  0.78403  0.97830  Biso   1.000  C
  C6       1.0000 0.52540  0.77435  0.97210  Biso   1.000  C
  H3       1.0000 0.56210  0.74900  0.01310  Biso   1.000  H
  C7       1.0000 0.53860  0.80180  0.90600  Biso   1.000  C
  H4       1.0000 0.58540  0.79550  0.90240  Biso   1.000  H
  C8       1.0000 0.44320  0.75453  0.04510  Biso   1.000  C
  C9       1.0000 0.39930  0.91190  0.64940  Biso   1.000  C
  C10      1.0000 0.39360  0.95113  0.69860  Biso   1.000  C
  H5       1.0000 0.44180  0.95930  0.78130  Biso   1.000  H
  C11      1.0000 0.31950  0.97793  0.62950  Biso   1.000  C
  H6       1.0000 0.31610  0.00420  0.66410  Biso   1.000  H
  C12      1.0000 0.24960  0.96602  0.50800  Biso   1.000  C
  C13      1.0000 0.25330  0.92755  0.45800  Biso   1.000  C
  H7       1.0000 0.20460  0.91940  0.37560  Biso   1.000  H
  C14      1.0000 0.32840  0.90066  0.52820  Biso   1.000  C
  H8       1.0000 0.33130  0.87440  0.49310  Biso   1.000  H
  C15      1.0000 0.17280  0.99468  0.43620  Biso   1.000  C
  C16      1.0000 0.13380  0.13286  0.23120  Biso   1.000  C
  C17      1.0000 0.18130  0.09390  0.22110  Biso   1.000  C
  C18      1.0000 0.32230  0.17814  0.64330  Biso   1.000  C
  C19      1.0000 0.35200  0.13430  0.71400  Biso   1.000  C
  F7       1.0000 0.33700  0.09900  0.66200  Biso   1.000  F
  F8       1.0000 0.44340  0.13780  0.81200  Biso   1.000  F
  F9       1.0000 0.32520  0.13080  0.78600  Biso   1.000  F
  Ag2      1.0000 0.69928  0.72289  0.38637  Biso   1.000  Ag
  O5       1.0000 0.57520  0.62273  0.24080  Biso   1.000  O
  O6       1.0000 0.66120  0.66964  0.23230  Biso   1.000  O
  O7       1.0000 0.78300  0.67243  0.53250  Biso   1.000  O
  O8       1.0000 0.83390  0.71129  0.70230  Biso   1.000  O
  F10      1.0000 0.70130  0.60218  0.14860  Biso   1.000  F
  F11      1.0000 0.75710  0.58571  0.32940  Biso   1.000  F
  F12      1.0000 0.63280  0.55710  0.17850  Biso   1.000  F
  C20      1.0000 0.87700  0.64110  0.73600  Biso   1.000  C
  F13      1.0000 0.87550  0.63530  0.82000  Biso   1.000  F
  F14      1.0000 0.85600  0.60200  0.66900  Biso   1.000  F
  F15      1.0000 0.96510  0.64410  0.78400  Biso   1.000  F
  N3       1.0000 0.61360  0.51748  0.38250  Biso   1.000  N
  N4       1.0000 0.93030  0.23007  0.09540  Biso   1.000  N
  C21      1.0000 0.98430  0.33878  0.84390  Biso   1.000  C
  C22      1.0000 0.91710  0.34787  0.85300  Biso   1.000  C
  H9       1.0000 0.87980  0.37310  0.81240  Biso   1.000  H
  C23      1.0000 0.90480  0.32029  0.92070  Biso   1.000  C
  H10      1.0000 0.85930  0.32660  0.92710  Biso   1.000  H
  C24      1.0000 0.95800  0.28403  0.97830  Biso   1.000  C
  C25      1.0000 0.02540  0.27435  0.97210  Biso   1.000  C
  H11      1.0000 0.06210  0.24900  0.01310  Biso   1.000  H
  C26      1.0000 0.03860  0.30180  0.90600  Biso   1.000  C
  H12      1.0000 0.08540  0.29550  0.90240  Biso   1.000  H
  C27      1.0000 0.94320  0.25453  0.04510  Biso   1.000  C
  C28      1.0000 0.89930  0.41190  0.64940  Biso   1.000  C
  C29      1.0000 0.89360  0.45113  0.69860  Biso   1.000  C
  H13      1.0000 0.94180  0.45930  0.78130  Biso   1.000  H
  C30      1.0000 0.81950  0.47793  0.62950  Biso   1.000  C
  H14      1.0000 0.81610  0.50420  0.66410  Biso   1.000  H
  C31      1.0000 0.74960  0.46602  0.50800  Biso   1.000  C
  C32      1.0000 0.75330  0.42755  0.45800  Biso   1.000  C
  H15      1.0000 0.70460  0.41940  0.37560  Biso   1.000  H
  C33      1.0000 0.82840  0.40066  0.52820  Biso   1.000  C
  H16      1.0000 0.83130  0.37440  0.49310  Biso   1.000  H
  C34      1.0000 0.67280  0.49468  0.43620  Biso   1.000  C
  C35      1.0000 0.63380  0.63286  0.23120  Biso   1.000  C
  C36      1.0000 0.68130  0.59390  0.22110  Biso   1.000  C
  C37      1.0000 0.82230  0.67814  0.64330  Biso   1.000  C
  C38      1.0000 0.85200  0.63430  0.71400  Biso   1.000  C
  F16      1.0000 0.83700  0.59900  0.66200  Biso   1.000  F
  F17      1.0000 0.94340  0.63780  0.81200  Biso   1.000  F
  F18      1.0000 0.82520  0.63080  0.78600  Biso   1.000  F
  Ag3      1.0000 0.80072  0.22289  0.11363  Biso   1.000  Ag
  O9       1.0000 0.92480  0.12273  0.25920  Biso   1.000  O
  O10      1.0000 0.83880  0.16964  0.26770  Biso   1.000  O
  O11      1.0000 0.71700  0.17243  0.96750  Biso   1.000  O
  O12      1.0000 0.66610  0.21129  0.79770  Biso   1.000  O
  F19      1.0000 0.79870  0.10218  0.35140  Biso   1.000  F
  F20      1.0000 0.74290  0.08571  0.17060  Biso   1.000  F
  F21      1.0000 0.86720  0.05710  0.32150  Biso   1.000  F
  C39      1.0000 0.62300  0.14110  0.76400  Biso   1.000  C
  F22      1.0000 0.62450  0.13530  0.68000  Biso   1.000  F
  F23      1.0000 0.64400  0.10200  0.83100  Biso   1.000  F
  F24      1.0000 0.53490  0.14410  0.71600  Biso   1.000  F
  N5       1.0000 0.88640  0.01748  0.11750  Biso   1.000  N
  N6       1.0000 0.56970  0.73007  0.40460  Biso   1.000  N
  C40      1.0000 0.51570  0.83878  0.65610  Biso   1.000  C
  C41      1.0000 0.58290  0.84787  0.64700  Biso   1.000  C
  H17      1.0000 0.62020  0.87310  0.68760  Biso   1.000  H
  C42      1.0000 0.59520  0.82029  0.57930  Biso   1.000  C
  H18      1.0000 0.64070  0.82660  0.57290  Biso   1.000  H
  C43      1.0000 0.54200  0.78403  0.52170  Biso   1.000  C
  C44      1.0000 0.47460  0.77435  0.52790  Biso   1.000  C
  H19      1.0000 0.43790  0.74900  0.48690  Biso   1.000  H
  C45      1.0000 0.46140  0.80180  0.59400  Biso   1.000  C
  H20      1.0000 0.41460  0.79550  0.59760  Biso   1.000  H
  C46      1.0000 0.55680  0.75453  0.45490  Biso   1.000  C
  C47      1.0000 0.60070  0.91190  0.85060  Biso   1.000  C
  C48      1.0000 0.60640  0.95113  0.80140  Biso   1.000  C
  H21      1.0000 0.55820  0.95930  0.71870  Biso   1.000  H
  C49      1.0000 0.68050  0.97793  0.87050  Biso   1.000  C
  H22      1.0000 0.68390  0.00420  0.83590  Biso   1.000  H
  C50      1.0000 0.75040  0.96602  0.99200  Biso   1.000  C
  C51      1.0000 0.74670  0.92755  0.04200  Biso   1.000  C
  H23      1.0000 0.79540  0.91940  0.12440  Biso   1.000  H
  C52      1.0000 0.67160  0.90066  0.97180  Biso   1.000  C
  H24      1.0000 0.66870  0.87440  0.00690  Biso   1.000  H
  C53      1.0000 0.82720  0.99468  0.06380  Biso   1.000  C
  C54      1.0000 0.86620  0.13286  0.26880  Biso   1.000  C
  C55      1.0000 0.81870  0.09390  0.27890  Biso   1.000  C
  C56      1.0000 0.67770  0.17814  0.85670  Biso   1.000  C
  C57      1.0000 0.64800  0.13430  0.78600  Biso   1.000  C
  F25      1.0000 0.66300  0.09900  0.83800  Biso   1.000  F
  F26      1.0000 0.55660  0.13780  0.68800  Biso   1.000  F
  F27      1.0000 0.67480  0.13080  0.71400  Biso   1.000  F
  Ag4      1.0000 0.30072  0.72289  0.11363  Biso   1.000  Ag
  O13      1.0000 0.42480  0.62273  0.25920  Biso   1.000  O
  O14      1.0000 0.33880  0.66964  0.26770  Biso   1.000  O
  O15      1.0000 0.21700  0.67243  0.96750  Biso   1.000  O
  O16      1.0000 0.16610  0.71129  0.79770  Biso   1.000  O
  F28      1.0000 0.29870  0.60218  0.35140  Biso   1.000  F
  F29      1.0000 0.24290  0.58571  0.17060  Biso   1.000  F
  F30      1.0000 0.36720  0.55710  0.32150  Biso   1.000  F
  C58      1.0000 0.12300  0.64110  0.76400  Biso   1.000  C
  F31      1.0000 0.12450  0.63530  0.68000  Biso   1.000  F
  F32      1.0000 0.14400  0.60200  0.83100  Biso   1.000  F
  F33      1.0000 0.03490  0.64410  0.71600  Biso   1.000  F
  N7       1.0000 0.38640  0.51748  0.11750  Biso   1.000  N
  N8       1.0000 0.06970  0.23007  0.40460  Biso   1.000  N
  C59      1.0000 0.01570  0.33878  0.65610  Biso   1.000  C
  C60      1.0000 0.08290  0.34787  0.64700  Biso   1.000  C
  H25      1.0000 0.12020  0.37310  0.68760  Biso   1.000  H
  C61      1.0000 0.09520  0.32029  0.57930  Biso   1.000  C
  H26      1.0000 0.14070  0.32660  0.57290  Biso   1.000  H
  C62      1.0000 0.04200  0.28403  0.52170  Biso   1.000  C
  C63      1.0000 0.97460  0.27435  0.52790  Biso   1.000  C
  H27      1.0000 0.93790  0.24900  0.48690  Biso   1.000  H
  C64      1.0000 0.96140  0.30180  0.59400  Biso   1.000  C
  H28      1.0000 0.91460  0.29550  0.59760  Biso   1.000  H
  C65      1.0000 0.05680  0.25453  0.45490  Biso   1.000  C
  C66      1.0000 0.10070  0.41190  0.85060  Biso   1.000  C
  C67      1.0000 0.10640  0.45113  0.80140  Biso   1.000  C
  H29      1.0000 0.05820  0.45930  0.71870  Biso   1.000  H
  C68      1.0000 0.18050  0.47793  0.87050  Biso   1.000  C
  H30      1.0000 0.18390  0.50420  0.83590  Biso   1.000  H
  C69      1.0000 0.25040  0.46602  0.99200  Biso   1.000  C
  C70      1.0000 0.24670  0.42755  0.04200  Biso   1.000  C
  H31      1.0000 0.29540  0.41940  0.12440  Biso   1.000  H
  C71      1.0000 0.17160  0.40066  0.97180  Biso   1.000  C
  H32      1.0000 0.16870  0.37440  0.00690  Biso   1.000  H
  C72      1.0000 0.32720  0.49468  0.06380  Biso   1.000  C
  C73      1.0000 0.36620  0.63286  0.26880  Biso   1.000  C
  C74      1.0000 0.31870  0.59390  0.27890  Biso   1.000  C
  C75      1.0000 0.17770  0.67814  0.85670  Biso   1.000  C
  C76      1.0000 0.14800  0.63430  0.78600  Biso   1.000  C
  F34      1.0000 0.16300  0.59900  0.83800  Biso   1.000  F
  F35      1.0000 0.05660  0.63780  0.68800  Biso   1.000  F
  F36      1.0000 0.17480  0.63080  0.71400  Biso   1.000  F
  Ag5      1.0000 0.80072  0.77711  0.61363  Biso   1.000  Ag
  O17      1.0000 0.92480  0.87727  0.75920  Biso   1.000  O
  O18      1.0000 0.83880  0.83036  0.76770  Biso   1.000  O
  O19      1.0000 0.71700  0.82757  0.46750  Biso   1.000  O
  O20      1.0000 0.66610  0.78871  0.29770  Biso   1.000  O
  F37      1.0000 0.79870  0.89782  0.85140  Biso   1.000  F
  F38      1.0000 0.74290  0.91429  0.67060  Biso   1.000  F
  F39      1.0000 0.86720  0.94290  0.82150  Biso   1.000  F
  C77      1.0000 0.62300  0.85890  0.26400  Biso   1.000  C
  F40      1.0000 0.62450  0.86470  0.18000  Biso   1.000  F
  F41      1.0000 0.64400  0.89800  0.33100  Biso   1.000  F
  F42      1.0000 0.53490  0.85590  0.21600  Biso   1.000  F
  N9       1.0000 0.88640  0.98252  0.61750  Biso   1.000  N
  N10      1.0000 0.56970  0.26993  0.90460  Biso   1.000  N
  C78      1.0000 0.51570  0.16122  0.15610  Biso   1.000  C
  C79      1.0000 0.58290  0.15213  0.14700  Biso   1.000  C
  H33      1.0000 0.62020  0.12690  0.18760  Biso   1.000  H
  C80      1.0000 0.59520  0.17971  0.07930  Biso   1.000  C
  H34      1.0000 0.64070  0.17340  0.07290  Biso   1.000  H
  C81      1.0000 0.54200  0.21597  0.02170  Biso   1.000  C
  C82      1.0000 0.47460  0.22565  0.02790  Biso   1.000  C
  H35      1.0000 0.43790  0.25100  0.98690  Biso   1.000  H
  C83      1.0000 0.46140  0.19820  0.09400  Biso   1.000  C
  H36      1.0000 0.41460  0.20450  0.09760  Biso   1.000  H
  C84      1.0000 0.55680  0.24547  0.95490  Biso   1.000  C
  C85      1.0000 0.60070  0.08810  0.35060  Biso   1.000  C
  C86      1.0000 0.60640  0.04887  0.30140  Biso   1.000  C
  H37      1.0000 0.55820  0.04070  0.21870  Biso   1.000  H
  C87      1.0000 0.68050  0.02207  0.37050  Biso   1.000  C
  H38      1.0000 0.68390  0.99580  0.33590  Biso   1.000  H
  C88      1.0000 0.75040  0.03398  0.49200  Biso   1.000  C
  C89      1.0000 0.74670  0.07245  0.54200  Biso   1.000  C
  H39      1.0000 0.79540  0.08060  0.62440  Biso   1.000  H
  C90      1.0000 0.67160  0.09934  0.47180  Biso   1.000  C
  H40      1.0000 0.66870  0.12560  0.50690  Biso   1.000  H
  C91      1.0000 0.82720  0.00532  0.56380  Biso   1.000  C
  C92      1.0000 0.86620  0.86714  0.76880  Biso   1.000  C
  C93      1.0000 0.81870  0.90610  0.77890  Biso   1.000  C
  C94      1.0000 0.67770  0.82186  0.35670  Biso   1.000  C
  C95      1.0000 0.64800  0.86570  0.28600  Biso   1.000  C
  F43      1.0000 0.66300  0.90100  0.33800  Biso   1.000  F
  F44      1.0000 0.55660  0.86220  0.18800  Biso   1.000  F
  F45      1.0000 0.67480  0.86920  0.21400  Biso   1.000  F
  Ag6      1.0000 0.30072  0.27711  0.61363  Biso   1.000  Ag
  O21      1.0000 0.42480  0.37727  0.75920  Biso   1.000  O
  O22      1.0000 0.33880  0.33036  0.76770  Biso   1.000  O
  O23      1.0000 0.21700  0.32757  0.46750  Biso   1.000  O
  O24      1.0000 0.16610  0.28871  0.29770  Biso   1.000  O
  F46      1.0000 0.29870  0.39782  0.85140  Biso   1.000  F
  F47      1.0000 0.24290  0.41429  0.67060  Biso   1.000  F
  F48      1.0000 0.36720  0.44290  0.82150  Biso   1.000  F
  C96      1.0000 0.12300  0.35890  0.26400  Biso   1.000  C
  F49      1.0000 0.12450  0.36470  0.18000  Biso   1.000  F
  F50      1.0000 0.14400  0.39800  0.33100  Biso   1.000  F
  F51      1.0000 0.03490  0.35590  0.21600  Biso   1.000  F
  N11      1.0000 0.38640  0.48252  0.61750  Biso   1.000  N
  N12      1.0000 0.06970  0.76993  0.90460  Biso   1.000  N
  C97      1.0000 0.01570  0.66122  0.15610  Biso   1.000  C
  C98      1.0000 0.08290  0.65213  0.14700  Biso   1.000  C
  H41      1.0000 0.12020  0.62690  0.18760  Biso   1.000  H
  C99      1.0000 0.09520  0.67971  0.07930  Biso   1.000  C
  H42      1.0000 0.14070  0.67340  0.07290  Biso   1.000  H
  C100     1.0000 0.04200  0.71597  0.02170  Biso   1.000  C
  C101     1.0000 0.97460  0.72565  0.02790  Biso   1.000  C
  H43      1.0000 0.93790  0.75100  0.98690  Biso   1.000  H
  C102     1.0000 0.96140  0.69820  0.09400  Biso   1.000  C
  H44      1.0000 0.91460  0.70450  0.09760  Biso   1.000  H
  C103     1.0000 0.05680  0.74547  0.95490  Biso   1.000  C
  C104     1.0000 0.10070  0.58810  0.35060  Biso   1.000  C
  C105     1.0000 0.10640  0.54887  0.30140  Biso   1.000  C
  H45      1.0000 0.05820  0.54070  0.21870  Biso   1.000  H
  C106     1.0000 0.18050  0.52207  0.37050  Biso   1.000  C
  H46      1.0000 0.18390  0.49580  0.33590  Biso   1.000  H
  C107     1.0000 0.25040  0.53398  0.49200  Biso   1.000  C
  C108     1.0000 0.24670  0.57245  0.54200  Biso   1.000  C
  H47      1.0000 0.29540  0.58060  0.62440  Biso   1.000  H
  C109     1.0000 0.17160  0.59934  0.47180  Biso   1.000  C
  H48      1.0000 0.16870  0.62560  0.50690  Biso   1.000  H
  C110     1.0000 0.32720  0.50532  0.56380  Biso   1.000  C
  C111     1.0000 0.36620  0.36714  0.76880  Biso   1.000  C
  C112     1.0000 0.31870  0.40610  0.77890  Biso   1.000  C
  C113     1.0000 0.17770  0.32186  0.35670  Biso   1.000  C
  C114     1.0000 0.14800  0.36570  0.28600  Biso   1.000  C
  F52      1.0000 0.16300  0.40100  0.33800  Biso   1.000  F
  F53      1.0000 0.05660  0.36220  0.18800  Biso   1.000  F
  F54      1.0000 0.17480  0.36920  0.21400  Biso   1.000  F
  Ag7      1.0000 0.19928  0.77711  0.88637  Biso   1.000  Ag
  O25      1.0000 0.07520  0.87727  0.74080  Biso   1.000  O
  O26      1.0000 0.16120  0.83036  0.73230  Biso   1.000  O
  O27      1.0000 0.28300  0.82757  0.03250  Biso   1.000  O
  O28      1.0000 0.33390  0.78871  0.20230  Biso   1.000  O
  F55      1.0000 0.20130  0.89782  0.64860  Biso   1.000  F
  F56      1.0000 0.25710  0.91429  0.82940  Biso   1.000  F
  F57      1.0000 0.13280  0.94290  0.67850  Biso   1.000  F
  C115     1.0000 0.37700  0.85890  0.23600  Biso   1.000  C
  F58      1.0000 0.37550  0.86470  0.32000  Biso   1.000  F
  F59      1.0000 0.35600  0.89800  0.16900  Biso   1.000  F
  F60      1.0000 0.46510  0.85590  0.28400  Biso   1.000  F
  N13      1.0000 0.11360  0.98252  0.88250  Biso   1.000  N
  N14      1.0000 0.43030  0.26993  0.59540  Biso   1.000  N
  C116     1.0000 0.48430  0.16122  0.34390  Biso   1.000  C
  C117     1.0000 0.41710  0.15213  0.35300  Biso   1.000  C
  H49      1.0000 0.37980  0.12690  0.31240  Biso   1.000  H
  C118     1.0000 0.40480  0.17971  0.42070  Biso   1.000  C
  H50      1.0000 0.35930  0.17340  0.42710  Biso   1.000  H
  C119     1.0000 0.45800  0.21597  0.47830  Biso   1.000  C
  C120     1.0000 0.52540  0.22565  0.47210  Biso   1.000  C
  H51      1.0000 0.56210  0.25100  0.51310  Biso   1.000  H
  C121     1.0000 0.53860  0.19820  0.40600  Biso   1.000  C
  H52      1.0000 0.58540  0.20450  0.40240  Biso   1.000  H
  C122     1.0000 0.44320  0.24547  0.54510  Biso   1.000  C
  C123     1.0000 0.39930  0.08810  0.14940  Biso   1.000  C
  C124     1.0000 0.39360  0.04887  0.19860  Biso   1.000  C
  H53      1.0000 0.44180  0.04070  0.28130  Biso   1.000  H
  C125     1.0000 0.31950  0.02207  0.12950  Biso   1.000  C
  H54      1.0000 0.31610  0.99580  0.16410  Biso   1.000  H
  C126     1.0000 0.24960  0.03398  0.00800  Biso   1.000  C
  C127     1.0000 0.25330  0.07245  0.95800  Biso   1.000  C
  H55      1.0000 0.20460  0.08060  0.87560  Biso   1.000  H
  C128     1.0000 0.32840  0.09934  0.02820  Biso   1.000  C
  H56      1.0000 0.33130  0.12560  0.99310  Biso   1.000  H
  C129     1.0000 0.17280  0.00532  0.93620  Biso   1.000  C
  C130     1.0000 0.13380  0.86714  0.73120  Biso   1.000  C
  C131     1.0000 0.18130  0.90610  0.72110  Biso   1.000  C
  C132     1.0000 0.32230  0.82186  0.14330  Biso   1.000  C
  C133     1.0000 0.35200  0.86570  0.21400  Biso   1.000  C
  F61      1.0000 0.33700  0.90100  0.16200  Biso   1.000  F
  F62      1.0000 0.44340  0.86220  0.31200  Biso   1.000  F
  F63      1.0000 0.32520  0.86920  0.28600  Biso   1.000  F
  Ag8      1.0000 0.69928  0.27711  0.88637  Biso   1.000  Ag
  O29      1.0000 0.57520  0.37727  0.74080  Biso   1.000  O
  O30      1.0000 0.66120  0.33036  0.73230  Biso   1.000  O
  O31      1.0000 0.78300  0.32757  0.03250  Biso   1.000  O
  O32      1.0000 0.83390  0.28871  0.20230  Biso   1.000  O
  F64      1.0000 0.70130  0.39782  0.64860  Biso   1.000  F
  F65      1.0000 0.75710  0.41429  0.82940  Biso   1.000  F
  F66      1.0000 0.63280  0.44290  0.67850  Biso   1.000  F
  C134     1.0000 0.87700  0.35890  0.23600  Biso   1.000  C
  F67      1.0000 0.87550  0.36470  0.32000  Biso   1.000  F
  F68      1.0000 0.85600  0.39800  0.16900  Biso   1.000  F
  F69      1.0000 0.96510  0.35590  0.28400  Biso   1.000  F
  N15      1.0000 0.61360  0.48252  0.88250  Biso   1.000  N
  N16      1.0000 0.93030  0.76993  0.59540  Biso   1.000  N
  C135     1.0000 0.98430  0.66122  0.34390  Biso   1.000  C
  C136     1.0000 0.91710  0.65213  0.35300  Biso   1.000  C
  H57      1.0000 0.87980  0.62690  0.31240  Biso   1.000  H
  C137     1.0000 0.90480  0.67971  0.42070  Biso   1.000  C
  H58      1.0000 0.85930  0.67340  0.42710  Biso   1.000  H
  C138     1.0000 0.95800  0.71597  0.47830  Biso   1.000  C
  C139     1.0000 0.02540  0.72565  0.47210  Biso   1.000  C
  H59      1.0000 0.06210  0.75100  0.51310  Biso   1.000  H
  C140     1.0000 0.03860  0.69820  0.40600  Biso   1.000  C
  H60      1.0000 0.08540  0.70450  0.40240  Biso   1.000  H
  C141     1.0000 0.94320  0.74547  0.54510  Biso   1.000  C
  C142     1.0000 0.89930  0.58810  0.14940  Biso   1.000  C
  C143     1.0000 0.89360  0.54887  0.19860  Biso   1.000  C
  H61      1.0000 0.94180  0.54070  0.28130  Biso   1.000  H
  C144     1.0000 0.81950  0.52207  0.12950  Biso   1.000  C
  H62      1.0000 0.81610  0.49580  0.16410  Biso   1.000  H
  C145     1.0000 0.74960  0.53398  0.00800  Biso   1.000  C
  C146     1.0000 0.75330  0.57245  0.95800  Biso   1.000  C
  H63      1.0000 0.70460  0.58060  0.87560  Biso   1.000  H
  C147     1.0000 0.82840  0.59934  0.02820  Biso   1.000  C
  H64      1.0000 0.83130  0.62560  0.99310  Biso   1.000  H
  C148     1.0000 0.67280  0.50532  0.93620  Biso   1.000  C
  C149     1.0000 0.63380  0.36714  0.73120  Biso   1.000  C
  C150     1.0000 0.68130  0.40610  0.72110  Biso   1.000  C
  C151     1.0000 0.82230  0.32186  0.14330  Biso   1.000  C
  C152     1.0000 0.85200  0.36570  0.21400  Biso   1.000  C
  F70      1.0000 0.83700  0.40100  0.16200  Biso   1.000  F
  F71      1.0000 0.94340  0.36220  0.31200  Biso   1.000  F
  F72      1.0000 0.82520  0.36920  0.28600  Biso   1.000  F
  Ag9      1.0000 0.00000  0.17904  0.25000  Biso   1.000  Ag
  Ag10     1.0000 0.00000  0.06283  0.25000  Biso   1.000  Ag
  Ag11     1.0000 0.50000  0.67904  0.25000  Biso   1.000  Ag
  Ag12     1.0000 0.50000  0.56284  0.25000  Biso   1.000  Ag
  Ag13     1.0000 0.00000  0.82096  0.75000  Biso   1.000  Ag
  Ag14     1.0000 0.00000  0.93717  0.75000  Biso   1.000  Ag
  Ag15     1.0000 0.50000  0.32096  0.75000  Biso   1.000  Ag
  Ag16     1.0000 0.50000  0.43717  0.75000  Biso   1.000  Ag
  Si1      1.0000 0.50000  0.87547  0.75000  Biso   1.000  Si
  Si2      1.0000 0.00000  0.37547  0.75000  Biso   1.000  Si
  Si3      1.0000 0.50000  0.12453  0.25000  Biso   1.000  Si
  Si4      1.0000 0.00000  0.62453  0.25000  Biso   1.000  Si
