data_image0
_cell_length_a       12.1217
_cell_length_b       15.4505
_cell_length_c       15.5311
_cell_angle_alpha    61.008
_cell_angle_beta     83.217
_cell_angle_gamma    82.867

_symmetry_space_group_name_H-M    "P 1"
_symmetry_int_tables_number       1

loop_
  _symmetry_equiv_pos_as_xyz
  'x, y, z'

loop_
  _atom_site_label
  _atom_site_occupancy
  _atom_site_fract_x
  _atom_site_fract_y
  _atom_site_fract_z
  _atom_site_thermal_displace_type
  _atom_site_B_iso_or_equiv
  _atom_site_type_symbol
  Ag1      1.0000 0.11593  0.53478  0.49727  Biso   1.000  Ag
  Ag2      1.0000 0.36585  0.47346  0.47886  Biso   1.000  Ag
  Ag3      1.0000 0.46761  0.37848  0.67193  Biso   1.000  Ag
  Si1      1.0000 0.33665  0.18613  0.15495  Biso   1.000  Si
  N1       1.0000 0.08620  0.43226  0.43552  Biso   1.000  N
  N2       1.0000 0.16120  0.45362  0.65442  Biso   1.000  N
  N3       1.0000 0.13710  0.69378  0.40471  Biso   1.000  N
  C1       1.0000 0.27293  0.25461  0.22372  Biso   1.000  C
  C2       1.0000 0.16890  0.30752  0.20347  Biso   1.000  C
  H1       1.0000 0.13070  0.31220  0.15120  Biso   1.000  H
  C3       1.0000 0.11990  0.35348  0.25771  Biso   1.000  C
  H2       1.0000 0.04850  0.38840  0.24330  Biso   1.000  H
  C4       1.0000 0.17601  0.34802  0.33300  Biso   1.000  C
  C5       1.0000 0.28057  0.29672  0.35436  Biso   1.000  C
  H3       1.0000 0.31950  0.29350  0.40560  Biso   1.000  H
  C6       1.0000 0.32699  0.25047  0.29984  Biso   1.000  C
  H4       1.0000 0.39790  0.21480  0.31490  Biso   1.000  H
  C7       1.0000 0.12629  0.39518  0.39015  Biso   1.000  C
  C8       1.0000 0.28798  0.25416  0.02619  Biso   1.000  C
  C9       1.0000 0.20830  0.21913  0.99584  Biso   1.000  C
  H5       1.0000 0.17640  0.15900  0.04150  Biso   1.000  H
  C10      1.0000 0.17440  0.27030  0.89988  Biso   1.000  C
  H6       1.0000 0.11970  0.24560  0.88020  Biso   1.000  H
  C11      1.0000 0.22140  0.35780  0.83345  Biso   1.000  C
  C12      1.0000 0.30070  0.39440  0.86176  Biso   1.000  C
  H7       1.0000 0.33240  0.45470  0.81600  Biso   1.000  H
  C13      1.0000 0.33350  0.34236  0.95732  Biso   1.000  C
  H8       1.0000 0.38840  0.36730  0.97650  Biso   1.000  H
  C14      1.0000 0.18730  0.41140  0.73330  Biso   1.000  C
  C15      1.0000 0.28301  0.05925  0.21825  Biso   1.000  C
  C16      1.0000 0.17720  0.04225  0.26653  Biso   1.000  C
  H9       1.0000 0.13070  0.09620  0.26710  Biso   1.000  H
  C17      1.0000 0.13840  0.94868  0.31354  Biso   1.000  C
  H10      1.0000 0.06630  0.93840  0.34660  Biso   1.000  H
  C18      1.0000 0.20570  0.87004  0.31201  Biso   1.000  C
  C19      1.0000 0.31050  0.88456  0.26326  Biso   1.000  C
  H11      1.0000 0.35590  0.83050  0.26170  Biso   1.000  H
  C20      1.0000 0.34830  0.97826  0.21696  Biso   1.000  C
  H12      1.0000 0.42020  0.98820  0.18340  Biso   1.000  H
  C21      1.0000 0.16680  0.77145  0.36356  Biso   1.000  C
  C22      1.0000 0.49130  0.17714  0.15215  Biso   1.000  C
  H13      1.0000 0.51460  0.14910  0.21940  Biso   1.000  H
  H14      1.0000 0.51810  0.24340  0.11170  Biso   1.000  H
  H15      1.0000 0.52270  0.13410  0.12390  Biso   1.000  H
  O1       1.0000 0.29677  0.53979  0.32462  Biso   1.000  O
  O2       1.0000 0.38528  0.67890  0.23266  Biso   1.000  O
  F1       1.0000 0.14410  0.71360  0.19060  Biso   1.000  F
  F2       1.0000 0.26830  0.71740  0.08250  Biso   1.000  F
  F3       1.0000 0.18650  0.58868  0.16660  Biso   1.000  F
  C23      1.0000 0.31220  0.62193  0.25220  Biso   1.000  C
  C24      1.0000 0.22450  0.66040  0.17470  Biso   1.000  C
  O3       1.0000 0.31420  0.32240  0.54580  Biso   1.000  O
  O4       1.0000 0.35830  0.25920  0.70280  Biso   1.000  O
  C25      1.0000 0.31230  0.26130  0.63500  Biso   1.000  C
  C26      1.0000 0.23480  0.17870  0.66900  Biso   1.000  C
  F4       1.0000 0.28210  0.08950  0.72660  Biso   1.000  F
  F5       1.0000 0.14710  0.19160  0.72120  Biso   1.000  F
  F6       1.0000 0.19850  0.17130  0.59600  Biso   1.000  F
  O5       1.0000 0.39021  0.61128  0.48519  Biso   1.000  O
  O6       1.0000 0.42040  0.53986  0.64447  Biso   1.000  O
  F7       1.0000 0.27930  0.74290  0.56010  Biso   1.000  F
  F8       1.0000 0.42730  0.71667  0.62920  Biso   1.000  F
  F9       1.0000 0.42540  0.78129  0.47260  Biso   1.000  F
  C27      1.0000 0.39930  0.60946  0.56430  Biso   1.000  C
  C28      1.0000 0.38270  0.71130  0.55920  Biso   1.000  C
  F10      1.0000 0.24110  0.63600  0.11570  Biso   1.000  F
  F11      1.0000 0.12060  0.62340  0.22400  Biso   1.000  F
  F12      1.0000 0.19860  0.75000  0.14020  Biso   1.000  F
  O7       1.0000 0.34500  0.30200  0.54700  Biso   1.000  O
  O8       1.0000 0.38800  0.23800  0.70200  Biso   1.000  O
  C29      1.0000 0.34400  0.23830  0.63480  Biso   1.000  C
  C30      1.0000 0.29500  0.14280  0.65490  Biso   1.000  C
  F13      1.0000 0.33300  0.06900  0.73600  Biso   1.000  F
  F14      1.0000 0.18440  0.16000  0.65700  Biso   1.000  F
  F15      1.0000 0.32100  0.12030  0.58350  Biso   1.000  F
  Ag4      1.0000 0.88407  0.46522  0.50273  Biso   1.000  Ag
  Ag5      1.0000 0.63415  0.52654  0.52114  Biso   1.000  Ag
  Ag6      1.0000 0.53239  0.62152  0.32807  Biso   1.000  Ag
  Si2      1.0000 0.66335  0.81387  0.84505  Biso   1.000  Si
  N4       1.0000 0.91380  0.56774  0.56448  Biso   1.000  N
  N5       1.0000 0.83880  0.54638  0.34558  Biso   1.000  N
  N6       1.0000 0.86290  0.30622  0.59529  Biso   1.000  N
  C31      1.0000 0.72707  0.74539  0.77628  Biso   1.000  C
  C32      1.0000 0.83110  0.69248  0.79653  Biso   1.000  C
  H16      1.0000 0.86930  0.68780  0.84880  Biso   1.000  H
  C33      1.0000 0.88010  0.64652  0.74229  Biso   1.000  C
  H17      1.0000 0.95150  0.61160  0.75670  Biso   1.000  H
  C34      1.0000 0.82399  0.65198  0.66700  Biso   1.000  C
  C35      1.0000 0.71943  0.70328  0.64564  Biso   1.000  C
  H18      1.0000 0.68050  0.70650  0.59440  Biso   1.000  H
  C36      1.0000 0.67301  0.74953  0.70016  Biso   1.000  C
  H19      1.0000 0.60210  0.78520  0.68510  Biso   1.000  H
  C37      1.0000 0.87371  0.60482  0.60985  Biso   1.000  C
  C38      1.0000 0.71202  0.74584  0.97381  Biso   1.000  C
  C39      1.0000 0.79170  0.78087  0.00416  Biso   1.000  C
  H20      1.0000 0.82360  0.84100  0.95850  Biso   1.000  H
  C40      1.0000 0.82560  0.72970  0.10012  Biso   1.000  C
  H21      1.0000 0.88030  0.75440  0.11980  Biso   1.000  H
  C41      1.0000 0.77860  0.64220  0.16655  Biso   1.000  C
  C42      1.0000 0.69930  0.60560  0.13824  Biso   1.000  C
  H22      1.0000 0.66760  0.54530  0.18400  Biso   1.000  H
  C43      1.0000 0.66650  0.65764  0.04268  Biso   1.000  C
  H23      1.0000 0.61160  0.63270  0.02350  Biso   1.000  H
  C44      1.0000 0.81270  0.58860  0.26670  Biso   1.000  C
  C45      1.0000 0.71699  0.94075  0.78175  Biso   1.000  C
  C46      1.0000 0.82280  0.95775  0.73347  Biso   1.000  C
  H24      1.0000 0.86930  0.90380  0.73290  Biso   1.000  H
  C47      1.0000 0.86160  0.05132  0.68646  Biso   1.000  C
  H25      1.0000 0.93370  0.06160  0.65340  Biso   1.000  H
  C48      1.0000 0.79430  0.12996  0.68799  Biso   1.000  C
  C49      1.0000 0.68950  0.11544  0.73674  Biso   1.000  C
  H26      1.0000 0.64410  0.16950  0.73830  Biso   1.000  H
  C50      1.0000 0.65170  0.02174  0.78304  Biso   1.000  C
  H27      1.0000 0.57980  0.01180  0.81660  Biso   1.000  H
  C51      1.0000 0.83320  0.22855  0.63644  Biso   1.000  C
  C52      1.0000 0.50870  0.82286  0.84785  Biso   1.000  C
  H28      1.0000 0.48540  0.85090  0.78060  Biso   1.000  H
  H29      1.0000 0.48190  0.75660  0.88830  Biso   1.000  H
  H30      1.0000 0.47730  0.86590  0.87610  Biso   1.000  H
  O9       1.0000 0.70323  0.46021  0.67538  Biso   1.000  O
  O10      1.0000 0.61472  0.32110  0.76734  Biso   1.000  O
  F16      1.0000 0.85590  0.28640  0.80940  Biso   1.000  F
  F17      1.0000 0.73170  0.28260  0.91750  Biso   1.000  F
  F18      1.0000 0.81350  0.41132  0.83340  Biso   1.000  F
  C53      1.0000 0.68780  0.37807  0.74780  Biso   1.000  C
  C54      1.0000 0.77550  0.33960  0.82530  Biso   1.000  C
  O11      1.0000 0.68580  0.67760  0.45420  Biso   1.000  O
  O12      1.0000 0.64170  0.74080  0.29720  Biso   1.000  O
  C55      1.0000 0.68770  0.73870  0.36500  Biso   1.000  C
  C56      1.0000 0.76520  0.82130  0.33100  Biso   1.000  C
  F19      1.0000 0.71790  0.91050  0.27340  Biso   1.000  F
  F20      1.0000 0.85290  0.80840  0.27880  Biso   1.000  F
  F21      1.0000 0.80150  0.82870  0.40400  Biso   1.000  F
  O13      1.0000 0.60979  0.38872  0.51481  Biso   1.000  O
  O14      1.0000 0.57960  0.46014  0.35553  Biso   1.000  O
  F22      1.0000 0.72070  0.25710  0.43990  Biso   1.000  F
  F23      1.0000 0.57270  0.28333  0.37080  Biso   1.000  F
  F24      1.0000 0.57460  0.21871  0.52740  Biso   1.000  F
  C57      1.0000 0.60070  0.39054  0.43570  Biso   1.000  C
  C58      1.0000 0.61730  0.28870  0.44080  Biso   1.000  C
  F25      1.0000 0.75890  0.36400  0.88430  Biso   1.000  F
  F26      1.0000 0.87940  0.37660  0.77600  Biso   1.000  F
  F27      1.0000 0.80140  0.25000  0.85980  Biso   1.000  F
  O15      1.0000 0.65500  0.69800  0.45300  Biso   1.000  O
  O16      1.0000 0.61200  0.76200  0.29800  Biso   1.000  O
  C59      1.0000 0.65600  0.76170  0.36520  Biso   1.000  C
  C60      1.0000 0.70500  0.85720  0.34510  Biso   1.000  C
  F28      1.0000 0.66700  0.93100  0.26400  Biso   1.000  F
  F29      1.0000 0.81560  0.84000  0.34300  Biso   1.000  F
  F30      1.0000 0.67900  0.87970  0.41650  Biso   1.000  F
