data_image0
_cell_length_a       15.2597
_cell_length_b       15.2597
_cell_length_c       19.0917
_cell_angle_alpha    90
_cell_angle_beta     90
_cell_angle_gamma    90

_symmetry_space_group_name_H-M    "P 1"
_symmetry_int_tables_number       1

loop_
  _symmetry_equiv_pos_as_xyz
  'x, y, z'

loop_
  _atom_site_label
  _atom_site_occupancy
  _atom_site_fract_x
  _atom_site_fract_y
  _atom_site_fract_z
  _atom_site_thermal_displace_type
  _atom_site_B_iso_or_equiv
  _atom_site_type_symbol
  O1       1.0000 0.57580  0.60790  0.80757  Biso   1.000  O
  O2       1.0000 0.57790  0.60640  0.69030  Biso   1.000  O
  O3       1.0000 0.89140  0.92390  0.69135  Biso   1.000  O
  O4       1.0000 0.89370  0.92280  0.80711  Biso   1.000  O
  C1       1.0000 0.60090  0.63600  0.74930  Biso   1.000  C
  C2       1.0000 0.86370  0.89800  0.75070  Biso   1.000  C
  C3       1.0000 0.46780  0.41780  0.96160  Biso   1.000  C
  H1       1.0000 0.50000  0.36950  0.94100  Biso   1.000  H
  H2       1.0000 0.40650  0.41080  0.94940  Biso   1.000  H
  C4       1.0000 0.43920  0.57090  0.95940  Biso   1.000  C
  H3       1.0000 0.38240  0.56570  0.93690  Biso   1.000  H
  H4       1.0000 0.53690  0.37180  0.94830  Biso   1.000  H
  C5       1.0000 0.58510  0.52230  0.95930  Biso   1.000  C
  H5       1.0000 0.39540  0.42320  0.93830  Biso   1.000  H
  H6       1.0000 0.37330  0.52310  0.94680  Biso   1.000  H
  C6       1.0000 0.58610  0.47710  0.54110  Biso   1.000  C
  H7       1.0000 0.39410  0.57740  0.56200  Biso   1.000  H
  H8       1.0000 0.37210  0.47740  0.55290  Biso   1.000  H
  C7       1.0000 0.44040  0.42810  0.54110  Biso   1.000  C
  H9       1.0000 0.38390  0.43120  0.56430  Biso   1.000  H
  H10      1.0000 0.53400  0.62880  0.55080  Biso   1.000  H
  C8       1.0000 0.46690  0.58020  0.54030  Biso   1.000  C
  H11      1.0000 0.49770  0.62890  0.56170  Biso   1.000  H
  H12      1.0000 0.40530  0.58560  0.55230  Biso   1.000  H
  C9       1.0000 0.66760  0.71160  0.75120  Biso   1.000  C
  C10      1.0000 0.64950  0.78040  0.69530  Biso   1.000  C
  H13      1.0000 0.59110  0.80410  0.70160  Biso   1.000  H
  H14      1.0000 0.65240  0.75360  0.64930  Biso   1.000  H
  C11      1.0000 0.75810  0.66930  0.73470  Biso   1.000  C
  H15      1.0000 0.77540  0.63070  0.77270  Biso   1.000  H
  H16      1.0000 0.75450  0.63500  0.69210  Biso   1.000  H
  C12      1.0000 0.67330  0.75270  0.82310  Biso   1.000  C
  H17      1.0000 0.68360  0.70790  0.85820  Biso   1.000  H
  H18      1.0000 0.61880  0.78240  0.83420  Biso   1.000  H
  C13      1.0000 0.79240  0.82980  0.75050  Biso   1.000  C
  C14      1.0000 0.71820  0.85580  0.70020  Biso   1.000  C
  H19      1.0000 0.74220  0.86760  0.65420  Biso   1.000  H
  H20      1.0000 0.69000  0.90870  0.71700  Biso   1.000  H
  C15      1.0000 0.82570  0.74310  0.72600  Biso   1.000  C
  H21      1.0000 0.87810  0.72820  0.75220  Biso   1.000  H
  H22      1.0000 0.84180  0.74750  0.67700  Biso   1.000  H
  C16      1.0000 0.74980  0.81890  0.82240  Biso   1.000  C
  H23      1.0000 0.72830  0.87540  0.83800  Biso   1.000  H
  H24      1.0000 0.79400  0.79970  0.85560  Biso   1.000  H
  C17      1.0000 0.29150  0.32910  0.25110  Biso   1.000  C
  C18      1.0000 0.27100  0.30060  0.32580  Biso   1.000  C
  C19      1.0000 0.31830  0.24560  0.21070  Biso   1.000  C
  C20      1.0000 0.20800  0.36410  0.21980  Biso   1.000  C
  C21      1.0000 0.17800  0.25640  0.32300  Biso   1.000  C
  C22      1.0000 0.17110  0.25470  0.76790  Biso   1.000  C
  C23      1.0000 0.14970  0.28520  0.19800  Biso   1.000  C
  C24      1.0000 0.16830  0.21300  0.25150  Biso   1.000  C
  H25      1.0000 0.27050  0.35080  0.35700  Biso   1.000  H
  H26      1.0000 0.31460  0.25920  0.34240  Biso   1.000  H
  H27      1.0000 0.37810  0.22960  0.22220  Biso   1.000  H
  H28      1.0000 0.31470  0.25590  0.16060  Biso   1.000  H
  H29      1.0000 0.22120  0.40000  0.17920  Biso   1.000  H
  H30      1.0000 0.17740  0.40010  0.25380  Biso   1.000  H
  H31      1.0000 0.17260  0.21300  0.35990  Biso   1.000  H
  H32      1.0000 0.13260  0.30020  0.32950  Biso   1.000  H
  H33      1.0000 0.13060  0.24670  0.80650  Biso   1.000  H
  H34      1.0000 0.13900  0.27820  0.72830  Biso   1.000  H
  H35      1.0000 0.08820  0.30140  0.19900  Biso   1.000  H
  H36      1.0000 0.16450  0.26570  0.15110  Biso   1.000  H
  O5       1.0000 0.42420  0.39210  0.80757  Biso   1.000  O
  O6       1.0000 0.42210  0.39360  0.69030  Biso   1.000  O
  O7       1.0000 0.10860  0.07610  0.69135  Biso   1.000  O
  O8       1.0000 0.10630  0.07720  0.80711  Biso   1.000  O
  C25      1.0000 0.39910  0.36400  0.74930  Biso   1.000  C
  C26      1.0000 0.13630  0.10200  0.75070  Biso   1.000  C
  C27      1.0000 0.53220  0.58220  0.96160  Biso   1.000  C
  H37      1.0000 0.50000  0.63050  0.94100  Biso   1.000  H
  H38      1.0000 0.59350  0.58920  0.94940  Biso   1.000  H
  C28      1.0000 0.56080  0.42910  0.95940  Biso   1.000  C
  H39      1.0000 0.61760  0.43430  0.93690  Biso   1.000  H
  H40      1.0000 0.46310  0.62820  0.94830  Biso   1.000  H
  C29      1.0000 0.41490  0.47770  0.95930  Biso   1.000  C
  H41      1.0000 0.60460  0.57680  0.93830  Biso   1.000  H
  H42      1.0000 0.62670  0.47690  0.94680  Biso   1.000  H
  C30      1.0000 0.41390  0.52290  0.54110  Biso   1.000  C
  H43      1.0000 0.60590  0.42260  0.56200  Biso   1.000  H
  H44      1.0000 0.62790  0.52260  0.55290  Biso   1.000  H
  C31      1.0000 0.55960  0.57190  0.54110  Biso   1.000  C
  H45      1.0000 0.61610  0.56880  0.56430  Biso   1.000  H
  H46      1.0000 0.46600  0.37120  0.55080  Biso   1.000  H
  C32      1.0000 0.53310  0.41980  0.54030  Biso   1.000  C
  H47      1.0000 0.50230  0.37110  0.56170  Biso   1.000  H
  H48      1.0000 0.59470  0.41440  0.55230  Biso   1.000  H
  C33      1.0000 0.33240  0.28840  0.75120  Biso   1.000  C
  C34      1.0000 0.35050  0.21960  0.69530  Biso   1.000  C
  H49      1.0000 0.40890  0.19590  0.70160  Biso   1.000  H
  H50      1.0000 0.34760  0.24640  0.64930  Biso   1.000  H
  C35      1.0000 0.24190  0.33070  0.73470  Biso   1.000  C
  H51      1.0000 0.22460  0.36930  0.77270  Biso   1.000  H
  H52      1.0000 0.24550  0.36500  0.69210  Biso   1.000  H
  C36      1.0000 0.32670  0.24730  0.82310  Biso   1.000  C
  H53      1.0000 0.31640  0.29210  0.85820  Biso   1.000  H
  H54      1.0000 0.38120  0.21760  0.83420  Biso   1.000  H
  C37      1.0000 0.20760  0.17020  0.75050  Biso   1.000  C
  C38      1.0000 0.28180  0.14420  0.70020  Biso   1.000  C
  H55      1.0000 0.25780  0.13240  0.65420  Biso   1.000  H
  H56      1.0000 0.31000  0.09130  0.71700  Biso   1.000  H
  C39      1.0000 0.17430  0.25690  0.72600  Biso   1.000  C
  H57      1.0000 0.12190  0.27180  0.75220  Biso   1.000  H
  H58      1.0000 0.15820  0.25250  0.67700  Biso   1.000  H
  C40      1.0000 0.25020  0.18110  0.82240  Biso   1.000  C
  H59      1.0000 0.27170  0.12460  0.83800  Biso   1.000  H
  H60      1.0000 0.20600  0.20030  0.85560  Biso   1.000  H
  C41      1.0000 0.70850  0.67090  0.25110  Biso   1.000  C
  C42      1.0000 0.72900  0.69940  0.32580  Biso   1.000  C
  C43      1.0000 0.68170  0.75440  0.21070  Biso   1.000  C
  C44      1.0000 0.79200  0.63590  0.21980  Biso   1.000  C
  C45      1.0000 0.82200  0.74360  0.32300  Biso   1.000  C
  C46      1.0000 0.82890  0.74530  0.76790  Biso   1.000  C
  C47      1.0000 0.85030  0.71480  0.19800  Biso   1.000  C
  C48      1.0000 0.83170  0.78700  0.25150  Biso   1.000  C
  H61      1.0000 0.72950  0.64920  0.35700  Biso   1.000  H
  H62      1.0000 0.68540  0.74080  0.34240  Biso   1.000  H
  H63      1.0000 0.62190  0.77040  0.22220  Biso   1.000  H
  H64      1.0000 0.68530  0.74410  0.16060  Biso   1.000  H
  H65      1.0000 0.77880  0.60000  0.17920  Biso   1.000  H
  H66      1.0000 0.82260  0.59990  0.25380  Biso   1.000  H
  H67      1.0000 0.82740  0.78700  0.35990  Biso   1.000  H
  H68      1.0000 0.86740  0.69980  0.32950  Biso   1.000  H
  H69      1.0000 0.86940  0.75330  0.80650  Biso   1.000  H
  H70      1.0000 0.86100  0.72180  0.72830  Biso   1.000  H
  H71      1.0000 0.91180  0.69860  0.19900  Biso   1.000  H
  H72      1.0000 0.83550  0.73430  0.15110  Biso   1.000  H
  O9       1.0000 0.89210  0.07580  0.30757  Biso   1.000  O
  O10      1.0000 0.89360  0.07790  0.19030  Biso   1.000  O
  O11      1.0000 0.57610  0.39140  0.19135  Biso   1.000  O
  O12      1.0000 0.57720  0.39370  0.30711  Biso   1.000  O
  C49      1.0000 0.86400  0.10090  0.24930  Biso   1.000  C
  C50      1.0000 0.60200  0.36370  0.25070  Biso   1.000  C
  C51      1.0000 0.08220  0.96780  0.46160  Biso   1.000  C
  H73      1.0000 0.13050  0.00000  0.44100  Biso   1.000  H
  H74      1.0000 0.08920  0.90650  0.44940  Biso   1.000  H
  C52      1.0000 0.92910  0.93920  0.45940  Biso   1.000  C
  H75      1.0000 0.93430  0.88240  0.43690  Biso   1.000  H
  H76      1.0000 0.12820  0.03690  0.44830  Biso   1.000  H
  C53      1.0000 0.97770  0.08510  0.45930  Biso   1.000  C
  H77      1.0000 0.07680  0.89540  0.43830  Biso   1.000  H
  H78      1.0000 0.97690  0.87330  0.44680  Biso   1.000  H
  C54      1.0000 0.02290  0.08610  0.04110  Biso   1.000  C
  H79      1.0000 0.92260  0.89410  0.06200  Biso   1.000  H
  H80      1.0000 0.02260  0.87210  0.05290  Biso   1.000  H
  C55      1.0000 0.07190  0.94040  0.04110  Biso   1.000  C
  H81      1.0000 0.06880  0.88390  0.06430  Biso   1.000  H
  H82      1.0000 0.87120  0.03400  0.05080  Biso   1.000  H
  C56      1.0000 0.91980  0.96690  0.04030  Biso   1.000  C
  H83      1.0000 0.87110  0.99770  0.06170  Biso   1.000  H
  H84      1.0000 0.91440  0.90530  0.05230  Biso   1.000  H
  C57      1.0000 0.78840  0.16760  0.25120  Biso   1.000  C
  C58      1.0000 0.71960  0.14950  0.19530  Biso   1.000  C
  H85      1.0000 0.69590  0.09110  0.20160  Biso   1.000  H
  H86      1.0000 0.74640  0.15240  0.14930  Biso   1.000  H
  C59      1.0000 0.83070  0.25810  0.23470  Biso   1.000  C
  H87      1.0000 0.86930  0.27540  0.27270  Biso   1.000  H
  H88      1.0000 0.86500  0.25450  0.19210  Biso   1.000  H
  C60      1.0000 0.74730  0.17330  0.32310  Biso   1.000  C
  H89      1.0000 0.79210  0.18360  0.35820  Biso   1.000  H
  H90      1.0000 0.71760  0.11880  0.33420  Biso   1.000  H
  C61      1.0000 0.67020  0.29240  0.25050  Biso   1.000  C
  C62      1.0000 0.64420  0.21820  0.20020  Biso   1.000  C
  H91      1.0000 0.63240  0.24220  0.15420  Biso   1.000  H
  H92      1.0000 0.59130  0.19000  0.21700  Biso   1.000  H
  C63      1.0000 0.75690  0.32570  0.22600  Biso   1.000  C
  H93      1.0000 0.77180  0.37810  0.25220  Biso   1.000  H
  H94      1.0000 0.75250  0.34180  0.17700  Biso   1.000  H
  C64      1.0000 0.68110  0.24980  0.32240  Biso   1.000  C
  H95      1.0000 0.62460  0.22830  0.33800  Biso   1.000  H
  H96      1.0000 0.70030  0.29400  0.35560  Biso   1.000  H
  C65      1.0000 0.17090  0.79150  0.75110  Biso   1.000  C
  C66      1.0000 0.19940  0.77100  0.82580  Biso   1.000  C
  C67      1.0000 0.25440  0.81830  0.71070  Biso   1.000  C
  C68      1.0000 0.13590  0.70800  0.71980  Biso   1.000  C
  C69      1.0000 0.24360  0.67800  0.82300  Biso   1.000  C
  C70      1.0000 0.24530  0.67110  0.26790  Biso   1.000  C
  C71      1.0000 0.21480  0.64970  0.69800  Biso   1.000  C
  C72      1.0000 0.28700  0.66830  0.75150  Biso   1.000  C
  H97      1.0000 0.14920  0.77050  0.85700  Biso   1.000  H
  H98      1.0000 0.24080  0.81460  0.84240  Biso   1.000  H
  H99      1.0000 0.27040  0.87810  0.72220  Biso   1.000  H
  H100     1.0000 0.24410  0.81470  0.66060  Biso   1.000  H
  H101     1.0000 0.10000  0.72120  0.67920  Biso   1.000  H
  H102     1.0000 0.09990  0.67740  0.75380  Biso   1.000  H
  H103     1.0000 0.28700  0.67260  0.85990  Biso   1.000  H
  H104     1.0000 0.19980  0.63260  0.82950  Biso   1.000  H
  H105     1.0000 0.25330  0.63060  0.30650  Biso   1.000  H
  H106     1.0000 0.22180  0.63900  0.22830  Biso   1.000  H
  H107     1.0000 0.19860  0.58820  0.69900  Biso   1.000  H
  H108     1.0000 0.23430  0.66450  0.65110  Biso   1.000  H
  O13      1.0000 0.10790  0.92420  0.30757  Biso   1.000  O
  O14      1.0000 0.10640  0.92210  0.19030  Biso   1.000  O
  O15      1.0000 0.42390  0.60860  0.19135  Biso   1.000  O
  O16      1.0000 0.42280  0.60630  0.30711  Biso   1.000  O
  C73      1.0000 0.13600  0.89910  0.24930  Biso   1.000  C
  C74      1.0000 0.39800  0.63630  0.25070  Biso   1.000  C
  C75      1.0000 0.91780  0.03220  0.46160  Biso   1.000  C
  H109     1.0000 0.86950  0.00000  0.44100  Biso   1.000  H
  H110     1.0000 0.91080  0.09350  0.44940  Biso   1.000  H
  C76      1.0000 0.07090  0.06080  0.45940  Biso   1.000  C
  H111     1.0000 0.06570  0.11760  0.43690  Biso   1.000  H
  H112     1.0000 0.87180  0.96310  0.44830  Biso   1.000  H
  C77      1.0000 0.02230  0.91490  0.45930  Biso   1.000  C
  H113     1.0000 0.92320  0.10460  0.43830  Biso   1.000  H
  H114     1.0000 0.02310  0.12670  0.44680  Biso   1.000  H
  C78      1.0000 0.97710  0.91390  0.04110  Biso   1.000  C
  H115     1.0000 0.07740  0.10590  0.06200  Biso   1.000  H
  H116     1.0000 0.97740  0.12790  0.05290  Biso   1.000  H
  C79      1.0000 0.92810  0.05960  0.04110  Biso   1.000  C
  H117     1.0000 0.93120  0.11610  0.06430  Biso   1.000  H
  H118     1.0000 0.12880  0.96600  0.05080  Biso   1.000  H
  C80      1.0000 0.08020  0.03310  0.04030  Biso   1.000  C
  H119     1.0000 0.12890  0.00230  0.06170  Biso   1.000  H
  H120     1.0000 0.08560  0.09470  0.05230  Biso   1.000  H
  C81      1.0000 0.21160  0.83240  0.25120  Biso   1.000  C
  C82      1.0000 0.28040  0.85050  0.19530  Biso   1.000  C
  H121     1.0000 0.30410  0.90890  0.20160  Biso   1.000  H
  H122     1.0000 0.25360  0.84760  0.14930  Biso   1.000  H
  C83      1.0000 0.16930  0.74190  0.23470  Biso   1.000  C
  H123     1.0000 0.13070  0.72460  0.27270  Biso   1.000  H
  H124     1.0000 0.13500  0.74550  0.19210  Biso   1.000  H
  C84      1.0000 0.25270  0.82670  0.32310  Biso   1.000  C
  H125     1.0000 0.20790  0.81640  0.35820  Biso   1.000  H
  H126     1.0000 0.28240  0.88120  0.33420  Biso   1.000  H
  C85      1.0000 0.32980  0.70760  0.25050  Biso   1.000  C
  C86      1.0000 0.35580  0.78180  0.20020  Biso   1.000  C
  H127     1.0000 0.36760  0.75780  0.15420  Biso   1.000  H
  H128     1.0000 0.40870  0.81000  0.21700  Biso   1.000  H
  C87      1.0000 0.24310  0.67430  0.22600  Biso   1.000  C
  H129     1.0000 0.22820  0.62190  0.25220  Biso   1.000  H
  H130     1.0000 0.24750  0.65820  0.17700  Biso   1.000  H
  C88      1.0000 0.31890  0.75020  0.32240  Biso   1.000  C
  H131     1.0000 0.37540  0.77170  0.33800  Biso   1.000  H
  H132     1.0000 0.29970  0.70600  0.35560  Biso   1.000  H
  C89      1.0000 0.82910  0.20850  0.75110  Biso   1.000  C
  C90      1.0000 0.80060  0.22900  0.82580  Biso   1.000  C
  C91      1.0000 0.74560  0.18170  0.71070  Biso   1.000  C
  C92      1.0000 0.86410  0.29200  0.71980  Biso   1.000  C
  C93      1.0000 0.75640  0.32200  0.82300  Biso   1.000  C
  C94      1.0000 0.75470  0.32890  0.26790  Biso   1.000  C
  C95      1.0000 0.78520  0.35030  0.69800  Biso   1.000  C
  C96      1.0000 0.71300  0.33170  0.75150  Biso   1.000  C
  H133     1.0000 0.85080  0.22950  0.85700  Biso   1.000  H
  H134     1.0000 0.75920  0.18540  0.84240  Biso   1.000  H
  H135     1.0000 0.72960  0.12190  0.72220  Biso   1.000  H
  H136     1.0000 0.75590  0.18530  0.66060  Biso   1.000  H
  H137     1.0000 0.90000  0.27880  0.67920  Biso   1.000  H
  H138     1.0000 0.90010  0.32260  0.75380  Biso   1.000  H
  H139     1.0000 0.71300  0.32740  0.85990  Biso   1.000  H
  H140     1.0000 0.80020  0.36740  0.82950  Biso   1.000  H
  H141     1.0000 0.74670  0.36940  0.30650  Biso   1.000  H
  H142     1.0000 0.77820  0.36100  0.22830  Biso   1.000  H
  H143     1.0000 0.80140  0.41180  0.69900  Biso   1.000  H
  H144     1.0000 0.76570  0.33550  0.65110  Biso   1.000  H
  O17      1.0000 0.92420  0.10790  0.69243  Biso   1.000  O
  O18      1.0000 0.92210  0.10640  0.80970  Biso   1.000  O
  O19      1.0000 0.60860  0.42390  0.80865  Biso   1.000  O
  O20      1.0000 0.60630  0.42280  0.69289  Biso   1.000  O
  C97      1.0000 0.89910  0.13600  0.75070  Biso   1.000  C
  C98      1.0000 0.63630  0.39800  0.74930  Biso   1.000  C
  C99      1.0000 0.03220  0.91780  0.53840  Biso   1.000  C
  H145     1.0000 0.00000  0.86950  0.55900  Biso   1.000  H
  H146     1.0000 0.09350  0.91080  0.55060  Biso   1.000  H
  C100     1.0000 0.06080  0.07090  0.54060  Biso   1.000  C
  H147     1.0000 0.11760  0.06570  0.56310  Biso   1.000  H
  H148     1.0000 0.96310  0.87180  0.55170  Biso   1.000  H
  C101     1.0000 0.91490  0.02230  0.54070  Biso   1.000  C
  H149     1.0000 0.10460  0.92320  0.56170  Biso   1.000  H
  H150     1.0000 0.12670  0.02310  0.55320  Biso   1.000  H
  C102     1.0000 0.91390  0.97710  0.95890  Biso   1.000  C
  H151     1.0000 0.10590  0.07740  0.93800  Biso   1.000  H
  H152     1.0000 0.12790  0.97740  0.94710  Biso   1.000  H
  C103     1.0000 0.05960  0.92810  0.95890  Biso   1.000  C
  H153     1.0000 0.11610  0.93120  0.93570  Biso   1.000  H
  H154     1.0000 0.96600  0.12880  0.94920  Biso   1.000  H
  C104     1.0000 0.03310  0.08020  0.95970  Biso   1.000  C
  H155     1.0000 0.00230  0.12890  0.93830  Biso   1.000  H
  H156     1.0000 0.09470  0.08560  0.94770  Biso   1.000  H
  C105     1.0000 0.83240  0.21160  0.74880  Biso   1.000  C
  C106     1.0000 0.85050  0.28040  0.80470  Biso   1.000  C
  H157     1.0000 0.90890  0.30410  0.79840  Biso   1.000  H
  H158     1.0000 0.84760  0.25360  0.85070  Biso   1.000  H
  C107     1.0000 0.74190  0.16930  0.76530  Biso   1.000  C
  H159     1.0000 0.72460  0.13070  0.72730  Biso   1.000  H
  H160     1.0000 0.74550  0.13500  0.80790  Biso   1.000  H
  C108     1.0000 0.82670  0.25270  0.67690  Biso   1.000  C
  H161     1.0000 0.81640  0.20790  0.64180  Biso   1.000  H
  H162     1.0000 0.88120  0.28240  0.66580  Biso   1.000  H
  C109     1.0000 0.70760  0.32980  0.74950  Biso   1.000  C
  C110     1.0000 0.78180  0.35580  0.79980  Biso   1.000  C
  H163     1.0000 0.75780  0.36760  0.84580  Biso   1.000  H
  H164     1.0000 0.81000  0.40870  0.78300  Biso   1.000  H
  C111     1.0000 0.67430  0.24310  0.77400  Biso   1.000  C
  H165     1.0000 0.62190  0.22820  0.74780  Biso   1.000  H
  H166     1.0000 0.65820  0.24750  0.82300  Biso   1.000  H
  C112     1.0000 0.75020  0.31890  0.67760  Biso   1.000  C
  H167     1.0000 0.77170  0.37540  0.66200  Biso   1.000  H
  H168     1.0000 0.70600  0.29970  0.64440  Biso   1.000  H
  C113     1.0000 0.20850  0.82910  0.24890  Biso   1.000  C
  C114     1.0000 0.22900  0.80060  0.17420  Biso   1.000  C
  C115     1.0000 0.18170  0.74560  0.28930  Biso   1.000  C
  C116     1.0000 0.29200  0.86410  0.28020  Biso   1.000  C
  C117     1.0000 0.32200  0.75640  0.17700  Biso   1.000  C
  C118     1.0000 0.32890  0.75470  0.73210  Biso   1.000  C
  C119     1.0000 0.35030  0.78520  0.30200  Biso   1.000  C
  C120     1.0000 0.33170  0.71300  0.24850  Biso   1.000  C
  H169     1.0000 0.22950  0.85080  0.14300  Biso   1.000  H
  H170     1.0000 0.18540  0.75920  0.15760  Biso   1.000  H
  H171     1.0000 0.12190  0.72960  0.27780  Biso   1.000  H
  H172     1.0000 0.18530  0.75590  0.33940  Biso   1.000  H
  H173     1.0000 0.27880  0.90000  0.32080  Biso   1.000  H
  H174     1.0000 0.32260  0.90010  0.24620  Biso   1.000  H
  H175     1.0000 0.32740  0.71300  0.14010  Biso   1.000  H
  H176     1.0000 0.36740  0.80020  0.17050  Biso   1.000  H
  H177     1.0000 0.36940  0.74670  0.69350  Biso   1.000  H
  H178     1.0000 0.36100  0.77820  0.77170  Biso   1.000  H
  H179     1.0000 0.41180  0.80140  0.30100  Biso   1.000  H
  H180     1.0000 0.33550  0.76570  0.34890  Biso   1.000  H
  O21      1.0000 0.07580  0.89210  0.69243  Biso   1.000  O
  O22      1.0000 0.07790  0.89360  0.80970  Biso   1.000  O
  O23      1.0000 0.39140  0.57610  0.80865  Biso   1.000  O
  O24      1.0000 0.39370  0.57720  0.69289  Biso   1.000  O
  C121     1.0000 0.10090  0.86400  0.75070  Biso   1.000  C
  C122     1.0000 0.36370  0.60200  0.74930  Biso   1.000  C
  C123     1.0000 0.96780  0.08220  0.53840  Biso   1.000  C
  H181     1.0000 0.00000  0.13050  0.55900  Biso   1.000  H
  H182     1.0000 0.90650  0.08920  0.55060  Biso   1.000  H
  C124     1.0000 0.93920  0.92910  0.54060  Biso   1.000  C
  H183     1.0000 0.88240  0.93430  0.56310  Biso   1.000  H
  H184     1.0000 0.03690  0.12820  0.55170  Biso   1.000  H
  C125     1.0000 0.08510  0.97770  0.54070  Biso   1.000  C
  H185     1.0000 0.89540  0.07680  0.56170  Biso   1.000  H
  H186     1.0000 0.87330  0.97690  0.55320  Biso   1.000  H
  C126     1.0000 0.08610  0.02290  0.95890  Biso   1.000  C
  H187     1.0000 0.89410  0.92260  0.93800  Biso   1.000  H
  H188     1.0000 0.87210  0.02260  0.94710  Biso   1.000  H
  C127     1.0000 0.94040  0.07190  0.95890  Biso   1.000  C
  H189     1.0000 0.88390  0.06880  0.93570  Biso   1.000  H
  H190     1.0000 0.03400  0.87120  0.94920  Biso   1.000  H
  C128     1.0000 0.96690  0.91980  0.95970  Biso   1.000  C
  H191     1.0000 0.99770  0.87110  0.93830  Biso   1.000  H
  H192     1.0000 0.90530  0.91440  0.94770  Biso   1.000  H
  C129     1.0000 0.16760  0.78840  0.74880  Biso   1.000  C
  C130     1.0000 0.14950  0.71960  0.80470  Biso   1.000  C
  H193     1.0000 0.09110  0.69590  0.79840  Biso   1.000  H
  H194     1.0000 0.15240  0.74640  0.85070  Biso   1.000  H
  C131     1.0000 0.25810  0.83070  0.76530  Biso   1.000  C
  H195     1.0000 0.27540  0.86930  0.72730  Biso   1.000  H
  H196     1.0000 0.25450  0.86500  0.80790  Biso   1.000  H
  C132     1.0000 0.17330  0.74730  0.67690  Biso   1.000  C
  H197     1.0000 0.18360  0.79210  0.64180  Biso   1.000  H
  H198     1.0000 0.11880  0.71760  0.66580  Biso   1.000  H
  C133     1.0000 0.29240  0.67020  0.74950  Biso   1.000  C
  C134     1.0000 0.21820  0.64420  0.79980  Biso   1.000  C
  H199     1.0000 0.24220  0.63240  0.84580  Biso   1.000  H
  H200     1.0000 0.19000  0.59130  0.78300  Biso   1.000  H
  C135     1.0000 0.32570  0.75690  0.77400  Biso   1.000  C
  H201     1.0000 0.37810  0.77180  0.74780  Biso   1.000  H
  H202     1.0000 0.34180  0.75250  0.82300  Biso   1.000  H
  C136     1.0000 0.24980  0.68110  0.67760  Biso   1.000  C
  H203     1.0000 0.22830  0.62460  0.66200  Biso   1.000  H
  H204     1.0000 0.29400  0.70030  0.64440  Biso   1.000  H
  C137     1.0000 0.79150  0.17090  0.24890  Biso   1.000  C
  C138     1.0000 0.77100  0.19940  0.17420  Biso   1.000  C
  C139     1.0000 0.81830  0.25440  0.28930  Biso   1.000  C
  C140     1.0000 0.70800  0.13590  0.28020  Biso   1.000  C
  C141     1.0000 0.67800  0.24360  0.17700  Biso   1.000  C
  C142     1.0000 0.67110  0.24530  0.73210  Biso   1.000  C
  C143     1.0000 0.64970  0.21480  0.30200  Biso   1.000  C
  C144     1.0000 0.66830  0.28700  0.24850  Biso   1.000  C
  H205     1.0000 0.77050  0.14920  0.14300  Biso   1.000  H
  H206     1.0000 0.81460  0.24080  0.15760  Biso   1.000  H
  H207     1.0000 0.87810  0.27040  0.27780  Biso   1.000  H
  H208     1.0000 0.81470  0.24410  0.33940  Biso   1.000  H
  H209     1.0000 0.72120  0.10000  0.32080  Biso   1.000  H
  H210     1.0000 0.67740  0.09990  0.24620  Biso   1.000  H
  H211     1.0000 0.67260  0.28700  0.14010  Biso   1.000  H
  H212     1.0000 0.63260  0.19980  0.17050  Biso   1.000  H
  H213     1.0000 0.63060  0.25330  0.69350  Biso   1.000  H
  H214     1.0000 0.63900  0.22180  0.77170  Biso   1.000  H
  H215     1.0000 0.58820  0.19860  0.30100  Biso   1.000  H
  H216     1.0000 0.66450  0.23430  0.34890  Biso   1.000  H
  O25      1.0000 0.60790  0.57580  0.19243  Biso   1.000  O
  O26      1.0000 0.60640  0.57790  0.30970  Biso   1.000  O
  O27      1.0000 0.92390  0.89140  0.30865  Biso   1.000  O
  O28      1.0000 0.92280  0.89370  0.19289  Biso   1.000  O
  C145     1.0000 0.63600  0.60090  0.25070  Biso   1.000  C
  C146     1.0000 0.89800  0.86370  0.24930  Biso   1.000  C
  C147     1.0000 0.41780  0.46780  0.03840  Biso   1.000  C
  H217     1.0000 0.36950  0.50000  0.05900  Biso   1.000  H
  H218     1.0000 0.41080  0.40650  0.05060  Biso   1.000  H
  C148     1.0000 0.57090  0.43920  0.04060  Biso   1.000  C
  H219     1.0000 0.56570  0.38240  0.06310  Biso   1.000  H
  H220     1.0000 0.37180  0.53690  0.05170  Biso   1.000  H
  C149     1.0000 0.52230  0.58510  0.04070  Biso   1.000  C
  H221     1.0000 0.42320  0.39540  0.06170  Biso   1.000  H
  H222     1.0000 0.52310  0.37330  0.05320  Biso   1.000  H
  C150     1.0000 0.47710  0.58610  0.45890  Biso   1.000  C
  H223     1.0000 0.57740  0.39410  0.43800  Biso   1.000  H
  H224     1.0000 0.47740  0.37210  0.44710  Biso   1.000  H
  C151     1.0000 0.42810  0.44040  0.45890  Biso   1.000  C
  H225     1.0000 0.43120  0.38390  0.43570  Biso   1.000  H
  H226     1.0000 0.62880  0.53400  0.44920  Biso   1.000  H
  C152     1.0000 0.58020  0.46690  0.45970  Biso   1.000  C
  H227     1.0000 0.62890  0.49770  0.43830  Biso   1.000  H
  H228     1.0000 0.58560  0.40530  0.44770  Biso   1.000  H
  C153     1.0000 0.71160  0.66760  0.24880  Biso   1.000  C
  C154     1.0000 0.78040  0.64950  0.30470  Biso   1.000  C
  H229     1.0000 0.80410  0.59110  0.29840  Biso   1.000  H
  H230     1.0000 0.75360  0.65240  0.35070  Biso   1.000  H
  C155     1.0000 0.66930  0.75810  0.26530  Biso   1.000  C
  H231     1.0000 0.63070  0.77540  0.22730  Biso   1.000  H
  H232     1.0000 0.63500  0.75450  0.30790  Biso   1.000  H
  C156     1.0000 0.75270  0.67330  0.17690  Biso   1.000  C
  H233     1.0000 0.70790  0.68360  0.14180  Biso   1.000  H
  H234     1.0000 0.78240  0.61880  0.16580  Biso   1.000  H
  C157     1.0000 0.82980  0.79240  0.24950  Biso   1.000  C
  C158     1.0000 0.85580  0.71820  0.29980  Biso   1.000  C
  H235     1.0000 0.86760  0.74220  0.34580  Biso   1.000  H
  H236     1.0000 0.90870  0.69000  0.28300  Biso   1.000  H
  C159     1.0000 0.74310  0.82570  0.27400  Biso   1.000  C
  H237     1.0000 0.72820  0.87810  0.24780  Biso   1.000  H
  H238     1.0000 0.74750  0.84180  0.32300  Biso   1.000  H
  C160     1.0000 0.81890  0.74980  0.17760  Biso   1.000  C
  H239     1.0000 0.87540  0.72830  0.16200  Biso   1.000  H
  H240     1.0000 0.79970  0.79400  0.14440  Biso   1.000  H
  C161     1.0000 0.32910  0.29150  0.74890  Biso   1.000  C
  C162     1.0000 0.30060  0.27100  0.67420  Biso   1.000  C
  C163     1.0000 0.24560  0.31830  0.78930  Biso   1.000  C
  C164     1.0000 0.36410  0.20800  0.78020  Biso   1.000  C
  C165     1.0000 0.25640  0.17800  0.67700  Biso   1.000  C
  C166     1.0000 0.25470  0.17110  0.23210  Biso   1.000  C
  C167     1.0000 0.28520  0.14970  0.80200  Biso   1.000  C
  C168     1.0000 0.21300  0.16830  0.74850  Biso   1.000  C
  H241     1.0000 0.35080  0.27050  0.64300  Biso   1.000  H
  H242     1.0000 0.25920  0.31460  0.65760  Biso   1.000  H
  H243     1.0000 0.22960  0.37810  0.77780  Biso   1.000  H
  H244     1.0000 0.25590  0.31470  0.83940  Biso   1.000  H
  H245     1.0000 0.40000  0.22120  0.82080  Biso   1.000  H
  H246     1.0000 0.40010  0.17740  0.74620  Biso   1.000  H
  H247     1.0000 0.21300  0.17260  0.64010  Biso   1.000  H
  H248     1.0000 0.30020  0.13260  0.67050  Biso   1.000  H
  H249     1.0000 0.24670  0.13060  0.19350  Biso   1.000  H
  H250     1.0000 0.27820  0.13900  0.27170  Biso   1.000  H
  H251     1.0000 0.30140  0.08820  0.80100  Biso   1.000  H
  H252     1.0000 0.26570  0.16450  0.84890  Biso   1.000  H
  O29      1.0000 0.39210  0.42420  0.19243  Biso   1.000  O
  O30      1.0000 0.39360  0.42210  0.30970  Biso   1.000  O
  O31      1.0000 0.07610  0.10860  0.30865  Biso   1.000  O
  O32      1.0000 0.07720  0.10630  0.19289  Biso   1.000  O
  C169     1.0000 0.36400  0.39910  0.25070  Biso   1.000  C
  C170     1.0000 0.10200  0.13630  0.24930  Biso   1.000  C
  C171     1.0000 0.58220  0.53220  0.03840  Biso   1.000  C
  H253     1.0000 0.63050  0.50000  0.05900  Biso   1.000  H
  H254     1.0000 0.58920  0.59350  0.05060  Biso   1.000  H
  C172     1.0000 0.42910  0.56080  0.04060  Biso   1.000  C
  H255     1.0000 0.43430  0.61760  0.06310  Biso   1.000  H
  H256     1.0000 0.62820  0.46310  0.05170  Biso   1.000  H
  C173     1.0000 0.47770  0.41490  0.04070  Biso   1.000  C
  H257     1.0000 0.57680  0.60460  0.06170  Biso   1.000  H
  H258     1.0000 0.47690  0.62670  0.05320  Biso   1.000  H
  C174     1.0000 0.52290  0.41390  0.45890  Biso   1.000  C
  H259     1.0000 0.42260  0.60590  0.43800  Biso   1.000  H
  H260     1.0000 0.52260  0.62790  0.44710  Biso   1.000  H
  C175     1.0000 0.57190  0.55960  0.45890  Biso   1.000  C
  H261     1.0000 0.56880  0.61610  0.43570  Biso   1.000  H
  H262     1.0000 0.37120  0.46600  0.44920  Biso   1.000  H
  C176     1.0000 0.41980  0.53310  0.45970  Biso   1.000  C
  H263     1.0000 0.37110  0.50230  0.43830  Biso   1.000  H
  H264     1.0000 0.41440  0.59470  0.44770  Biso   1.000  H
  C177     1.0000 0.28840  0.33240  0.24880  Biso   1.000  C
  C178     1.0000 0.21960  0.35050  0.30470  Biso   1.000  C
  H265     1.0000 0.19590  0.40890  0.29840  Biso   1.000  H
  H266     1.0000 0.24640  0.34760  0.35070  Biso   1.000  H
  C179     1.0000 0.33070  0.24190  0.26530  Biso   1.000  C
  H267     1.0000 0.36930  0.22460  0.22730  Biso   1.000  H
  H268     1.0000 0.36500  0.24550  0.30790  Biso   1.000  H
  C180     1.0000 0.24730  0.32670  0.17690  Biso   1.000  C
  H269     1.0000 0.29210  0.31640  0.14180  Biso   1.000  H
  H270     1.0000 0.21760  0.38120  0.16580  Biso   1.000  H
  C181     1.0000 0.17020  0.20760  0.24950  Biso   1.000  C
  C182     1.0000 0.14420  0.28180  0.29980  Biso   1.000  C
  H271     1.0000 0.13240  0.25780  0.34580  Biso   1.000  H
  H272     1.0000 0.09130  0.31000  0.28300  Biso   1.000  H
  C183     1.0000 0.25690  0.17430  0.27400  Biso   1.000  C
  H273     1.0000 0.27180  0.12190  0.24780  Biso   1.000  H
  H274     1.0000 0.25250  0.15820  0.32300  Biso   1.000  H
  C184     1.0000 0.18110  0.25020  0.17760  Biso   1.000  C
  H275     1.0000 0.12460  0.27170  0.16200  Biso   1.000  H
  H276     1.0000 0.20030  0.20600  0.14440  Biso   1.000  H
  C185     1.0000 0.67090  0.70850  0.74890  Biso   1.000  C
  C186     1.0000 0.69940  0.72900  0.67420  Biso   1.000  C
  C187     1.0000 0.75440  0.68170  0.78930  Biso   1.000  C
  C188     1.0000 0.63590  0.79200  0.78020  Biso   1.000  C
  C189     1.0000 0.74360  0.82200  0.67700  Biso   1.000  C
  C190     1.0000 0.74530  0.82890  0.23210  Biso   1.000  C
  C191     1.0000 0.71480  0.85030  0.80200  Biso   1.000  C
  C192     1.0000 0.78700  0.83170  0.74850  Biso   1.000  C
  H277     1.0000 0.64920  0.72950  0.64300  Biso   1.000  H
  H278     1.0000 0.74080  0.68540  0.65760  Biso   1.000  H
  H279     1.0000 0.77040  0.62190  0.77780  Biso   1.000  H
  H280     1.0000 0.74410  0.68530  0.83940  Biso   1.000  H
  H281     1.0000 0.60000  0.77880  0.82080  Biso   1.000  H
  H282     1.0000 0.59990  0.82260  0.74620  Biso   1.000  H
  H283     1.0000 0.78700  0.82740  0.64010  Biso   1.000  H
  H284     1.0000 0.69980  0.86740  0.67050  Biso   1.000  H
  H285     1.0000 0.75330  0.86940  0.19350  Biso   1.000  H
  H286     1.0000 0.72180  0.86100  0.27170  Biso   1.000  H
  H287     1.0000 0.69860  0.91180  0.80100  Biso   1.000  H
  H288     1.0000 0.73430  0.83550  0.84890  Biso   1.000  H
  Co1      1.0000 0.50000  0.50000  0.82118  Biso   1.000  Co
  Co2      1.0000 0.50000  0.50000  0.67873  Biso   1.000  Co
  N1       1.0000 0.50000  0.50000  0.93270  Biso   1.000  N
  N2       1.0000 0.50000  0.50000  0.56850  Biso   1.000  N
  Co3      1.0000 0.00000  0.00000  0.32118  Biso   1.000  Co
  Co4      1.0000 0.00000  0.00000  0.17873  Biso   1.000  Co
  N3       1.0000 0.00000  0.00000  0.43270  Biso   1.000  N
  N4       1.0000 0.00000  0.00000  0.06850  Biso   1.000  N
  Co5      1.0000 0.00000  0.00000  0.67882  Biso   1.000  Co
  Co6      1.0000 0.00000  0.00000  0.82127  Biso   1.000  Co
  N5       1.0000 0.00000  0.00000  0.56730  Biso   1.000  N
  N6       1.0000 0.00000  0.00000  0.93150  Biso   1.000  N
  Co7      1.0000 0.50000  0.50000  0.17882  Biso   1.000  Co
  Co8      1.0000 0.50000  0.50000  0.32127  Biso   1.000  Co
  N7       1.0000 0.50000  0.50000  0.06730  Biso   1.000  N
  N8       1.0000 0.50000  0.50000  0.43150  Biso   1.000  N
