data_image0
_cell_length_a       15.085
_cell_length_b       15.085
_cell_length_c       18.906
_cell_angle_alpha    90
_cell_angle_beta     90
_cell_angle_gamma    90

_symmetry_space_group_name_H-M    "P 1"
_symmetry_int_tables_number       1

loop_
  _symmetry_equiv_pos_as_xyz
  'x, y, z'

loop_
  _atom_site_label
  _atom_site_occupancy
  _atom_site_fract_x
  _atom_site_fract_y
  _atom_site_fract_z
  _atom_site_thermal_displace_type
  _atom_site_B_iso_or_equiv
  _atom_site_type_symbol
  O1       1.0000 0.62141  0.55569  0.94102  Biso   1.000  O
  C1       1.0000 0.76470  0.67090  0.93632  Biso   1.000  C
  H1       1.0000 0.74390  0.64750  0.89270  Biso   1.000  H
  C2       1.0000 0.55800  0.57200  0.79210  Biso   1.000  C
  H2       1.0000 0.57900  0.60100  0.81300  Biso   1.000  H
  H3       1.0000 0.51000  0.63100  0.81600  Biso   1.000  H
  C3       1.0000 0.08500  0.97800  0.29260  Biso   1.000  C
  C4       1.0000 0.08300  0.04900  0.28950  Biso   1.000  C
  C5       1.0000 0.09360  0.01500  0.28820  Biso   1.000  C
  O2       1.0000 0.12141  0.05569  0.44102  Biso   1.000  O
  C6       1.0000 0.26470  0.17090  0.43632  Biso   1.000  C
  H4       1.0000 0.24390  0.14750  0.39270  Biso   1.000  H
  C7       1.0000 0.05800  0.07200  0.29210  Biso   1.000  C
  H5       1.0000 0.07900  0.10100  0.31300  Biso   1.000  H
  H6       1.0000 0.01000  0.13100  0.31600  Biso   1.000  H
  C8       1.0000 0.58500  0.47800  0.79260  Biso   1.000  C
  C9       1.0000 0.58300  0.54900  0.78950  Biso   1.000  C
  C10      1.0000 0.59360  0.51500  0.78820  Biso   1.000  C
  O3       1.0000 0.37859  0.44431  0.94102  Biso   1.000  O
  C11      1.0000 0.23530  0.32910  0.93632  Biso   1.000  C
  H7       1.0000 0.25610  0.35250  0.89270  Biso   1.000  H
  C12      1.0000 0.44200  0.42800  0.79210  Biso   1.000  C
  H8       1.0000 0.42100  0.39900  0.81300  Biso   1.000  H
  H9       1.0000 0.49000  0.36900  0.81600  Biso   1.000  H
  C13      1.0000 0.91500  0.02200  0.29260  Biso   1.000  C
  C14      1.0000 0.91700  0.95100  0.28950  Biso   1.000  C
  C15      1.0000 0.90640  0.98500  0.28820  Biso   1.000  C
  O4       1.0000 0.87859  0.94431  0.44102  Biso   1.000  O
  C16      1.0000 0.73530  0.82910  0.43632  Biso   1.000  C
  H10      1.0000 0.75610  0.85250  0.39270  Biso   1.000  H
  C17      1.0000 0.94200  0.92800  0.29210  Biso   1.000  C
  H11      1.0000 0.92100  0.89900  0.31300  Biso   1.000  H
  H12      1.0000 0.99000  0.86900  0.31600  Biso   1.000  H
  C18      1.0000 0.41500  0.52200  0.79260  Biso   1.000  C
  C19      1.0000 0.41700  0.45100  0.78950  Biso   1.000  C
  C20      1.0000 0.40640  0.48500  0.78820  Biso   1.000  C
  O5       1.0000 0.44431  0.62141  0.94102  Biso   1.000  O
  C21      1.0000 0.32910  0.76470  0.93632  Biso   1.000  C
  H13      1.0000 0.35250  0.74390  0.89270  Biso   1.000  H
  C22      1.0000 0.42800  0.55800  0.79210  Biso   1.000  C
  H14      1.0000 0.39900  0.57900  0.81300  Biso   1.000  H
  H15      1.0000 0.36900  0.51000  0.81600  Biso   1.000  H
  C23      1.0000 0.02200  0.08500  0.29260  Biso   1.000  C
  C24      1.0000 0.95100  0.08300  0.28950  Biso   1.000  C
  C25      1.0000 0.98500  0.09360  0.28820  Biso   1.000  C
  O6       1.0000 0.94431  0.12141  0.44102  Biso   1.000  O
  C26      1.0000 0.82910  0.26470  0.43632  Biso   1.000  C
  H16      1.0000 0.85250  0.24390  0.39270  Biso   1.000  H
  C27      1.0000 0.92800  0.05800  0.29210  Biso   1.000  C
  H17      1.0000 0.89900  0.07900  0.31300  Biso   1.000  H
  H18      1.0000 0.86900  0.01000  0.31600  Biso   1.000  H
  C28      1.0000 0.52200  0.58500  0.79260  Biso   1.000  C
  C29      1.0000 0.45100  0.58300  0.78950  Biso   1.000  C
  C30      1.0000 0.48500  0.59360  0.78820  Biso   1.000  C
  O7       1.0000 0.55569  0.37859  0.94102  Biso   1.000  O
  C31      1.0000 0.67090  0.23530  0.93632  Biso   1.000  C
  H19      1.0000 0.64750  0.25610  0.89270  Biso   1.000  H
  C32      1.0000 0.57200  0.44200  0.79210  Biso   1.000  C
  H20      1.0000 0.60100  0.42100  0.81300  Biso   1.000  H
  H21      1.0000 0.63100  0.49000  0.81600  Biso   1.000  H
  C33      1.0000 0.97800  0.91500  0.29260  Biso   1.000  C
  C34      1.0000 0.04900  0.91700  0.28950  Biso   1.000  C
  C35      1.0000 0.01500  0.90640  0.28820  Biso   1.000  C
  O8       1.0000 0.05569  0.87859  0.44102  Biso   1.000  O
  C36      1.0000 0.17090  0.73530  0.43632  Biso   1.000  C
  H22      1.0000 0.14750  0.75610  0.39270  Biso   1.000  H
  C37      1.0000 0.07200  0.94200  0.29210  Biso   1.000  C
  H23      1.0000 0.10100  0.92100  0.31300  Biso   1.000  H
  H24      1.0000 0.13100  0.99000  0.31600  Biso   1.000  H
  C38      1.0000 0.47800  0.41500  0.79260  Biso   1.000  C
  C39      1.0000 0.54900  0.41700  0.78950  Biso   1.000  C
  C40      1.0000 0.51500  0.40640  0.78820  Biso   1.000  C
  O9       1.0000 0.37859  0.55569  0.55898  Biso   1.000  O
  C41      1.0000 0.23530  0.67090  0.56368  Biso   1.000  C
  H25      1.0000 0.25610  0.64750  0.60730  Biso   1.000  H
  C42      1.0000 0.44200  0.57200  0.70790  Biso   1.000  C
  H26      1.0000 0.42100  0.60100  0.68700  Biso   1.000  H
  H27      1.0000 0.49000  0.63100  0.68400  Biso   1.000  H
  C43      1.0000 0.91500  0.97800  0.20740  Biso   1.000  C
  C44      1.0000 0.91700  0.04900  0.21050  Biso   1.000  C
  C45      1.0000 0.90640  0.01500  0.21180  Biso   1.000  C
  O10      1.0000 0.87859  0.05569  0.05898  Biso   1.000  O
  C46      1.0000 0.73530  0.17090  0.06368  Biso   1.000  C
  H28      1.0000 0.75610  0.14750  0.10730  Biso   1.000  H
  C47      1.0000 0.94200  0.07200  0.20790  Biso   1.000  C
  H29      1.0000 0.92100  0.10100  0.18700  Biso   1.000  H
  H30      1.0000 0.99000  0.13100  0.18400  Biso   1.000  H
  C48      1.0000 0.41500  0.47800  0.70740  Biso   1.000  C
  C49      1.0000 0.41700  0.54900  0.71050  Biso   1.000  C
  C50      1.0000 0.40640  0.51500  0.71180  Biso   1.000  C
  O11      1.0000 0.62141  0.44431  0.55898  Biso   1.000  O
  C51      1.0000 0.76470  0.32910  0.56368  Biso   1.000  C
  H31      1.0000 0.74390  0.35250  0.60730  Biso   1.000  H
  C52      1.0000 0.55800  0.42800  0.70790  Biso   1.000  C
  H32      1.0000 0.57900  0.39900  0.68700  Biso   1.000  H
  H33      1.0000 0.51000  0.36900  0.68400  Biso   1.000  H
  C53      1.0000 0.08500  0.02200  0.20740  Biso   1.000  C
  C54      1.0000 0.08300  0.95100  0.21050  Biso   1.000  C
  C55      1.0000 0.09360  0.98500  0.21180  Biso   1.000  C
  O12      1.0000 0.12141  0.94431  0.05898  Biso   1.000  O
  C56      1.0000 0.26470  0.82910  0.06368  Biso   1.000  C
  H34      1.0000 0.24390  0.85250  0.10730  Biso   1.000  H
  C57      1.0000 0.05800  0.92800  0.20790  Biso   1.000  C
  H35      1.0000 0.07900  0.89900  0.18700  Biso   1.000  H
  H36      1.0000 0.01000  0.86900  0.18400  Biso   1.000  H
  C58      1.0000 0.58500  0.52200  0.70740  Biso   1.000  C
  C59      1.0000 0.58300  0.45100  0.71050  Biso   1.000  C
  C60      1.0000 0.59360  0.48500  0.71180  Biso   1.000  C
  O13      1.0000 0.55569  0.62141  0.55898  Biso   1.000  O
  C61      1.0000 0.67090  0.76470  0.56368  Biso   1.000  C
  H37      1.0000 0.64750  0.74390  0.60730  Biso   1.000  H
  C62      1.0000 0.57200  0.55800  0.70790  Biso   1.000  C
  H38      1.0000 0.60100  0.57900  0.68700  Biso   1.000  H
  H39      1.0000 0.63100  0.51000  0.68400  Biso   1.000  H
  C63      1.0000 0.97800  0.08500  0.20740  Biso   1.000  C
  C64      1.0000 0.04900  0.08300  0.21050  Biso   1.000  C
  C65      1.0000 0.01500  0.09360  0.21180  Biso   1.000  C
  O14      1.0000 0.05569  0.12141  0.05898  Biso   1.000  O
  C66      1.0000 0.17090  0.26470  0.06368  Biso   1.000  C
  H40      1.0000 0.14750  0.24390  0.10730  Biso   1.000  H
  C67      1.0000 0.07200  0.05800  0.20790  Biso   1.000  C
  H41      1.0000 0.10100  0.07900  0.18700  Biso   1.000  H
  H42      1.0000 0.13100  0.01000  0.18400  Biso   1.000  H
  C68      1.0000 0.47800  0.58500  0.70740  Biso   1.000  C
  C69      1.0000 0.54900  0.58300  0.71050  Biso   1.000  C
  C70      1.0000 0.51500  0.59360  0.71180  Biso   1.000  C
  O15      1.0000 0.44431  0.37859  0.55898  Biso   1.000  O
  C71      1.0000 0.32910  0.23530  0.56368  Biso   1.000  C
  H43      1.0000 0.35250  0.25610  0.60730  Biso   1.000  H
  C72      1.0000 0.42800  0.44200  0.70790  Biso   1.000  C
  H44      1.0000 0.39900  0.42100  0.68700  Biso   1.000  H
  H45      1.0000 0.36900  0.49000  0.68400  Biso   1.000  H
  C73      1.0000 0.02200  0.91500  0.20740  Biso   1.000  C
  C74      1.0000 0.95100  0.91700  0.21050  Biso   1.000  C
  C75      1.0000 0.98500  0.90640  0.21180  Biso   1.000  C
  O16      1.0000 0.94431  0.87859  0.05898  Biso   1.000  O
  C76      1.0000 0.82910  0.73530  0.06368  Biso   1.000  C
  H46      1.0000 0.85250  0.75610  0.10730  Biso   1.000  H
  C77      1.0000 0.92800  0.94200  0.20790  Biso   1.000  C
  H47      1.0000 0.89900  0.92100  0.18700  Biso   1.000  H
  H48      1.0000 0.86900  0.99000  0.18400  Biso   1.000  H
  C78      1.0000 0.52200  0.41500  0.70740  Biso   1.000  C
  C79      1.0000 0.45100  0.41700  0.71050  Biso   1.000  C
  C80      1.0000 0.48500  0.40640  0.71180  Biso   1.000  C
  O17      1.0000 0.37859  0.44431  0.05898  Biso   1.000  O
  C81      1.0000 0.23530  0.32910  0.06368  Biso   1.000  C
  H49      1.0000 0.25610  0.35250  0.10730  Biso   1.000  H
  C82      1.0000 0.44200  0.42800  0.20790  Biso   1.000  C
  H50      1.0000 0.42100  0.39900  0.18700  Biso   1.000  H
  H51      1.0000 0.49000  0.36900  0.18400  Biso   1.000  H
  C83      1.0000 0.91500  0.02200  0.70740  Biso   1.000  C
  C84      1.0000 0.91700  0.95100  0.71050  Biso   1.000  C
  C85      1.0000 0.90640  0.98500  0.71180  Biso   1.000  C
  O18      1.0000 0.87859  0.94431  0.55898  Biso   1.000  O
  C86      1.0000 0.73530  0.82910  0.56368  Biso   1.000  C
  H52      1.0000 0.75610  0.85250  0.60730  Biso   1.000  H
  C87      1.0000 0.94200  0.92800  0.70790  Biso   1.000  C
  H53      1.0000 0.92100  0.89900  0.68700  Biso   1.000  H
  H54      1.0000 0.99000  0.86900  0.68400  Biso   1.000  H
  C88      1.0000 0.41500  0.52200  0.20740  Biso   1.000  C
  C89      1.0000 0.41700  0.45100  0.21050  Biso   1.000  C
  C90      1.0000 0.40640  0.48500  0.21180  Biso   1.000  C
  O19      1.0000 0.62141  0.55569  0.05898  Biso   1.000  O
  C91      1.0000 0.76470  0.67090  0.06368  Biso   1.000  C
  H55      1.0000 0.74390  0.64750  0.10730  Biso   1.000  H
  C92      1.0000 0.55800  0.57200  0.20790  Biso   1.000  C
  H56      1.0000 0.57900  0.60100  0.18700  Biso   1.000  H
  H57      1.0000 0.51000  0.63100  0.18400  Biso   1.000  H
  C93      1.0000 0.08500  0.97800  0.70740  Biso   1.000  C
  C94      1.0000 0.08300  0.04900  0.71050  Biso   1.000  C
  C95      1.0000 0.09360  0.01500  0.71180  Biso   1.000  C
  O20      1.0000 0.12141  0.05569  0.55898  Biso   1.000  O
  C96      1.0000 0.26470  0.17090  0.56368  Biso   1.000  C
  H58      1.0000 0.24390  0.14750  0.60730  Biso   1.000  H
  C97      1.0000 0.05800  0.07200  0.70790  Biso   1.000  C
  H59      1.0000 0.07900  0.10100  0.68700  Biso   1.000  H
  H60      1.0000 0.01000  0.13100  0.68400  Biso   1.000  H
  C98      1.0000 0.58500  0.47800  0.20740  Biso   1.000  C
  C99      1.0000 0.58300  0.54900  0.21050  Biso   1.000  C
  C100     1.0000 0.59360  0.51500  0.21180  Biso   1.000  C
  O21      1.0000 0.55569  0.37859  0.05898  Biso   1.000  O
  C101     1.0000 0.67090  0.23530  0.06368  Biso   1.000  C
  H61      1.0000 0.64750  0.25610  0.10730  Biso   1.000  H
  C102     1.0000 0.57200  0.44200  0.20790  Biso   1.000  C
  H62      1.0000 0.60100  0.42100  0.18700  Biso   1.000  H
  H63      1.0000 0.63100  0.49000  0.18400  Biso   1.000  H
  C103     1.0000 0.97800  0.91500  0.70740  Biso   1.000  C
  C104     1.0000 0.04900  0.91700  0.71050  Biso   1.000  C
  C105     1.0000 0.01500  0.90640  0.71180  Biso   1.000  C
  O22      1.0000 0.05569  0.87859  0.55898  Biso   1.000  O
  C106     1.0000 0.17090  0.73530  0.56368  Biso   1.000  C
  H64      1.0000 0.14750  0.75610  0.60730  Biso   1.000  H
  C107     1.0000 0.07200  0.94200  0.70790  Biso   1.000  C
  H65      1.0000 0.10100  0.92100  0.68700  Biso   1.000  H
  H66      1.0000 0.13100  0.99000  0.68400  Biso   1.000  H
  C108     1.0000 0.47800  0.41500  0.20740  Biso   1.000  C
  C109     1.0000 0.54900  0.41700  0.21050  Biso   1.000  C
  C110     1.0000 0.51500  0.40640  0.21180  Biso   1.000  C
  O23      1.0000 0.44431  0.62141  0.05898  Biso   1.000  O
  C111     1.0000 0.32910  0.76470  0.06368  Biso   1.000  C
  H67      1.0000 0.35250  0.74390  0.10730  Biso   1.000  H
  C112     1.0000 0.42800  0.55800  0.20790  Biso   1.000  C
  H68      1.0000 0.39900  0.57900  0.18700  Biso   1.000  H
  H69      1.0000 0.36900  0.51000  0.18400  Biso   1.000  H
  C113     1.0000 0.02200  0.08500  0.70740  Biso   1.000  C
  C114     1.0000 0.95100  0.08300  0.71050  Biso   1.000  C
  C115     1.0000 0.98500  0.09360  0.71180  Biso   1.000  C
  O24      1.0000 0.94431  0.12141  0.55898  Biso   1.000  O
  C116     1.0000 0.82910  0.26470  0.56368  Biso   1.000  C
  H70      1.0000 0.85250  0.24390  0.60730  Biso   1.000  H
  C117     1.0000 0.92800  0.05800  0.70790  Biso   1.000  C
  H71      1.0000 0.89900  0.07900  0.68700  Biso   1.000  H
  H72      1.0000 0.86900  0.01000  0.68400  Biso   1.000  H
  C118     1.0000 0.52200  0.58500  0.20740  Biso   1.000  C
  C119     1.0000 0.45100  0.58300  0.21050  Biso   1.000  C
  C120     1.0000 0.48500  0.59360  0.21180  Biso   1.000  C
  O25      1.0000 0.62141  0.44431  0.44102  Biso   1.000  O
  C121     1.0000 0.76470  0.32910  0.43632  Biso   1.000  C
  H73      1.0000 0.74390  0.35250  0.39270  Biso   1.000  H
  C122     1.0000 0.55800  0.42800  0.29210  Biso   1.000  C
  H74      1.0000 0.57900  0.39900  0.31300  Biso   1.000  H
  H75      1.0000 0.51000  0.36900  0.31600  Biso   1.000  H
  C123     1.0000 0.08500  0.02200  0.79260  Biso   1.000  C
  C124     1.0000 0.08300  0.95100  0.78950  Biso   1.000  C
  C125     1.0000 0.09360  0.98500  0.78820  Biso   1.000  C
  O26      1.0000 0.12141  0.94431  0.94102  Biso   1.000  O
  C126     1.0000 0.26470  0.82910  0.93632  Biso   1.000  C
  H76      1.0000 0.24390  0.85250  0.89270  Biso   1.000  H
  C127     1.0000 0.05800  0.92800  0.79210  Biso   1.000  C
  H77      1.0000 0.07900  0.89900  0.81300  Biso   1.000  H
  H78      1.0000 0.01000  0.86900  0.81600  Biso   1.000  H
  C128     1.0000 0.58500  0.52200  0.29260  Biso   1.000  C
  C129     1.0000 0.58300  0.45100  0.28950  Biso   1.000  C
  C130     1.0000 0.59360  0.48500  0.28820  Biso   1.000  C
  O27      1.0000 0.37859  0.55569  0.44102  Biso   1.000  O
  C131     1.0000 0.23530  0.67090  0.43632  Biso   1.000  C
  H79      1.0000 0.25610  0.64750  0.39270  Biso   1.000  H
  C132     1.0000 0.44200  0.57200  0.29210  Biso   1.000  C
  H80      1.0000 0.42100  0.60100  0.31300  Biso   1.000  H
  H81      1.0000 0.49000  0.63100  0.31600  Biso   1.000  H
  C133     1.0000 0.91500  0.97800  0.79260  Biso   1.000  C
  C134     1.0000 0.91700  0.04900  0.78950  Biso   1.000  C
  C135     1.0000 0.90640  0.01500  0.78820  Biso   1.000  C
  O28      1.0000 0.87859  0.05569  0.94102  Biso   1.000  O
  C136     1.0000 0.73530  0.17090  0.93632  Biso   1.000  C
  H82      1.0000 0.75610  0.14750  0.89270  Biso   1.000  H
  C137     1.0000 0.94200  0.07200  0.79210  Biso   1.000  C
  H83      1.0000 0.92100  0.10100  0.81300  Biso   1.000  H
  H84      1.0000 0.99000  0.13100  0.81600  Biso   1.000  H
  C138     1.0000 0.41500  0.47800  0.29260  Biso   1.000  C
  C139     1.0000 0.41700  0.54900  0.28950  Biso   1.000  C
  C140     1.0000 0.40640  0.51500  0.28820  Biso   1.000  C
  O29      1.0000 0.44431  0.37859  0.44102  Biso   1.000  O
  C141     1.0000 0.32910  0.23530  0.43632  Biso   1.000  C
  H85      1.0000 0.35250  0.25610  0.39270  Biso   1.000  H
  C142     1.0000 0.42800  0.44200  0.29210  Biso   1.000  C
  H86      1.0000 0.39900  0.42100  0.31300  Biso   1.000  H
  H87      1.0000 0.36900  0.49000  0.31600  Biso   1.000  H
  C143     1.0000 0.02200  0.91500  0.79260  Biso   1.000  C
  C144     1.0000 0.95100  0.91700  0.78950  Biso   1.000  C
  C145     1.0000 0.98500  0.90640  0.78820  Biso   1.000  C
  O30      1.0000 0.94431  0.87859  0.94102  Biso   1.000  O
  C146     1.0000 0.82910  0.73530  0.93632  Biso   1.000  C
  H88      1.0000 0.85250  0.75610  0.89270  Biso   1.000  H
  C147     1.0000 0.92800  0.94200  0.79210  Biso   1.000  C
  H89      1.0000 0.89900  0.92100  0.81300  Biso   1.000  H
  H90      1.0000 0.86900  0.99000  0.81600  Biso   1.000  H
  C148     1.0000 0.52200  0.41500  0.29260  Biso   1.000  C
  C149     1.0000 0.45100  0.41700  0.28950  Biso   1.000  C
  C150     1.0000 0.48500  0.40640  0.28820  Biso   1.000  C
  O31      1.0000 0.55569  0.62141  0.44102  Biso   1.000  O
  C151     1.0000 0.67090  0.76470  0.43632  Biso   1.000  C
  H91      1.0000 0.64750  0.74390  0.39270  Biso   1.000  H
  C152     1.0000 0.57200  0.55800  0.29210  Biso   1.000  C
  H92      1.0000 0.60100  0.57900  0.31300  Biso   1.000  H
  H93      1.0000 0.63100  0.51000  0.31600  Biso   1.000  H
  C153     1.0000 0.97800  0.08500  0.79260  Biso   1.000  C
  C154     1.0000 0.04900  0.08300  0.78950  Biso   1.000  C
  C155     1.0000 0.01500  0.09360  0.78820  Biso   1.000  C
  O32      1.0000 0.05569  0.12141  0.94102  Biso   1.000  O
  C156     1.0000 0.17090  0.26470  0.93632  Biso   1.000  C
  H94      1.0000 0.14750  0.24390  0.89270  Biso   1.000  H
  C157     1.0000 0.07200  0.05800  0.79210  Biso   1.000  C
  H95      1.0000 0.10100  0.07900  0.81300  Biso   1.000  H
  H96      1.0000 0.13100  0.01000  0.81600  Biso   1.000  H
  C158     1.0000 0.47800  0.58500  0.29260  Biso   1.000  C
  C159     1.0000 0.54900  0.58300  0.28950  Biso   1.000  C
  C160     1.0000 0.51500  0.59360  0.28820  Biso   1.000  C
  Co1      1.0000 0.50000  0.50000  0.92903  Biso   1.000  Co
  N1       1.0000 0.50000  0.50000  0.81840  Biso   1.000  N
  Co2      1.0000 0.00000  0.00000  0.42903  Biso   1.000  Co
  N2       1.0000 0.00000  0.00000  0.31840  Biso   1.000  N
  Co3      1.0000 0.50000  0.50000  0.57097  Biso   1.000  Co
  N3       1.0000 0.50000  0.50000  0.68160  Biso   1.000  N
  Co4      1.0000 0.00000  0.00000  0.07097  Biso   1.000  Co
  N4       1.0000 0.00000  0.00000  0.18160  Biso   1.000  N
  Co5      1.0000 0.50000  0.50000  0.07097  Biso   1.000  Co
  N5       1.0000 0.50000  0.50000  0.18160  Biso   1.000  N
  Co6      1.0000 0.00000  0.00000  0.57097  Biso   1.000  Co
  N6       1.0000 0.00000  0.00000  0.68160  Biso   1.000  N
  Co7      1.0000 0.50000  0.50000  0.42903  Biso   1.000  Co
  N7       1.0000 0.50000  0.50000  0.31840  Biso   1.000  N
  Co8      1.0000 0.00000  0.00000  0.92903  Biso   1.000  Co
  N8       1.0000 0.00000  0.00000  0.81840  Biso   1.000  N
  C161     1.0000 0.65270  0.57840  0.00000  Biso   1.000  C
  C162     1.0000 0.72980  0.63950  0.00000  Biso   1.000  C
  C163     1.0000 0.15270  0.07840  0.50000  Biso   1.000  C
  C164     1.0000 0.22980  0.13950  0.50000  Biso   1.000  C
  C165     1.0000 0.34730  0.42160  0.00000  Biso   1.000  C
  C166     1.0000 0.27020  0.36050  0.00000  Biso   1.000  C
  C167     1.0000 0.84730  0.92160  0.50000  Biso   1.000  C
  C168     1.0000 0.77020  0.86050  0.50000  Biso   1.000  C
  C169     1.0000 0.42160  0.65270  0.00000  Biso   1.000  C
  C170     1.0000 0.36050  0.72980  0.00000  Biso   1.000  C
  C171     1.0000 0.92160  0.15270  0.50000  Biso   1.000  C
  C172     1.0000 0.86050  0.22980  0.50000  Biso   1.000  C
  C173     1.0000 0.57840  0.34730  0.00000  Biso   1.000  C
  C174     1.0000 0.63950  0.27020  0.00000  Biso   1.000  C
  C175     1.0000 0.07840  0.84730  0.50000  Biso   1.000  C
  C176     1.0000 0.13950  0.77020  0.50000  Biso   1.000  C
  C177     1.0000 0.34730  0.57840  0.50000  Biso   1.000  C
  C178     1.0000 0.27020  0.63950  0.50000  Biso   1.000  C
  C179     1.0000 0.84730  0.07840  0.00000  Biso   1.000  C
  C180     1.0000 0.77020  0.13950  0.00000  Biso   1.000  C
  C181     1.0000 0.65270  0.42160  0.50000  Biso   1.000  C
  C182     1.0000 0.72980  0.36050  0.50000  Biso   1.000  C
  C183     1.0000 0.15270  0.92160  0.00000  Biso   1.000  C
  C184     1.0000 0.22980  0.86050  0.00000  Biso   1.000  C
  C185     1.0000 0.57840  0.65270  0.50000  Biso   1.000  C
  C186     1.0000 0.63950  0.72980  0.50000  Biso   1.000  C
  C187     1.0000 0.07840  0.15270  0.00000  Biso   1.000  C
  C188     1.0000 0.13950  0.22980  0.00000  Biso   1.000  C
  C189     1.0000 0.42160  0.34730  0.50000  Biso   1.000  C
  C190     1.0000 0.36050  0.27020  0.50000  Biso   1.000  C
  C191     1.0000 0.92160  0.84730  0.00000  Biso   1.000  C
  C192     1.0000 0.86050  0.77020  0.00000  Biso   1.000  C
