data_image0
_cell_length_a       30.095
_cell_length_b       30.095
_cell_length_c       6.7707
_cell_angle_alpha    90
_cell_angle_beta     90
_cell_angle_gamma    120

_symmetry_space_group_name_H-M    "P 1"
_symmetry_int_tables_number       1

loop_
  _symmetry_equiv_pos_as_xyz
  'x, y, z'

loop_
  _atom_site_label
  _atom_site_occupancy
  _atom_site_fract_x
  _atom_site_fract_y
  _atom_site_fract_z
  _atom_site_thermal_displace_type
  _atom_site_B_iso_or_equiv
  _atom_site_type_symbol
  C1       1.0000 0.20062  0.29965  0.29880  Biso   1.000  C
  Zn1      1.0000 0.18109  0.21764  0.57502  Biso   1.000  Zn
  Zn2      1.0000 0.22094  0.22715  0.07339  Biso   1.000  Zn
  O1       1.0000 0.18156  0.18628  0.84680  Biso   1.000  O
  O2       1.0000 0.19858  0.25167  0.29880  Biso   1.000  O
  N1       1.0000 0.18983  0.16001  0.45800  Biso   1.000  N
  N2       1.0000 0.20517  0.16068  0.27010  Biso   1.000  N
  N3       1.0000 0.21440  0.12346  0.24040  Biso   1.000  N
  N4       1.0000 0.20446  0.09693  0.41220  Biso   1.000  N
  N5       1.0000 0.28440  0.36863  0.73860  Biso   1.000  N
  N6       1.0000 0.27619  0.34376  0.91220  Biso   1.000  N
  N7       1.0000 0.24402  0.29525  0.88120  Biso   1.000  N
  N8       1.0000 0.23050  0.28784  0.68960  Biso   1.000  N
  C2       1.0000 0.18969  0.12026  0.54290  Biso   1.000  C
  C3       1.0000 0.17548  0.10506  0.75480  Biso   1.000  C
  H1       1.0000 0.20620  0.11310  0.82910  Biso   1.000  H
  H2       1.0000 0.15240  0.06830  0.76210  Biso   1.000  H
  C4       1.0000 0.14962  0.13253  0.84800  Biso   1.000  C
  H3       1.0000 0.11830  0.12350  0.77630  Biso   1.000  H
  H4       1.0000 0.14030  0.12090  0.98330  Biso   1.000  H
  C5       1.0000 0.25605  0.33389  0.60460  Biso   1.000  C
  C6       1.0000 0.25111  0.34190  0.38880  Biso   1.000  C
  H5       1.0000 0.27970  0.34290  0.31850  Biso   1.000  H
  H6       1.0000 0.25310  0.37480  0.37090  Biso   1.000  H
  C7       1.0000 0.17790  0.29810  0.36700  Biso   1.000  C
  C8       1.0000 0.86729  0.63298  0.63213  Biso   1.000  C
  Zn3      1.0000 0.84775  0.55097  0.90835  Biso   1.000  Zn
  Zn4      1.0000 0.88761  0.56049  0.40672  Biso   1.000  Zn
  O3       1.0000 0.84823  0.51961  0.18013  Biso   1.000  O
  O4       1.0000 0.86525  0.58500  0.63213  Biso   1.000  O
  N9       1.0000 0.85650  0.49334  0.79133  Biso   1.000  N
  N10      1.0000 0.87184  0.49401  0.60343  Biso   1.000  N
  N11      1.0000 0.88107  0.45679  0.57373  Biso   1.000  N
  N12      1.0000 0.87113  0.43026  0.74553  Biso   1.000  N
  N13      1.0000 0.95107  0.70196  0.07193  Biso   1.000  N
  N14      1.0000 0.94286  0.67709  0.24553  Biso   1.000  N
  N15      1.0000 0.91069  0.62858  0.21453  Biso   1.000  N
  N16      1.0000 0.89717  0.62117  0.02293  Biso   1.000  N
  C9       1.0000 0.85636  0.45359  0.87623  Biso   1.000  C
  C10      1.0000 0.84215  0.43839  0.08813  Biso   1.000  C
  H7       1.0000 0.87287  0.44643  0.16243  Biso   1.000  H
  H8       1.0000 0.81907  0.40163  0.09543  Biso   1.000  H
  C11      1.0000 0.81629  0.46586  0.18133  Biso   1.000  C
  H9       1.0000 0.78497  0.45683  0.10963  Biso   1.000  H
  H10      1.0000 0.80697  0.45423  0.31663  Biso   1.000  H
  C12      1.0000 0.92272  0.66722  0.93793  Biso   1.000  C
  C13      1.0000 0.91778  0.67523  0.72213  Biso   1.000  C
  H11      1.0000 0.94637  0.67623  0.65183  Biso   1.000  H
  H12      1.0000 0.91977  0.70813  0.70423  Biso   1.000  H
  C14      1.0000 0.84457  0.63143  0.70033  Biso   1.000  C
  C15      1.0000 0.53395  0.96632  0.96547  Biso   1.000  C
  Zn5      1.0000 0.51442  0.88430  0.24169  Biso   1.000  Zn
  Zn6      1.0000 0.55428  0.89382  0.74006  Biso   1.000  Zn
  O5       1.0000 0.51489  0.85295  0.51347  Biso   1.000  O
  O6       1.0000 0.53191  0.91834  0.96547  Biso   1.000  O
  N17      1.0000 0.52316  0.82668  0.12467  Biso   1.000  N
  N18      1.0000 0.53850  0.82735  0.93677  Biso   1.000  N
  N19      1.0000 0.54773  0.79013  0.90707  Biso   1.000  N
  N20      1.0000 0.53779  0.76360  0.07887  Biso   1.000  N
  N21      1.0000 0.61773  0.03530  0.40527  Biso   1.000  N
  N22      1.0000 0.60952  0.01043  0.57887  Biso   1.000  N
  N23      1.0000 0.57735  0.96192  0.54787  Biso   1.000  N
  N24      1.0000 0.56383  0.95451  0.35627  Biso   1.000  N
  C16      1.0000 0.52302  0.78693  0.20957  Biso   1.000  C
  C17      1.0000 0.50881  0.77173  0.42147  Biso   1.000  C
  H13      1.0000 0.53953  0.77977  0.49577  Biso   1.000  H
  H14      1.0000 0.48573  0.73497  0.42877  Biso   1.000  H
  C18      1.0000 0.48295  0.79920  0.51467  Biso   1.000  C
  H15      1.0000 0.45163  0.79017  0.44297  Biso   1.000  H
  H16      1.0000 0.47363  0.78757  0.64997  Biso   1.000  H
  C19      1.0000 0.58938  0.00056  0.27127  Biso   1.000  C
  C20      1.0000 0.58444  0.00857  0.05547  Biso   1.000  C
  H17      1.0000 0.61303  0.00957  0.98517  Biso   1.000  H
  H18      1.0000 0.58643  0.04147  0.03757  Biso   1.000  H
  C21      1.0000 0.51123  0.96477  0.03367  Biso   1.000  C
  C22      1.0000 0.70035  0.90097  0.29880  Biso   1.000  C
  Zn7      1.0000 0.78236  0.96345  0.57502  Biso   1.000  Zn
  Zn8      1.0000 0.77285  0.99379  0.07339  Biso   1.000  Zn
  O7       1.0000 0.81372  0.99528  0.84680  Biso   1.000  O
  O8       1.0000 0.74833  0.94691  0.29880  Biso   1.000  O
  N25      1.0000 0.83999  0.02982  0.45800  Biso   1.000  N
  N26      1.0000 0.83932  0.04449  0.27010  Biso   1.000  N
  N27      1.0000 0.87654  0.09094  0.24040  Biso   1.000  N
  N28      1.0000 0.90307  0.10753  0.41220  Biso   1.000  N
  N29      1.0000 0.63137  0.91577  0.73860  Biso   1.000  N
  N30      1.0000 0.65624  0.93243  0.91220  Biso   1.000  N
  N31      1.0000 0.70475  0.94877  0.88120  Biso   1.000  N
  N32      1.0000 0.71216  0.94266  0.68960  Biso   1.000  N
  C23      1.0000 0.87974  0.06943  0.54290  Biso   1.000  C
  C24      1.0000 0.89494  0.07042  0.75480  Biso   1.000  C
  H19      1.0000 0.88690  0.09310  0.82910  Biso   1.000  H
  H20      1.0000 0.93170  0.08410  0.76210  Biso   1.000  H
  C25      1.0000 0.86747  0.01709  0.84800  Biso   1.000  C
  H21      1.0000 0.87650  0.99480  0.77630  Biso   1.000  H
  H22      1.0000 0.87910  0.01940  0.98330  Biso   1.000  H
  C26      1.0000 0.66611  0.92216  0.60460  Biso   1.000  C
  C27      1.0000 0.65810  0.90921  0.38880  Biso   1.000  C
  H23      1.0000 0.65710  0.93680  0.31850  Biso   1.000  H
  H24      1.0000 0.62520  0.87830  0.37090  Biso   1.000  H
  C28      1.0000 0.70190  0.87980  0.36700  Biso   1.000  C
  C29      1.0000 0.36702  0.23430  0.63213  Biso   1.000  C
  Zn9      1.0000 0.44903  0.29678  0.90835  Biso   1.000  Zn
  Zn10     1.0000 0.43951  0.32712  0.40672  Biso   1.000  Zn
  O9       1.0000 0.48039  0.32861  0.18013  Biso   1.000  O
  O10      1.0000 0.41500  0.28024  0.63213  Biso   1.000  O
  N33      1.0000 0.50666  0.36315  0.79133  Biso   1.000  N
  N34      1.0000 0.50599  0.37782  0.60343  Biso   1.000  N
  N35      1.0000 0.54321  0.42427  0.57373  Biso   1.000  N
  N36      1.0000 0.56974  0.44086  0.74553  Biso   1.000  N
  N37      1.0000 0.29804  0.24910  0.07193  Biso   1.000  N
  N38      1.0000 0.32291  0.26576  0.24553  Biso   1.000  N
  N39      1.0000 0.37142  0.28210  0.21453  Biso   1.000  N
  N40      1.0000 0.37883  0.27599  0.02293  Biso   1.000  N
  C30      1.0000 0.54641  0.40276  0.87623  Biso   1.000  C
  C31      1.0000 0.56161  0.40375  0.08813  Biso   1.000  C
  H25      1.0000 0.55357  0.42643  0.16243  Biso   1.000  H
  H26      1.0000 0.59837  0.41743  0.09543  Biso   1.000  H
  C32      1.0000 0.53414  0.35042  0.18133  Biso   1.000  C
  H27      1.0000 0.54317  0.32813  0.10963  Biso   1.000  H
  H28      1.0000 0.54577  0.35273  0.31663  Biso   1.000  H
  C33      1.0000 0.33278  0.25549  0.93793  Biso   1.000  C
  C34      1.0000 0.32477  0.24254  0.72213  Biso   1.000  C
  H29      1.0000 0.32377  0.27013  0.65183  Biso   1.000  H
  H30      1.0000 0.29187  0.21163  0.70423  Biso   1.000  H
  C35      1.0000 0.36857  0.21313  0.70033  Biso   1.000  C
  C36      1.0000 0.03368  0.56764  0.96547  Biso   1.000  C
  Zn11     1.0000 0.11570  0.63012  0.24169  Biso   1.000  Zn
  Zn12     1.0000 0.10618  0.66046  0.74006  Biso   1.000  Zn
  O11      1.0000 0.14705  0.66195  0.51347  Biso   1.000  O
  O12      1.0000 0.08166  0.61358  0.96547  Biso   1.000  O
  N41      1.0000 0.17332  0.69649  0.12467  Biso   1.000  N
  N42      1.0000 0.17265  0.71116  0.93677  Biso   1.000  N
  N43      1.0000 0.20987  0.75761  0.90707  Biso   1.000  N
  N44      1.0000 0.23640  0.77420  0.07887  Biso   1.000  N
  N45      1.0000 0.96470  0.58244  0.40527  Biso   1.000  N
  N46      1.0000 0.98957  0.59910  0.57887  Biso   1.000  N
  N47      1.0000 0.03808  0.61544  0.54787  Biso   1.000  N
  N48      1.0000 0.04549  0.60933  0.35627  Biso   1.000  N
  C37      1.0000 0.21307  0.73610  0.20957  Biso   1.000  C
  C38      1.0000 0.22827  0.73709  0.42147  Biso   1.000  C
  H31      1.0000 0.22023  0.75977  0.49577  Biso   1.000  H
  H32      1.0000 0.26503  0.75077  0.42877  Biso   1.000  H
  C39      1.0000 0.20080  0.68376  0.51467  Biso   1.000  C
  H33      1.0000 0.20983  0.66147  0.44297  Biso   1.000  H
  H34      1.0000 0.21243  0.68607  0.64997  Biso   1.000  H
  C40      1.0000 0.99944  0.58883  0.27127  Biso   1.000  C
  C41      1.0000 0.99143  0.57588  0.05547  Biso   1.000  C
  H35      1.0000 0.99043  0.60347  0.98517  Biso   1.000  H
  H36      1.0000 0.95853  0.54497  0.03757  Biso   1.000  H
  C42      1.0000 0.03523  0.54647  0.03367  Biso   1.000  C
  C43      1.0000 0.09903  0.79938  0.29880  Biso   1.000  C
  Zn13     1.0000 0.03655  0.81891  0.57502  Biso   1.000  Zn
  Zn14     1.0000 0.00621  0.77906  0.07339  Biso   1.000  Zn
  O13      1.0000 0.00472  0.81844  0.84680  Biso   1.000  O
  O14      1.0000 0.05309  0.80142  0.29880  Biso   1.000  O
  N49      1.0000 0.97018  0.81017  0.45800  Biso   1.000  N
  N50      1.0000 0.95551  0.79483  0.27010  Biso   1.000  N
  N51      1.0000 0.90906  0.78560  0.24040  Biso   1.000  N
  N52      1.0000 0.89247  0.79554  0.41220  Biso   1.000  N
  N53      1.0000 0.08423  0.71560  0.73860  Biso   1.000  N
  N54      1.0000 0.06757  0.72381  0.91220  Biso   1.000  N
  N55      1.0000 0.05123  0.75598  0.88120  Biso   1.000  N
  N56      1.0000 0.05734  0.76950  0.68960  Biso   1.000  N
  C44      1.0000 0.93057  0.81031  0.54290  Biso   1.000  C
  C45      1.0000 0.92958  0.82452  0.75480  Biso   1.000  C
  H37      1.0000 0.90690  0.79380  0.82910  Biso   1.000  H
  H38      1.0000 0.91590  0.84760  0.76210  Biso   1.000  H
  C46      1.0000 0.98291  0.85038  0.84800  Biso   1.000  C
  H39      1.0000 0.00520  0.88170  0.77630  Biso   1.000  H
  H40      1.0000 0.98060  0.85970  0.98330  Biso   1.000  H
  C47      1.0000 0.07784  0.74395  0.60460  Biso   1.000  C
  C48      1.0000 0.09079  0.74889  0.38880  Biso   1.000  C
  H41      1.0000 0.06320  0.72030  0.31850  Biso   1.000  H
  H42      1.0000 0.12170  0.74690  0.37090  Biso   1.000  H
  C49      1.0000 0.12020  0.82210  0.36700  Biso   1.000  C
  C50      1.0000 0.76570  0.13271  0.63213  Biso   1.000  C
  Zn15     1.0000 0.70322  0.15225  0.90835  Biso   1.000  Zn
  Zn16     1.0000 0.67288  0.11239  0.40672  Biso   1.000  Zn
  O15      1.0000 0.67139  0.15177  0.18013  Biso   1.000  O
  O16      1.0000 0.71976  0.13475  0.63213  Biso   1.000  O
  N57      1.0000 0.63685  0.14350  0.79133  Biso   1.000  N
  N58      1.0000 0.62218  0.12816  0.60343  Biso   1.000  N
  N59      1.0000 0.57573  0.11893  0.57373  Biso   1.000  N
  N60      1.0000 0.55914  0.12887  0.74553  Biso   1.000  N
  N61      1.0000 0.75090  0.04893  0.07193  Biso   1.000  N
  N62      1.0000 0.73424  0.05714  0.24553  Biso   1.000  N
  N63      1.0000 0.71790  0.08931  0.21453  Biso   1.000  N
  N64      1.0000 0.72401  0.10283  0.02293  Biso   1.000  N
  C51      1.0000 0.59724  0.14364  0.87623  Biso   1.000  C
  C52      1.0000 0.59625  0.15785  0.08813  Biso   1.000  C
  H43      1.0000 0.57357  0.12713  0.16243  Biso   1.000  H
  H44      1.0000 0.58257  0.18093  0.09543  Biso   1.000  H
  C53      1.0000 0.64958  0.18371  0.18133  Biso   1.000  C
  H45      1.0000 0.67187  0.21503  0.10963  Biso   1.000  H
  H46      1.0000 0.64727  0.19303  0.31663  Biso   1.000  H
  C54      1.0000 0.74451  0.07728  0.93793  Biso   1.000  C
  C55      1.0000 0.75746  0.08222  0.72213  Biso   1.000  C
  H47      1.0000 0.72987  0.05363  0.65183  Biso   1.000  H
  H48      1.0000 0.78837  0.08023  0.70423  Biso   1.000  H
  C56      1.0000 0.78687  0.15543  0.70033  Biso   1.000  C
  C57      1.0000 0.43236  0.46605  0.96547  Biso   1.000  C
  Zn17     1.0000 0.36988  0.48558  0.24169  Biso   1.000  Zn
  Zn18     1.0000 0.33954  0.44572  0.74006  Biso   1.000  Zn
  O17      1.0000 0.33805  0.48511  0.51347  Biso   1.000  O
  O18      1.0000 0.38642  0.46809  0.96547  Biso   1.000  O
  N65      1.0000 0.30351  0.47684  0.12467  Biso   1.000  N
  N66      1.0000 0.28884  0.46150  0.93677  Biso   1.000  N
  N67      1.0000 0.24239  0.45227  0.90707  Biso   1.000  N
  N68      1.0000 0.22580  0.46221  0.07887  Biso   1.000  N
  N69      1.0000 0.41756  0.38227  0.40527  Biso   1.000  N
  N70      1.0000 0.40090  0.39048  0.57887  Biso   1.000  N
  N71      1.0000 0.38456  0.42265  0.54787  Biso   1.000  N
  N72      1.0000 0.39067  0.43617  0.35627  Biso   1.000  N
  C58      1.0000 0.26390  0.47698  0.20957  Biso   1.000  C
  C59      1.0000 0.26291  0.49119  0.42147  Biso   1.000  C
  H49      1.0000 0.24023  0.46047  0.49577  Biso   1.000  H
  H50      1.0000 0.24923  0.51427  0.42877  Biso   1.000  H
  C60      1.0000 0.31624  0.51705  0.51467  Biso   1.000  C
  H51      1.0000 0.33853  0.54837  0.44297  Biso   1.000  H
  H52      1.0000 0.31393  0.52637  0.64997  Biso   1.000  H
  C61      1.0000 0.41117  0.41062  0.27127  Biso   1.000  C
  C62      1.0000 0.42412  0.41556  0.05547  Biso   1.000  C
  H53      1.0000 0.39653  0.38697  0.98517  Biso   1.000  H
  H54      1.0000 0.45503  0.41357  0.03757  Biso   1.000  H
  C63      1.0000 0.45353  0.48877  0.03367  Biso   1.000  C
  C64      1.0000 0.79938  0.70035  0.70120  Biso   1.000  C
  Zn19     1.0000 0.81891  0.78236  0.42498  Biso   1.000  Zn
  Zn20     1.0000 0.77906  0.77285  0.92661  Biso   1.000  Zn
  O19      1.0000 0.81844  0.81372  0.15320  Biso   1.000  O
  O20      1.0000 0.80142  0.74833  0.70120  Biso   1.000  O
  N73      1.0000 0.81017  0.83999  0.54200  Biso   1.000  N
  N74      1.0000 0.79483  0.83932  0.72990  Biso   1.000  N
  N75      1.0000 0.78560  0.87654  0.75960  Biso   1.000  N
  N76      1.0000 0.79554  0.90307  0.58780  Biso   1.000  N
  N77      1.0000 0.71560  0.63137  0.26140  Biso   1.000  N
  N78      1.0000 0.72381  0.65624  0.08780  Biso   1.000  N
  N79      1.0000 0.75598  0.70475  0.11880  Biso   1.000  N
  N80      1.0000 0.76950  0.71216  0.31040  Biso   1.000  N
  C65      1.0000 0.81031  0.87974  0.45710  Biso   1.000  C
  C66      1.0000 0.82452  0.89494  0.24520  Biso   1.000  C
  H55      1.0000 0.79380  0.88690  0.17090  Biso   1.000  H
  H56      1.0000 0.84760  0.93170  0.23790  Biso   1.000  H
  C67      1.0000 0.85038  0.86747  0.15200  Biso   1.000  C
  H57      1.0000 0.88170  0.87650  0.22370  Biso   1.000  H
  H58      1.0000 0.85970  0.87910  0.01670  Biso   1.000  H
  C68      1.0000 0.74395  0.66611  0.39540  Biso   1.000  C
  C69      1.0000 0.74889  0.65810  0.61120  Biso   1.000  C
  H59      1.0000 0.72030  0.65710  0.68150  Biso   1.000  H
  H60      1.0000 0.74690  0.62520  0.62910  Biso   1.000  H
  C70      1.0000 0.82210  0.70190  0.63300  Biso   1.000  C
  C71      1.0000 0.46605  0.03368  0.03453  Biso   1.000  C
  Zn21     1.0000 0.48558  0.11570  0.75831  Biso   1.000  Zn
  Zn22     1.0000 0.44572  0.10618  0.25994  Biso   1.000  Zn
  O21      1.0000 0.48511  0.14705  0.48653  Biso   1.000  O
  O22      1.0000 0.46809  0.08166  0.03453  Biso   1.000  O
  N81      1.0000 0.47684  0.17332  0.87533  Biso   1.000  N
  N82      1.0000 0.46150  0.17265  0.06323  Biso   1.000  N
  N83      1.0000 0.45227  0.20987  0.09293  Biso   1.000  N
  N84      1.0000 0.46221  0.23640  0.92113  Biso   1.000  N
  N85      1.0000 0.38227  0.96470  0.59473  Biso   1.000  N
  N86      1.0000 0.39048  0.98957  0.42113  Biso   1.000  N
  N87      1.0000 0.42265  0.03808  0.45213  Biso   1.000  N
  N88      1.0000 0.43617  0.04549  0.64373  Biso   1.000  N
  C72      1.0000 0.47698  0.21307  0.79043  Biso   1.000  C
  C73      1.0000 0.49119  0.22827  0.57853  Biso   1.000  C
  H61      1.0000 0.46047  0.22023  0.50423  Biso   1.000  H
  H62      1.0000 0.51427  0.26503  0.57123  Biso   1.000  H
  C74      1.0000 0.51705  0.20080  0.48533  Biso   1.000  C
  H63      1.0000 0.54837  0.20983  0.55703  Biso   1.000  H
  H64      1.0000 0.52637  0.21243  0.35003  Biso   1.000  H
  C75      1.0000 0.41062  0.99944  0.72873  Biso   1.000  C
  C76      1.0000 0.41556  0.99143  0.94453  Biso   1.000  C
  H65      1.0000 0.38697  0.99043  0.01483  Biso   1.000  H
  H66      1.0000 0.41357  0.95853  0.96243  Biso   1.000  H
  C77      1.0000 0.48877  0.03523  0.96633  Biso   1.000  C
  C78      1.0000 0.13271  0.36702  0.36787  Biso   1.000  C
  Zn23     1.0000 0.15225  0.44903  0.09165  Biso   1.000  Zn
  Zn24     1.0000 0.11239  0.43951  0.59328  Biso   1.000  Zn
  O23      1.0000 0.15177  0.48039  0.81987  Biso   1.000  O
  O24      1.0000 0.13475  0.41500  0.36787  Biso   1.000  O
  N89      1.0000 0.14350  0.50666  0.20867  Biso   1.000  N
  N90      1.0000 0.12816  0.50599  0.39657  Biso   1.000  N
  N91      1.0000 0.11893  0.54321  0.42627  Biso   1.000  N
  N92      1.0000 0.12887  0.56974  0.25447  Biso   1.000  N
  N93      1.0000 0.04893  0.29804  0.92807  Biso   1.000  N
  N94      1.0000 0.05714  0.32291  0.75447  Biso   1.000  N
  N95      1.0000 0.08931  0.37142  0.78547  Biso   1.000  N
  N96      1.0000 0.10283  0.37883  0.97707  Biso   1.000  N
  C79      1.0000 0.14364  0.54641  0.12377  Biso   1.000  C
  C80      1.0000 0.15785  0.56161  0.91187  Biso   1.000  C
  H67      1.0000 0.12713  0.55357  0.83757  Biso   1.000  H
  H68      1.0000 0.18093  0.59837  0.90457  Biso   1.000  H
  C81      1.0000 0.18371  0.53414  0.81867  Biso   1.000  C
  H69      1.0000 0.21503  0.54317  0.89037  Biso   1.000  H
  H70      1.0000 0.19303  0.54577  0.68337  Biso   1.000  H
  C82      1.0000 0.07728  0.33278  0.06207  Biso   1.000  C
  C83      1.0000 0.08222  0.32477  0.27787  Biso   1.000  C
  H71      1.0000 0.05363  0.32377  0.34817  Biso   1.000  H
  H72      1.0000 0.08023  0.29187  0.29577  Biso   1.000  H
  C84      1.0000 0.15543  0.36857  0.29967  Biso   1.000  C
  C85      1.0000 0.29965  0.09903  0.70120  Biso   1.000  C
  Zn25     1.0000 0.21764  0.03655  0.42498  Biso   1.000  Zn
  Zn26     1.0000 0.22715  0.00621  0.92661  Biso   1.000  Zn
  O25      1.0000 0.18628  0.00472  0.15320  Biso   1.000  O
  O26      1.0000 0.25167  0.05309  0.70120  Biso   1.000  O
  N97      1.0000 0.16001  0.97018  0.54200  Biso   1.000  N
  N98      1.0000 0.16068  0.95551  0.72990  Biso   1.000  N
  N99      1.0000 0.12346  0.90906  0.75960  Biso   1.000  N
  N100     1.0000 0.09693  0.89247  0.58780  Biso   1.000  N
  N101     1.0000 0.36863  0.08423  0.26140  Biso   1.000  N
  N102     1.0000 0.34376  0.06757  0.08780  Biso   1.000  N
  N103     1.0000 0.29525  0.05123  0.11880  Biso   1.000  N
  N104     1.0000 0.28784  0.05734  0.31040  Biso   1.000  N
  C86      1.0000 0.12026  0.93057  0.45710  Biso   1.000  C
  C87      1.0000 0.10506  0.92958  0.24520  Biso   1.000  C
  H73      1.0000 0.11310  0.90690  0.17090  Biso   1.000  H
  H74      1.0000 0.06830  0.91590  0.23790  Biso   1.000  H
  C88      1.0000 0.13253  0.98291  0.15200  Biso   1.000  C
  H75      1.0000 0.12350  0.00520  0.22370  Biso   1.000  H
  H76      1.0000 0.12090  0.98060  0.01670  Biso   1.000  H
  C89      1.0000 0.33389  0.07784  0.39540  Biso   1.000  C
  C90      1.0000 0.34190  0.09079  0.61120  Biso   1.000  C
  H77      1.0000 0.34290  0.06320  0.68150  Biso   1.000  H
  H78      1.0000 0.37480  0.12170  0.62910  Biso   1.000  H
  C91      1.0000 0.29810  0.12020  0.63300  Biso   1.000  C
  C92      1.0000 0.96632  0.43236  0.03453  Biso   1.000  C
  Zn27     1.0000 0.88430  0.36988  0.75831  Biso   1.000  Zn
  Zn28     1.0000 0.89382  0.33954  0.25994  Biso   1.000  Zn
  O27      1.0000 0.85295  0.33805  0.48653  Biso   1.000  O
  O28      1.0000 0.91834  0.38642  0.03453  Biso   1.000  O
  N105     1.0000 0.82668  0.30351  0.87533  Biso   1.000  N
  N106     1.0000 0.82735  0.28884  0.06323  Biso   1.000  N
  N107     1.0000 0.79013  0.24239  0.09293  Biso   1.000  N
  N108     1.0000 0.76360  0.22580  0.92113  Biso   1.000  N
  N109     1.0000 0.03530  0.41756  0.59473  Biso   1.000  N
  N110     1.0000 0.01043  0.40090  0.42113  Biso   1.000  N
  N111     1.0000 0.96192  0.38456  0.45213  Biso   1.000  N
  N112     1.0000 0.95451  0.39067  0.64373  Biso   1.000  N
  C93      1.0000 0.78693  0.26390  0.79043  Biso   1.000  C
  C94      1.0000 0.77173  0.26291  0.57853  Biso   1.000  C
  H79      1.0000 0.77977  0.24023  0.50423  Biso   1.000  H
  H80      1.0000 0.73497  0.24923  0.57123  Biso   1.000  H
  C95      1.0000 0.79920  0.31624  0.48533  Biso   1.000  C
  H81      1.0000 0.79017  0.33853  0.55703  Biso   1.000  H
  H82      1.0000 0.78757  0.31393  0.35003  Biso   1.000  H
  C96      1.0000 0.00056  0.41117  0.72873  Biso   1.000  C
  C97      1.0000 0.00857  0.42412  0.94453  Biso   1.000  C
  H83      1.0000 0.00957  0.39653  0.01483  Biso   1.000  H
  H84      1.0000 0.04147  0.45503  0.96243  Biso   1.000  H
  C98      1.0000 0.96477  0.45353  0.96633  Biso   1.000  C
  C99      1.0000 0.63298  0.76570  0.36787  Biso   1.000  C
  Zn29     1.0000 0.55097  0.70322  0.09165  Biso   1.000  Zn
  Zn30     1.0000 0.56049  0.67288  0.59328  Biso   1.000  Zn
  O29      1.0000 0.51961  0.67139  0.81987  Biso   1.000  O
  O30      1.0000 0.58500  0.71976  0.36787  Biso   1.000  O
  N113     1.0000 0.49334  0.63685  0.20867  Biso   1.000  N
  N114     1.0000 0.49401  0.62218  0.39657  Biso   1.000  N
  N115     1.0000 0.45679  0.57573  0.42627  Biso   1.000  N
  N116     1.0000 0.43026  0.55914  0.25447  Biso   1.000  N
  N117     1.0000 0.70196  0.75090  0.92807  Biso   1.000  N
  N118     1.0000 0.67709  0.73424  0.75447  Biso   1.000  N
  N119     1.0000 0.62858  0.71790  0.78547  Biso   1.000  N
  N120     1.0000 0.62117  0.72401  0.97707  Biso   1.000  N
  C100     1.0000 0.45359  0.59724  0.12377  Biso   1.000  C
  C101     1.0000 0.43839  0.59625  0.91187  Biso   1.000  C
  H85      1.0000 0.44643  0.57357  0.83757  Biso   1.000  H
  H86      1.0000 0.40163  0.58257  0.90457  Biso   1.000  H
  C102     1.0000 0.46586  0.64958  0.81867  Biso   1.000  C
  H87      1.0000 0.45683  0.67187  0.89037  Biso   1.000  H
  H88      1.0000 0.45423  0.64727  0.68337  Biso   1.000  H
  C103     1.0000 0.66722  0.74451  0.06207  Biso   1.000  C
  C104     1.0000 0.67523  0.75746  0.27787  Biso   1.000  C
  H89      1.0000 0.67623  0.72987  0.34817  Biso   1.000  H
  H90      1.0000 0.70813  0.78837  0.29577  Biso   1.000  H
  C105     1.0000 0.63143  0.78687  0.29967  Biso   1.000  C
  C106     1.0000 0.90097  0.20062  0.70120  Biso   1.000  C
  Zn31     1.0000 0.96345  0.18109  0.42498  Biso   1.000  Zn
  Zn32     1.0000 0.99379  0.22094  0.92661  Biso   1.000  Zn
  O31      1.0000 0.99528  0.18156  0.15320  Biso   1.000  O
  O32      1.0000 0.94691  0.19858  0.70120  Biso   1.000  O
  N121     1.0000 0.02982  0.18983  0.54200  Biso   1.000  N
  N122     1.0000 0.04449  0.20517  0.72990  Biso   1.000  N
  N123     1.0000 0.09094  0.21440  0.75960  Biso   1.000  N
  N124     1.0000 0.10753  0.20446  0.58780  Biso   1.000  N
  N125     1.0000 0.91577  0.28440  0.26140  Biso   1.000  N
  N126     1.0000 0.93243  0.27619  0.08780  Biso   1.000  N
  N127     1.0000 0.94877  0.24402  0.11880  Biso   1.000  N
  N128     1.0000 0.94266  0.23050  0.31040  Biso   1.000  N
  C107     1.0000 0.06943  0.18969  0.45710  Biso   1.000  C
  C108     1.0000 0.07042  0.17548  0.24520  Biso   1.000  C
  H91      1.0000 0.09310  0.20620  0.17090  Biso   1.000  H
  H92      1.0000 0.08410  0.15240  0.23790  Biso   1.000  H
  C109     1.0000 0.01709  0.14962  0.15200  Biso   1.000  C
  H93      1.0000 0.99480  0.11830  0.22370  Biso   1.000  H
  H94      1.0000 0.01940  0.14030  0.01670  Biso   1.000  H
  C110     1.0000 0.92216  0.25605  0.39540  Biso   1.000  C
  C111     1.0000 0.90921  0.25111  0.61120  Biso   1.000  C
  H95      1.0000 0.93680  0.27970  0.68150  Biso   1.000  H
  H96      1.0000 0.87830  0.25310  0.62910  Biso   1.000  H
  C112     1.0000 0.87980  0.17790  0.63300  Biso   1.000  C
  C113     1.0000 0.56764  0.53395  0.03453  Biso   1.000  C
  Zn33     1.0000 0.63012  0.51442  0.75831  Biso   1.000  Zn
  Zn34     1.0000 0.66046  0.55428  0.25994  Biso   1.000  Zn
  O33      1.0000 0.66195  0.51489  0.48653  Biso   1.000  O
  O34      1.0000 0.61358  0.53191  0.03453  Biso   1.000  O
  N129     1.0000 0.69649  0.52316  0.87533  Biso   1.000  N
  N130     1.0000 0.71116  0.53850  0.06323  Biso   1.000  N
  N131     1.0000 0.75761  0.54773  0.09293  Biso   1.000  N
  N132     1.0000 0.77420  0.53779  0.92113  Biso   1.000  N
  N133     1.0000 0.58244  0.61773  0.59473  Biso   1.000  N
  N134     1.0000 0.59910  0.60952  0.42113  Biso   1.000  N
  N135     1.0000 0.61544  0.57735  0.45213  Biso   1.000  N
  N136     1.0000 0.60933  0.56383  0.64373  Biso   1.000  N
  C114     1.0000 0.73610  0.52302  0.79043  Biso   1.000  C
  C115     1.0000 0.73709  0.50881  0.57853  Biso   1.000  C
  H97      1.0000 0.75977  0.53953  0.50423  Biso   1.000  H
  H98      1.0000 0.75077  0.48573  0.57123  Biso   1.000  H
  C116     1.0000 0.68376  0.48295  0.48533  Biso   1.000  C
  H99      1.0000 0.66147  0.45163  0.55703  Biso   1.000  H
  H100     1.0000 0.68607  0.47363  0.35003  Biso   1.000  H
  C117     1.0000 0.58883  0.58938  0.72873  Biso   1.000  C
  C118     1.0000 0.57588  0.58444  0.94453  Biso   1.000  C
  H101     1.0000 0.60347  0.61303  0.01483  Biso   1.000  H
  H102     1.0000 0.54497  0.58643  0.96243  Biso   1.000  H
  C119     1.0000 0.54647  0.51123  0.96633  Biso   1.000  C
  C120     1.0000 0.23430  0.86729  0.36787  Biso   1.000  C
  Zn35     1.0000 0.29678  0.84775  0.09165  Biso   1.000  Zn
  Zn36     1.0000 0.32712  0.88761  0.59328  Biso   1.000  Zn
  O35      1.0000 0.32861  0.84823  0.81987  Biso   1.000  O
  O36      1.0000 0.28024  0.86525  0.36787  Biso   1.000  O
  N137     1.0000 0.36315  0.85650  0.20867  Biso   1.000  N
  N138     1.0000 0.37782  0.87184  0.39657  Biso   1.000  N
  N139     1.0000 0.42427  0.88107  0.42627  Biso   1.000  N
  N140     1.0000 0.44086  0.87113  0.25447  Biso   1.000  N
  N141     1.0000 0.24910  0.95107  0.92807  Biso   1.000  N
  N142     1.0000 0.26576  0.94286  0.75447  Biso   1.000  N
  N143     1.0000 0.28210  0.91069  0.78547  Biso   1.000  N
  N144     1.0000 0.27599  0.89717  0.97707  Biso   1.000  N
  C121     1.0000 0.40276  0.85636  0.12377  Biso   1.000  C
  C122     1.0000 0.40375  0.84215  0.91187  Biso   1.000  C
  H103     1.0000 0.42643  0.87287  0.83757  Biso   1.000  H
  H104     1.0000 0.41743  0.81907  0.90457  Biso   1.000  H
  C123     1.0000 0.35042  0.81629  0.81867  Biso   1.000  C
  H105     1.0000 0.32813  0.78497  0.89037  Biso   1.000  H
  H106     1.0000 0.35273  0.80697  0.68337  Biso   1.000  H
  C124     1.0000 0.25549  0.92272  0.06207  Biso   1.000  C
  C125     1.0000 0.24254  0.91778  0.27787  Biso   1.000  C
  H107     1.0000 0.27013  0.94637  0.34817  Biso   1.000  H
  H108     1.0000 0.21163  0.91977  0.29577  Biso   1.000  H
  C126     1.0000 0.21313  0.84457  0.29967  Biso   1.000  C
