data_image0
_cell_length_a       15.46
_cell_length_b       15.46
_cell_length_c       12.475
_cell_angle_alpha    90
_cell_angle_beta     90
_cell_angle_gamma    120

_symmetry_space_group_name_H-M    "P 1"
_symmetry_int_tables_number       1

loop_
  _symmetry_equiv_pos_as_xyz
  'x, y, z'

loop_
  _atom_site_label
  _atom_site_occupancy
  _atom_site_fract_x
  _atom_site_fract_y
  _atom_site_fract_z
  _atom_site_thermal_displace_type
  _atom_site_B_iso_or_equiv
  _atom_site_type_symbol
  O1       1.0000 0.22910  0.47460  0.13830  Biso   1.000  O
  O2       1.0000 0.14320  0.55360  0.13530  Biso   1.000  O
  C1       1.0000 0.15730  0.48050  0.11050  Biso   1.000  C
  C2       1.0000 0.08760  0.40320  0.03150  Biso   1.000  C
  C3       1.0000 0.11440  0.33780  0.98580  Biso   1.000  C
  H1       1.0000 0.17460  0.33890  0.00690  Biso   1.000  H
  C4       1.0000 0.05340  0.26970  0.90850  Biso   1.000  C
  C5       1.0000 0.96580  0.26690  0.87710  Biso   1.000  C
  H2       1.0000 0.92420  0.22030  0.82430  Biso   1.000  H
  O3       1.0000 0.08000  0.20490  0.86320  Biso   1.000  O
  C6       1.0000 0.07800  0.30710  0.04800  Biso   1.000  C
  H3       1.0000 0.13030  0.30220  0.08390  Biso   1.000  H
  C7       1.0000 0.07800  0.39700  0.04800  Biso   1.000  C
  C8       1.0000 0.94200  0.05300  0.92600  Biso   1.000  C
  H4       1.0000 0.94780  0.99540  0.94490  Biso   1.000  H
  H5       1.0000 0.87480  0.03140  0.90500  Biso   1.000  H
  H6       1.0000 0.98660  0.08720  0.86750  Biso   1.000  H
  H7       1.0000 0.98300  0.44660  0.03140  Biso   1.000  H
  C9       1.0000 0.17800  0.21600  0.87800  Biso   1.000  C
  H8       1.0000 0.17440  0.20380  0.95350  Biso   1.000  H
  H9       1.0000 0.17290  0.15950  0.84000  Biso   1.000  H
  H10      1.0000 0.24090  0.27430  0.86100  Biso   1.000  H
  H11      1.0000 0.03090  0.23850  0.73250  Biso   1.000  H
  H12      1.0000 0.14740  0.28700  0.73150  Biso   1.000  H
  H13      1.0000 0.07940  0.17220  0.71060  Biso   1.000  H
  C10      1.0000 0.93910  0.33220  0.92280  Biso   1.000  C
  O4       1.0000 0.52540  0.75450  0.13830  Biso   1.000  O
  O5       1.0000 0.44640  0.58960  0.13530  Biso   1.000  O
  C11      1.0000 0.51950  0.67680  0.11050  Biso   1.000  C
  C12      1.0000 0.59680  0.68440  0.03150  Biso   1.000  C
  C13      1.0000 0.66220  0.77660  0.98580  Biso   1.000  C
  H14      1.0000 0.66110  0.83570  0.00690  Biso   1.000  H
  C14      1.0000 0.73030  0.78370  0.90850  Biso   1.000  C
  C15      1.0000 0.73310  0.69890  0.87710  Biso   1.000  C
  H15      1.0000 0.77970  0.70390  0.82430  Biso   1.000  H
  O6       1.0000 0.79510  0.87510  0.86320  Biso   1.000  O
  C16      1.0000 0.69290  0.77090  0.04800  Biso   1.000  C
  H16      1.0000 0.69780  0.82810  0.08390  Biso   1.000  H
  C17      1.0000 0.60300  0.68100  0.04800  Biso   1.000  C
  C18      1.0000 0.94700  0.88900  0.92600  Biso   1.000  C
  H17      1.0000 0.00460  0.95240  0.94490  Biso   1.000  H
  H18      1.0000 0.96860  0.84340  0.90500  Biso   1.000  H
  H19      1.0000 0.91280  0.89940  0.86750  Biso   1.000  H
  H20      1.0000 0.55340  0.53640  0.03140  Biso   1.000  H
  C19      1.0000 0.78400  0.96200  0.87800  Biso   1.000  C
  H21      1.0000 0.79620  0.97060  0.95350  Biso   1.000  H
  H22      1.0000 0.84050  0.01340  0.84000  Biso   1.000  H
  H23      1.0000 0.72570  0.96660  0.86100  Biso   1.000  H
  H24      1.0000 0.76150  0.79240  0.73250  Biso   1.000  H
  H25      1.0000 0.71300  0.86040  0.73150  Biso   1.000  H
  H26      1.0000 0.82780  0.90720  0.71060  Biso   1.000  H
  C20      1.0000 0.66780  0.60690  0.92280  Biso   1.000  C
  O7       1.0000 0.24550  0.77090  0.13830  Biso   1.000  O
  O8       1.0000 0.41040  0.85680  0.13530  Biso   1.000  O
  C21      1.0000 0.32320  0.84270  0.11050  Biso   1.000  C
  C22      1.0000 0.31560  0.91240  0.03150  Biso   1.000  C
  C23      1.0000 0.22340  0.88560  0.98580  Biso   1.000  C
  H27      1.0000 0.16430  0.82540  0.00690  Biso   1.000  H
  C24      1.0000 0.21630  0.94660  0.90850  Biso   1.000  C
  C25      1.0000 0.30110  0.03420  0.87710  Biso   1.000  C
  H28      1.0000 0.29610  0.07580  0.82430  Biso   1.000  H
  O9       1.0000 0.12490  0.92000  0.86320  Biso   1.000  O
  C26      1.0000 0.22910  0.92200  0.04800  Biso   1.000  C
  H29      1.0000 0.17190  0.86970  0.08390  Biso   1.000  H
  C27      1.0000 0.31900  0.92200  0.04800  Biso   1.000  C
  C28      1.0000 0.11100  0.05800  0.92600  Biso   1.000  C
  H30      1.0000 0.04760  0.05220  0.94490  Biso   1.000  H
  H31      1.0000 0.15660  0.12520  0.90500  Biso   1.000  H
  H32      1.0000 0.10060  0.01340  0.86750  Biso   1.000  H
  H33      1.0000 0.46360  0.01700  0.03140  Biso   1.000  H
  C29      1.0000 0.03800  0.82200  0.87800  Biso   1.000  C
  H34      1.0000 0.02940  0.82560  0.95350  Biso   1.000  H
  H35      1.0000 0.98660  0.82710  0.84000  Biso   1.000  H
  H36      1.0000 0.03340  0.75910  0.86100  Biso   1.000  H
  H37      1.0000 0.20760  0.96910  0.73250  Biso   1.000  H
  H38      1.0000 0.13960  0.85260  0.73150  Biso   1.000  H
  H39      1.0000 0.09280  0.92060  0.71060  Biso   1.000  H
  C30      1.0000 0.39310  0.06090  0.92280  Biso   1.000  C
  O10      1.0000 0.22910  0.47460  0.36170  Biso   1.000  O
  O11      1.0000 0.14320  0.55360  0.36470  Biso   1.000  O
  C31      1.0000 0.15730  0.48050  0.38950  Biso   1.000  C
  C32      1.0000 0.08760  0.40320  0.46850  Biso   1.000  C
  C33      1.0000 0.11440  0.33780  0.51420  Biso   1.000  C
  H40      1.0000 0.17460  0.33890  0.49310  Biso   1.000  H
  C34      1.0000 0.05340  0.26970  0.59150  Biso   1.000  C
  C35      1.0000 0.96580  0.26690  0.62290  Biso   1.000  C
  H41      1.0000 0.92420  0.22030  0.67570  Biso   1.000  H
  O12      1.0000 0.08000  0.20490  0.63680  Biso   1.000  O
  C36      1.0000 0.07800  0.30710  0.45200  Biso   1.000  C
  H42      1.0000 0.13030  0.30220  0.41610  Biso   1.000  H
  C37      1.0000 0.07800  0.39700  0.45200  Biso   1.000  C
  C38      1.0000 0.94200  0.05300  0.57400  Biso   1.000  C
  H43      1.0000 0.94780  0.99540  0.55510  Biso   1.000  H
  H44      1.0000 0.87480  0.03140  0.59500  Biso   1.000  H
  H45      1.0000 0.98660  0.08720  0.63250  Biso   1.000  H
  H46      1.0000 0.98300  0.44660  0.46860  Biso   1.000  H
  C39      1.0000 0.17800  0.21600  0.62200  Biso   1.000  C
  H47      1.0000 0.17440  0.20380  0.54650  Biso   1.000  H
  H48      1.0000 0.17290  0.15950  0.66000  Biso   1.000  H
  H49      1.0000 0.24090  0.27430  0.63900  Biso   1.000  H
  H50      1.0000 0.03090  0.23850  0.76750  Biso   1.000  H
  H51      1.0000 0.14740  0.28700  0.76850  Biso   1.000  H
  H52      1.0000 0.07940  0.17220  0.78940  Biso   1.000  H
  C40      1.0000 0.93910  0.33220  0.57720  Biso   1.000  C
  O13      1.0000 0.52540  0.75450  0.36170  Biso   1.000  O
  O14      1.0000 0.44640  0.58960  0.36470  Biso   1.000  O
  C41      1.0000 0.51950  0.67680  0.38950  Biso   1.000  C
  C42      1.0000 0.59680  0.68440  0.46850  Biso   1.000  C
  C43      1.0000 0.66220  0.77660  0.51420  Biso   1.000  C
  H53      1.0000 0.66110  0.83570  0.49310  Biso   1.000  H
  C44      1.0000 0.73030  0.78370  0.59150  Biso   1.000  C
  C45      1.0000 0.73310  0.69890  0.62290  Biso   1.000  C
  H54      1.0000 0.77970  0.70390  0.67570  Biso   1.000  H
  O15      1.0000 0.79510  0.87510  0.63680  Biso   1.000  O
  C46      1.0000 0.69290  0.77090  0.45200  Biso   1.000  C
  H55      1.0000 0.69780  0.82810  0.41610  Biso   1.000  H
  C47      1.0000 0.60300  0.68100  0.45200  Biso   1.000  C
  C48      1.0000 0.94700  0.88900  0.57400  Biso   1.000  C
  H56      1.0000 0.00460  0.95240  0.55510  Biso   1.000  H
  H57      1.0000 0.96860  0.84340  0.59500  Biso   1.000  H
  H58      1.0000 0.91280  0.89940  0.63250  Biso   1.000  H
  H59      1.0000 0.55340  0.53640  0.46860  Biso   1.000  H
  C49      1.0000 0.78400  0.96200  0.62200  Biso   1.000  C
  H60      1.0000 0.79620  0.97060  0.54650  Biso   1.000  H
  H61      1.0000 0.84050  0.01340  0.66000  Biso   1.000  H
  H62      1.0000 0.72570  0.96660  0.63900  Biso   1.000  H
  H63      1.0000 0.76150  0.79240  0.76750  Biso   1.000  H
  H64      1.0000 0.71300  0.86040  0.76850  Biso   1.000  H
  H65      1.0000 0.82780  0.90720  0.78940  Biso   1.000  H
  C50      1.0000 0.66780  0.60690  0.57720  Biso   1.000  C
  O16      1.0000 0.24550  0.77090  0.36170  Biso   1.000  O
  O17      1.0000 0.41040  0.85680  0.36470  Biso   1.000  O
  C51      1.0000 0.32320  0.84270  0.38950  Biso   1.000  C
  C52      1.0000 0.31560  0.91240  0.46850  Biso   1.000  C
  C53      1.0000 0.22340  0.88560  0.51420  Biso   1.000  C
  H66      1.0000 0.16430  0.82540  0.49310  Biso   1.000  H
  C54      1.0000 0.21630  0.94660  0.59150  Biso   1.000  C
  C55      1.0000 0.30110  0.03420  0.62290  Biso   1.000  C
  H67      1.0000 0.29610  0.07580  0.67570  Biso   1.000  H
  O18      1.0000 0.12490  0.92000  0.63680  Biso   1.000  O
  C56      1.0000 0.22910  0.92200  0.45200  Biso   1.000  C
  H68      1.0000 0.17190  0.86970  0.41610  Biso   1.000  H
  C57      1.0000 0.31900  0.92200  0.45200  Biso   1.000  C
  C58      1.0000 0.11100  0.05800  0.57400  Biso   1.000  C
  H69      1.0000 0.04760  0.05220  0.55510  Biso   1.000  H
  H70      1.0000 0.15660  0.12520  0.59500  Biso   1.000  H
  H71      1.0000 0.10060  0.01340  0.63250  Biso   1.000  H
  H72      1.0000 0.46360  0.01700  0.46860  Biso   1.000  H
  C59      1.0000 0.03800  0.82200  0.62200  Biso   1.000  C
  H73      1.0000 0.02940  0.82560  0.54650  Biso   1.000  H
  H74      1.0000 0.98660  0.82710  0.66000  Biso   1.000  H
  H75      1.0000 0.03340  0.75910  0.63900  Biso   1.000  H
  H76      1.0000 0.20760  0.96910  0.76750  Biso   1.000  H
  H77      1.0000 0.13960  0.85260  0.76850  Biso   1.000  H
  H78      1.0000 0.09280  0.92060  0.78940  Biso   1.000  H
  C60      1.0000 0.39310  0.06090  0.57720  Biso   1.000  C
  O19      1.0000 0.47460  0.22910  0.86170  Biso   1.000  O
  O20      1.0000 0.55360  0.14320  0.86470  Biso   1.000  O
  C61      1.0000 0.48050  0.15730  0.88950  Biso   1.000  C
  C62      1.0000 0.40320  0.08760  0.96850  Biso   1.000  C
  C63      1.0000 0.33780  0.11440  0.01420  Biso   1.000  C
  H79      1.0000 0.33890  0.17460  0.99310  Biso   1.000  H
  C64      1.0000 0.26970  0.05340  0.09150  Biso   1.000  C
  C65      1.0000 0.26690  0.96580  0.12290  Biso   1.000  C
  H80      1.0000 0.22030  0.92420  0.17570  Biso   1.000  H
  O21      1.0000 0.20490  0.08000  0.13680  Biso   1.000  O
  C66      1.0000 0.30710  0.07800  0.95200  Biso   1.000  C
  H81      1.0000 0.30220  0.13030  0.91610  Biso   1.000  H
  C67      1.0000 0.39700  0.07800  0.95200  Biso   1.000  C
  C68      1.0000 0.05300  0.94200  0.07400  Biso   1.000  C
  H82      1.0000 0.99540  0.94780  0.05510  Biso   1.000  H
  H83      1.0000 0.03140  0.87480  0.09500  Biso   1.000  H
  H84      1.0000 0.08720  0.98660  0.13250  Biso   1.000  H
  H85      1.0000 0.44660  0.98300  0.96860  Biso   1.000  H
  C69      1.0000 0.21600  0.17800  0.12200  Biso   1.000  C
  H86      1.0000 0.20380  0.17440  0.04650  Biso   1.000  H
  H87      1.0000 0.15950  0.17290  0.16000  Biso   1.000  H
  H88      1.0000 0.27430  0.24090  0.13900  Biso   1.000  H
  H89      1.0000 0.23850  0.03090  0.26750  Biso   1.000  H
  H90      1.0000 0.28700  0.14740  0.26850  Biso   1.000  H
  H91      1.0000 0.17220  0.07940  0.28940  Biso   1.000  H
  C70      1.0000 0.33220  0.93910  0.07720  Biso   1.000  C
  O22      1.0000 0.75450  0.52540  0.86170  Biso   1.000  O
  O23      1.0000 0.58960  0.44640  0.86470  Biso   1.000  O
  C71      1.0000 0.67680  0.51950  0.88950  Biso   1.000  C
  C72      1.0000 0.68440  0.59680  0.96850  Biso   1.000  C
  C73      1.0000 0.77660  0.66220  0.01420  Biso   1.000  C
  H92      1.0000 0.83570  0.66110  0.99310  Biso   1.000  H
  C74      1.0000 0.78370  0.73030  0.09150  Biso   1.000  C
  C75      1.0000 0.69890  0.73310  0.12290  Biso   1.000  C
  H93      1.0000 0.70390  0.77970  0.17570  Biso   1.000  H
  O24      1.0000 0.87510  0.79510  0.13680  Biso   1.000  O
  C76      1.0000 0.77090  0.69290  0.95200  Biso   1.000  C
  H94      1.0000 0.82810  0.69780  0.91610  Biso   1.000  H
  C77      1.0000 0.68100  0.60300  0.95200  Biso   1.000  C
  C78      1.0000 0.88900  0.94700  0.07400  Biso   1.000  C
  H95      1.0000 0.95240  0.00460  0.05510  Biso   1.000  H
  H96      1.0000 0.84340  0.96860  0.09500  Biso   1.000  H
  H97      1.0000 0.89940  0.91280  0.13250  Biso   1.000  H
  H98      1.0000 0.53640  0.55340  0.96860  Biso   1.000  H
  C79      1.0000 0.96200  0.78400  0.12200  Biso   1.000  C
  H99      1.0000 0.97060  0.79620  0.04650  Biso   1.000  H
  H100     1.0000 0.01340  0.84050  0.16000  Biso   1.000  H
  H101     1.0000 0.96660  0.72570  0.13900  Biso   1.000  H
  H102     1.0000 0.79240  0.76150  0.26750  Biso   1.000  H
  H103     1.0000 0.86040  0.71300  0.26850  Biso   1.000  H
  H104     1.0000 0.90720  0.82780  0.28940  Biso   1.000  H
  C80      1.0000 0.60690  0.66780  0.07720  Biso   1.000  C
  O25      1.0000 0.77090  0.24550  0.86170  Biso   1.000  O
  O26      1.0000 0.85680  0.41040  0.86470  Biso   1.000  O
  C81      1.0000 0.84270  0.32320  0.88950  Biso   1.000  C
  C82      1.0000 0.91240  0.31560  0.96850  Biso   1.000  C
  C83      1.0000 0.88560  0.22340  0.01420  Biso   1.000  C
  H105     1.0000 0.82540  0.16430  0.99310  Biso   1.000  H
  C84      1.0000 0.94660  0.21630  0.09150  Biso   1.000  C
  C85      1.0000 0.03420  0.30110  0.12290  Biso   1.000  C
  H106     1.0000 0.07580  0.29610  0.17570  Biso   1.000  H
  O27      1.0000 0.92000  0.12490  0.13680  Biso   1.000  O
  C86      1.0000 0.92200  0.22910  0.95200  Biso   1.000  C
  H107     1.0000 0.86970  0.17190  0.91610  Biso   1.000  H
  C87      1.0000 0.92200  0.31900  0.95200  Biso   1.000  C
  C88      1.0000 0.05800  0.11100  0.07400  Biso   1.000  C
  H108     1.0000 0.05220  0.04760  0.05510  Biso   1.000  H
  H109     1.0000 0.12520  0.15660  0.09500  Biso   1.000  H
  H110     1.0000 0.01340  0.10060  0.13250  Biso   1.000  H
  H111     1.0000 0.01700  0.46360  0.96860  Biso   1.000  H
  C89      1.0000 0.82200  0.03800  0.12200  Biso   1.000  C
  H112     1.0000 0.82560  0.02940  0.04650  Biso   1.000  H
  H113     1.0000 0.82710  0.98660  0.16000  Biso   1.000  H
  H114     1.0000 0.75910  0.03340  0.13900  Biso   1.000  H
  H115     1.0000 0.96910  0.20760  0.26750  Biso   1.000  H
  H116     1.0000 0.85260  0.13960  0.26850  Biso   1.000  H
  H117     1.0000 0.92060  0.09280  0.28940  Biso   1.000  H
  C90      1.0000 0.06090  0.39310  0.07720  Biso   1.000  C
  O28      1.0000 0.47460  0.22910  0.63830  Biso   1.000  O
  O29      1.0000 0.55360  0.14320  0.63530  Biso   1.000  O
  C91      1.0000 0.48050  0.15730  0.61050  Biso   1.000  C
  C92      1.0000 0.40320  0.08760  0.53150  Biso   1.000  C
  C93      1.0000 0.33780  0.11440  0.48580  Biso   1.000  C
  H118     1.0000 0.33890  0.17460  0.50690  Biso   1.000  H
  C94      1.0000 0.26970  0.05340  0.40850  Biso   1.000  C
  C95      1.0000 0.26690  0.96580  0.37710  Biso   1.000  C
  H119     1.0000 0.22030  0.92420  0.32430  Biso   1.000  H
  O30      1.0000 0.20490  0.08000  0.36320  Biso   1.000  O
  C96      1.0000 0.30710  0.07800  0.54800  Biso   1.000  C
  H120     1.0000 0.30220  0.13030  0.58390  Biso   1.000  H
  C97      1.0000 0.39700  0.07800  0.54800  Biso   1.000  C
  C98      1.0000 0.05300  0.94200  0.42600  Biso   1.000  C
  H121     1.0000 0.99540  0.94780  0.44490  Biso   1.000  H
  H122     1.0000 0.03140  0.87480  0.40500  Biso   1.000  H
  H123     1.0000 0.08720  0.98660  0.36750  Biso   1.000  H
  H124     1.0000 0.44660  0.98300  0.53140  Biso   1.000  H
  C99      1.0000 0.21600  0.17800  0.37800  Biso   1.000  C
  H125     1.0000 0.20380  0.17440  0.45350  Biso   1.000  H
  H126     1.0000 0.15950  0.17290  0.34000  Biso   1.000  H
  H127     1.0000 0.27430  0.24090  0.36100  Biso   1.000  H
  H128     1.0000 0.23850  0.03090  0.23250  Biso   1.000  H
  H129     1.0000 0.28700  0.14740  0.23150  Biso   1.000  H
  H130     1.0000 0.17220  0.07940  0.21060  Biso   1.000  H
  C100     1.0000 0.33220  0.93910  0.42280  Biso   1.000  C
  O31      1.0000 0.75450  0.52540  0.63830  Biso   1.000  O
  O32      1.0000 0.58960  0.44640  0.63530  Biso   1.000  O
  C101     1.0000 0.67680  0.51950  0.61050  Biso   1.000  C
  C102     1.0000 0.68440  0.59680  0.53150  Biso   1.000  C
  C103     1.0000 0.77660  0.66220  0.48580  Biso   1.000  C
  H131     1.0000 0.83570  0.66110  0.50690  Biso   1.000  H
  C104     1.0000 0.78370  0.73030  0.40850  Biso   1.000  C
  C105     1.0000 0.69890  0.73310  0.37710  Biso   1.000  C
  H132     1.0000 0.70390  0.77970  0.32430  Biso   1.000  H
  O33      1.0000 0.87510  0.79510  0.36320  Biso   1.000  O
  C106     1.0000 0.77090  0.69290  0.54800  Biso   1.000  C
  H133     1.0000 0.82810  0.69780  0.58390  Biso   1.000  H
  C107     1.0000 0.68100  0.60300  0.54800  Biso   1.000  C
  C108     1.0000 0.88900  0.94700  0.42600  Biso   1.000  C
  H134     1.0000 0.95240  0.00460  0.44490  Biso   1.000  H
  H135     1.0000 0.84340  0.96860  0.40500  Biso   1.000  H
  H136     1.0000 0.89940  0.91280  0.36750  Biso   1.000  H
  H137     1.0000 0.53640  0.55340  0.53140  Biso   1.000  H
  C109     1.0000 0.96200  0.78400  0.37800  Biso   1.000  C
  H138     1.0000 0.97060  0.79620  0.45350  Biso   1.000  H
  H139     1.0000 0.01340  0.84050  0.34000  Biso   1.000  H
  H140     1.0000 0.96660  0.72570  0.36100  Biso   1.000  H
  H141     1.0000 0.79240  0.76150  0.23250  Biso   1.000  H
  H142     1.0000 0.86040  0.71300  0.23150  Biso   1.000  H
  H143     1.0000 0.90720  0.82780  0.21060  Biso   1.000  H
  C110     1.0000 0.60690  0.66780  0.42280  Biso   1.000  C
  O34      1.0000 0.77090  0.24550  0.63830  Biso   1.000  O
  O35      1.0000 0.85680  0.41040  0.63530  Biso   1.000  O
  C111     1.0000 0.84270  0.32320  0.61050  Biso   1.000  C
  C112     1.0000 0.91240  0.31560  0.53150  Biso   1.000  C
  C113     1.0000 0.88560  0.22340  0.48580  Biso   1.000  C
  H144     1.0000 0.82540  0.16430  0.50690  Biso   1.000  H
  C114     1.0000 0.94660  0.21630  0.40850  Biso   1.000  C
  C115     1.0000 0.03420  0.30110  0.37710  Biso   1.000  C
  H145     1.0000 0.07580  0.29610  0.32430  Biso   1.000  H
  O36      1.0000 0.92000  0.12490  0.36320  Biso   1.000  O
  C116     1.0000 0.92200  0.22910  0.54800  Biso   1.000  C
  H146     1.0000 0.86970  0.17190  0.58390  Biso   1.000  H
  C117     1.0000 0.92200  0.31900  0.54800  Biso   1.000  C
  C118     1.0000 0.05800  0.11100  0.42600  Biso   1.000  C
  H147     1.0000 0.05220  0.04760  0.44490  Biso   1.000  H
  H148     1.0000 0.12520  0.15660  0.40500  Biso   1.000  H
  H149     1.0000 0.01340  0.10060  0.36750  Biso   1.000  H
  H150     1.0000 0.01700  0.46360  0.53140  Biso   1.000  H
  C119     1.0000 0.82200  0.03800  0.37800  Biso   1.000  C
  H151     1.0000 0.82560  0.02940  0.45350  Biso   1.000  H
  H152     1.0000 0.82710  0.98660  0.34000  Biso   1.000  H
  H153     1.0000 0.75910  0.03340  0.36100  Biso   1.000  H
  H154     1.0000 0.96910  0.20760  0.23250  Biso   1.000  H
  H155     1.0000 0.85260  0.13960  0.23150  Biso   1.000  H
  H156     1.0000 0.92060  0.09280  0.21060  Biso   1.000  H
  C120     1.0000 0.06090  0.39310  0.42280  Biso   1.000  C
  Fe1      1.0000 0.20400  0.66300  0.25000  Biso   1.000  Fe
  Co1      1.0000 0.21300  0.65700  0.25000  Biso   1.000  Co
  Fe2      1.0000 0.33700  0.54100  0.25000  Biso   1.000  Fe
  Co2      1.0000 0.34300  0.55600  0.25000  Biso   1.000  Co
  Fe3      1.0000 0.45900  0.79600  0.25000  Biso   1.000  Fe
  Co3      1.0000 0.44400  0.78700  0.25000  Biso   1.000  Co
  Fe4      1.0000 0.66300  0.20400  0.75000  Biso   1.000  Fe
  Co4      1.0000 0.65700  0.21300  0.75000  Biso   1.000  Co
  Fe5      1.0000 0.54100  0.33700  0.75000  Biso   1.000  Fe
  Co5      1.0000 0.55600  0.34300  0.75000  Biso   1.000  Co
  Fe6      1.0000 0.79600  0.45900  0.75000  Biso   1.000  Fe
  Co6      1.0000 0.78700  0.44400  0.75000  Biso   1.000  Co
  O37      1.0000 0.33333  0.66667  0.25000  Biso   1.000  O
  O38      1.0000 0.66667  0.33333  0.75000  Biso   1.000  O
  C121     1.0000 0.00000  0.40030  0.00000  Biso   1.000  C
  H157     1.0000 0.00000  0.46440  0.00000  Biso   1.000  H
  C122     1.0000 0.00000  0.40300  0.00000  Biso   1.000  C
  C123     1.0000 0.00000  0.22310  0.00000  Biso   1.000  C
  O39      1.0000 0.00000  0.13380  0.00000  Biso   1.000  O
  C124     1.0000 0.59970  0.59970  0.00000  Biso   1.000  C
  H158     1.0000 0.53560  0.53560  0.00000  Biso   1.000  H
  C125     1.0000 0.59700  0.59700  0.00000  Biso   1.000  C
  C126     1.0000 0.77690  0.77690  0.00000  Biso   1.000  C
  O40      1.0000 0.86620  0.86620  0.00000  Biso   1.000  O
  C127     1.0000 0.40030  0.00000  0.00000  Biso   1.000  C
  H159     1.0000 0.46440  0.00000  0.00000  Biso   1.000  H
  C128     1.0000 0.40300  0.00000  0.00000  Biso   1.000  C
  C129     1.0000 0.22310  0.00000  0.00000  Biso   1.000  C
  O41      1.0000 0.13380  0.00000  0.00000  Biso   1.000  O
  C130     1.0000 0.00000  0.40030  0.50000  Biso   1.000  C
  H160     1.0000 0.00000  0.46440  0.50000  Biso   1.000  H
  C131     1.0000 0.00000  0.40300  0.50000  Biso   1.000  C
  C132     1.0000 0.00000  0.22310  0.50000  Biso   1.000  C
  O42      1.0000 0.00000  0.13380  0.50000  Biso   1.000  O
  C133     1.0000 0.59970  0.59970  0.50000  Biso   1.000  C
  H161     1.0000 0.53560  0.53560  0.50000  Biso   1.000  H
  C134     1.0000 0.59700  0.59700  0.50000  Biso   1.000  C
  C135     1.0000 0.77690  0.77690  0.50000  Biso   1.000  C
  O43      1.0000 0.86620  0.86620  0.50000  Biso   1.000  O
  C136     1.0000 0.40030  0.00000  0.50000  Biso   1.000  C
  H162     1.0000 0.46440  0.00000  0.50000  Biso   1.000  H
  C137     1.0000 0.40300  0.00000  0.50000  Biso   1.000  C
  C138     1.0000 0.22310  0.00000  0.50000  Biso   1.000  C
  O44      1.0000 0.13380  0.00000  0.50000  Biso   1.000  O
  C139     1.0000 0.08600  0.22800  0.75000  Biso   1.000  C
  C140     1.0000 0.77200  0.85800  0.75000  Biso   1.000  C
  C141     1.0000 0.14200  0.91400  0.75000  Biso   1.000  C
  C142     1.0000 0.22800  0.08600  0.25000  Biso   1.000  C
  C143     1.0000 0.85800  0.77200  0.25000  Biso   1.000  C
  C144     1.0000 0.91400  0.14200  0.25000  Biso   1.000  C
