data_image0
_cell_length_a       15.392
_cell_length_b       15.392
_cell_length_c       12.425
_cell_angle_alpha    90
_cell_angle_beta     90
_cell_angle_gamma    120

_symmetry_space_group_name_H-M    "P 1"
_symmetry_int_tables_number       1

loop_
  _symmetry_equiv_pos_as_xyz
  'x, y, z'

loop_
  _atom_site_label
  _atom_site_occupancy
  _atom_site_fract_x
  _atom_site_fract_y
  _atom_site_fract_z
  _atom_site_thermal_displace_type
  _atom_site_B_iso_or_equiv
  _atom_site_type_symbol
  O1       1.0000 0.23270  0.47560  0.63530  Biso   1.000  O
  O2       1.0000 0.14280  0.55250  0.63680  Biso   1.000  O
  C1       1.0000 0.15840  0.48270  0.60980  Biso   1.000  C
  C2       1.0000 0.07579  0.39310  0.55250  Biso   1.000  C
  C3       1.0000 0.07580  0.30280  0.55260  Biso   1.000  C
  H1       1.0000 0.12810  0.29780  0.58910  Biso   1.000  H
  Br1      1.0000 0.10580  0.19700  0.31510  Biso   1.000  Br
  H2       1.0000 0.97700  0.43920  0.53850  Biso   1.000  H
  C4       1.0000 0.09380  0.41220  0.52210  Biso   1.000  C
  C5       1.0000 0.12720  0.35650  0.46550  Biso   1.000  C
  H3       1.0000 0.19180  0.36430  0.48140  Biso   1.000  H
  C6       1.0000 0.06680  0.28910  0.38680  Biso   1.000  C
  C7       1.0000 0.93960  0.33310  0.42130  Biso   1.000  C
  C8       1.0000 0.97300  0.27740  0.36470  Biso   1.000  C
  H4       1.0000 0.93140  0.23080  0.31030  Biso   1.000  H
  O3       1.0000 0.52440  0.75710  0.63530  Biso   1.000  O
  O4       1.0000 0.44750  0.59030  0.63680  Biso   1.000  O
  C9       1.0000 0.51730  0.67570  0.60980  Biso   1.000  C
  C10      1.0000 0.60690  0.68269  0.55250  Biso   1.000  C
  C11      1.0000 0.69720  0.77300  0.55260  Biso   1.000  C
  H5       1.0000 0.70220  0.83030  0.58910  Biso   1.000  H
  Br2      1.0000 0.80300  0.90880  0.31510  Biso   1.000  Br
  H6       1.0000 0.56080  0.53780  0.53850  Biso   1.000  H
  C12      1.0000 0.58780  0.68160  0.52210  Biso   1.000  C
  C13      1.0000 0.64350  0.77070  0.46550  Biso   1.000  C
  H7       1.0000 0.63570  0.82750  0.48140  Biso   1.000  H
  C14      1.0000 0.71090  0.77770  0.38680  Biso   1.000  C
  C15      1.0000 0.66690  0.60650  0.42130  Biso   1.000  C
  C16      1.0000 0.72260  0.69560  0.36470  Biso   1.000  C
  H8       1.0000 0.76920  0.70060  0.31030  Biso   1.000  H
  O5       1.0000 0.24290  0.76730  0.63530  Biso   1.000  O
  O6       1.0000 0.40970  0.85720  0.63680  Biso   1.000  O
  C17      1.0000 0.32430  0.84160  0.60980  Biso   1.000  C
  C18      1.0000 0.31731  0.92421  0.55250  Biso   1.000  C
  C19      1.0000 0.22700  0.92420  0.55260  Biso   1.000  C
  H9       1.0000 0.16970  0.87190  0.58910  Biso   1.000  H
  Br3      1.0000 0.09120  0.89420  0.31510  Biso   1.000  Br
  H10      1.0000 0.46220  0.02300  0.53850  Biso   1.000  H
  C20      1.0000 0.31840  0.90620  0.52210  Biso   1.000  C
  C21      1.0000 0.22930  0.87280  0.46550  Biso   1.000  C
  H11      1.0000 0.17250  0.80820  0.48140  Biso   1.000  H
  C22      1.0000 0.22230  0.93320  0.38680  Biso   1.000  C
  C23      1.0000 0.39350  0.06040  0.42130  Biso   1.000  C
  C24      1.0000 0.30440  0.02700  0.36470  Biso   1.000  C
  H12      1.0000 0.29940  0.06860  0.31030  Biso   1.000  H
  O7       1.0000 0.23270  0.47560  0.86470  Biso   1.000  O
  O8       1.0000 0.14280  0.55250  0.86320  Biso   1.000  O
  C25      1.0000 0.15840  0.48270  0.89020  Biso   1.000  C
  C26      1.0000 0.07579  0.39310  0.94750  Biso   1.000  C
  C27      1.0000 0.07580  0.30280  0.94740  Biso   1.000  C
  H13      1.0000 0.12810  0.29780  0.91090  Biso   1.000  H
  Br4      1.0000 0.10580  0.19700  0.18490  Biso   1.000  Br
  H14      1.0000 0.97700  0.43920  0.96150  Biso   1.000  H
  C28      1.0000 0.09380  0.41220  0.97790  Biso   1.000  C
  C29      1.0000 0.12720  0.35650  0.03450  Biso   1.000  C
  H15      1.0000 0.19180  0.36430  0.01860  Biso   1.000  H
  C30      1.0000 0.06680  0.28910  0.11320  Biso   1.000  C
  C31      1.0000 0.93960  0.33310  0.07870  Biso   1.000  C
  C32      1.0000 0.97300  0.27740  0.13530  Biso   1.000  C
  H16      1.0000 0.93140  0.23080  0.18970  Biso   1.000  H
  O9       1.0000 0.52440  0.75710  0.86470  Biso   1.000  O
  O10      1.0000 0.44750  0.59030  0.86320  Biso   1.000  O
  C33      1.0000 0.51730  0.67570  0.89020  Biso   1.000  C
  C34      1.0000 0.60690  0.68269  0.94750  Biso   1.000  C
  C35      1.0000 0.69720  0.77300  0.94740  Biso   1.000  C
  H17      1.0000 0.70220  0.83030  0.91090  Biso   1.000  H
  Br5      1.0000 0.80300  0.90880  0.18490  Biso   1.000  Br
  H18      1.0000 0.56080  0.53780  0.96150  Biso   1.000  H
  C36      1.0000 0.58780  0.68160  0.97790  Biso   1.000  C
  C37      1.0000 0.64350  0.77070  0.03450  Biso   1.000  C
  H19      1.0000 0.63570  0.82750  0.01860  Biso   1.000  H
  C38      1.0000 0.71090  0.77770  0.11320  Biso   1.000  C
  C39      1.0000 0.66690  0.60650  0.07870  Biso   1.000  C
  C40      1.0000 0.72260  0.69560  0.13530  Biso   1.000  C
  H20      1.0000 0.76920  0.70060  0.18970  Biso   1.000  H
  O11      1.0000 0.24290  0.76730  0.86470  Biso   1.000  O
  O12      1.0000 0.40970  0.85720  0.86320  Biso   1.000  O
  C41      1.0000 0.32430  0.84160  0.89020  Biso   1.000  C
  C42      1.0000 0.31731  0.92421  0.94750  Biso   1.000  C
  C43      1.0000 0.22700  0.92420  0.94740  Biso   1.000  C
  H21      1.0000 0.16970  0.87190  0.91090  Biso   1.000  H
  Br6      1.0000 0.09120  0.89420  0.18490  Biso   1.000  Br
  H22      1.0000 0.46220  0.02300  0.96150  Biso   1.000  H
  C44      1.0000 0.31840  0.90620  0.97790  Biso   1.000  C
  C45      1.0000 0.22930  0.87280  0.03450  Biso   1.000  C
  H23      1.0000 0.17250  0.80820  0.01860  Biso   1.000  H
  C46      1.0000 0.22230  0.93320  0.11320  Biso   1.000  C
  C47      1.0000 0.39350  0.06040  0.07870  Biso   1.000  C
  C48      1.0000 0.30440  0.02700  0.13530  Biso   1.000  C
  H24      1.0000 0.29940  0.06860  0.18970  Biso   1.000  H
  O13      1.0000 0.47560  0.23270  0.36470  Biso   1.000  O
  O14      1.0000 0.55250  0.14280  0.36320  Biso   1.000  O
  C49      1.0000 0.48270  0.15840  0.39020  Biso   1.000  C
  C50      1.0000 0.39310  0.07579  0.44750  Biso   1.000  C
  C51      1.0000 0.30280  0.07580  0.44740  Biso   1.000  C
  H25      1.0000 0.29780  0.12810  0.41090  Biso   1.000  H
  Br7      1.0000 0.19700  0.10580  0.68490  Biso   1.000  Br
  H26      1.0000 0.43920  0.97700  0.46150  Biso   1.000  H
  C52      1.0000 0.41220  0.09380  0.47790  Biso   1.000  C
  C53      1.0000 0.35650  0.12720  0.53450  Biso   1.000  C
  H27      1.0000 0.36430  0.19180  0.51860  Biso   1.000  H
  C54      1.0000 0.28910  0.06680  0.61320  Biso   1.000  C
  C55      1.0000 0.33310  0.93960  0.57870  Biso   1.000  C
  C56      1.0000 0.27740  0.97300  0.63530  Biso   1.000  C
  H28      1.0000 0.23080  0.93140  0.68970  Biso   1.000  H
  O15      1.0000 0.75710  0.52440  0.36470  Biso   1.000  O
  O16      1.0000 0.59030  0.44750  0.36320  Biso   1.000  O
  C57      1.0000 0.67570  0.51730  0.39020  Biso   1.000  C
  C58      1.0000 0.68269  0.60690  0.44750  Biso   1.000  C
  C59      1.0000 0.77300  0.69720  0.44740  Biso   1.000  C
  H29      1.0000 0.83030  0.70220  0.41090  Biso   1.000  H
  Br8      1.0000 0.90880  0.80300  0.68490  Biso   1.000  Br
  H30      1.0000 0.53780  0.56080  0.46150  Biso   1.000  H
  C60      1.0000 0.68160  0.58780  0.47790  Biso   1.000  C
  C61      1.0000 0.77070  0.64350  0.53450  Biso   1.000  C
  H31      1.0000 0.82750  0.63570  0.51860  Biso   1.000  H
  C62      1.0000 0.77770  0.71090  0.61320  Biso   1.000  C
  C63      1.0000 0.60650  0.66690  0.57870  Biso   1.000  C
  C64      1.0000 0.69560  0.72260  0.63530  Biso   1.000  C
  H32      1.0000 0.70060  0.76920  0.68970  Biso   1.000  H
  O17      1.0000 0.76730  0.24290  0.36470  Biso   1.000  O
  O18      1.0000 0.85720  0.40970  0.36320  Biso   1.000  O
  C65      1.0000 0.84160  0.32430  0.39020  Biso   1.000  C
  C66      1.0000 0.92421  0.31731  0.44750  Biso   1.000  C
  C67      1.0000 0.92420  0.22700  0.44740  Biso   1.000  C
  H33      1.0000 0.87190  0.16970  0.41090  Biso   1.000  H
  Br9      1.0000 0.89420  0.09120  0.68490  Biso   1.000  Br
  H34      1.0000 0.02300  0.46220  0.46150  Biso   1.000  H
  C68      1.0000 0.90620  0.31840  0.47790  Biso   1.000  C
  C69      1.0000 0.87280  0.22930  0.53450  Biso   1.000  C
  H35      1.0000 0.80820  0.17250  0.51860  Biso   1.000  H
  C70      1.0000 0.93320  0.22230  0.61320  Biso   1.000  C
  C71      1.0000 0.06040  0.39350  0.57870  Biso   1.000  C
  C72      1.0000 0.02700  0.30440  0.63530  Biso   1.000  C
  H36      1.0000 0.06860  0.29940  0.68970  Biso   1.000  H
  O19      1.0000 0.47560  0.23270  0.13530  Biso   1.000  O
  O20      1.0000 0.55250  0.14280  0.13680  Biso   1.000  O
  C73      1.0000 0.48270  0.15840  0.10980  Biso   1.000  C
  C74      1.0000 0.39310  0.07579  0.05250  Biso   1.000  C
  C75      1.0000 0.30280  0.07580  0.05260  Biso   1.000  C
  H37      1.0000 0.29780  0.12810  0.08910  Biso   1.000  H
  Br10     1.0000 0.19700  0.10580  0.81510  Biso   1.000  Br
  H38      1.0000 0.43920  0.97700  0.03850  Biso   1.000  H
  C76      1.0000 0.41220  0.09380  0.02210  Biso   1.000  C
  C77      1.0000 0.35650  0.12720  0.96550  Biso   1.000  C
  H39      1.0000 0.36430  0.19180  0.98140  Biso   1.000  H
  C78      1.0000 0.28910  0.06680  0.88680  Biso   1.000  C
  C79      1.0000 0.33310  0.93960  0.92130  Biso   1.000  C
  C80      1.0000 0.27740  0.97300  0.86470  Biso   1.000  C
  H40      1.0000 0.23080  0.93140  0.81030  Biso   1.000  H
  O21      1.0000 0.75710  0.52440  0.13530  Biso   1.000  O
  O22      1.0000 0.59030  0.44750  0.13680  Biso   1.000  O
  C81      1.0000 0.67570  0.51730  0.10980  Biso   1.000  C
  C82      1.0000 0.68269  0.60690  0.05250  Biso   1.000  C
  C83      1.0000 0.77300  0.69720  0.05260  Biso   1.000  C
  H41      1.0000 0.83030  0.70220  0.08910  Biso   1.000  H
  Br11     1.0000 0.90880  0.80300  0.81510  Biso   1.000  Br
  H42      1.0000 0.53780  0.56080  0.03850  Biso   1.000  H
  C84      1.0000 0.68160  0.58780  0.02210  Biso   1.000  C
  C85      1.0000 0.77070  0.64350  0.96550  Biso   1.000  C
  H43      1.0000 0.82750  0.63570  0.98140  Biso   1.000  H
  C86      1.0000 0.77770  0.71090  0.88680  Biso   1.000  C
  C87      1.0000 0.60650  0.66690  0.92130  Biso   1.000  C
  C88      1.0000 0.69560  0.72260  0.86470  Biso   1.000  C
  H44      1.0000 0.70060  0.76920  0.81030  Biso   1.000  H
  O23      1.0000 0.76730  0.24290  0.13530  Biso   1.000  O
  O24      1.0000 0.85720  0.40970  0.13680  Biso   1.000  O
  C89      1.0000 0.84160  0.32430  0.10980  Biso   1.000  C
  C90      1.0000 0.92421  0.31731  0.05250  Biso   1.000  C
  C91      1.0000 0.92420  0.22700  0.05260  Biso   1.000  C
  H45      1.0000 0.87190  0.16970  0.08910  Biso   1.000  H
  Br12     1.0000 0.89420  0.09120  0.81510  Biso   1.000  Br
  H46      1.0000 0.02300  0.46220  0.03850  Biso   1.000  H
  C92      1.0000 0.90620  0.31840  0.02210  Biso   1.000  C
  C93      1.0000 0.87280  0.22930  0.96550  Biso   1.000  C
  H47      1.0000 0.80820  0.17250  0.98140  Biso   1.000  H
  C94      1.0000 0.93320  0.22230  0.88680  Biso   1.000  C
  C95      1.0000 0.06040  0.39350  0.92130  Biso   1.000  C
  C96      1.0000 0.02700  0.30440  0.86470  Biso   1.000  C
  H48      1.0000 0.06860  0.29940  0.81030  Biso   1.000  H
  Fe1      1.0000 0.20650  0.66060  0.75000  Biso   1.000  Fe
  Fe2      1.0000 0.33940  0.54590  0.75000  Biso   1.000  Fe
  Fe3      1.0000 0.45410  0.79350  0.75000  Biso   1.000  Fe
  Fe4      1.0000 0.66060  0.20650  0.25000  Biso   1.000  Fe
  Fe5      1.0000 0.54590  0.33940  0.25000  Biso   1.000  Fe
  Fe6      1.0000 0.79350  0.45410  0.25000  Biso   1.000  Fe
  O25      1.0000 0.33333  0.66667  0.75000  Biso   1.000  O
  O26      1.0000 0.66667  0.33333  0.25000  Biso   1.000  O
  Br13     1.0000 0.00000  0.09910  0.50000  Biso   1.000  Br
  C97      1.0000 0.00000  0.40040  0.50000  Biso   1.000  C
  H49      1.0000 0.00000  0.46210  0.50000  Biso   1.000  H
  C98      1.0000 0.00000  0.21970  0.50000  Biso   1.000  C
  Br14     1.0000 0.90090  0.90090  0.50000  Biso   1.000  Br
  C99      1.0000 0.59960  0.59960  0.50000  Biso   1.000  C
  H50      1.0000 0.53790  0.53790  0.50000  Biso   1.000  H
  C100     1.0000 0.78030  0.78030  0.50000  Biso   1.000  C
  Br15     1.0000 0.09910  0.00000  0.50000  Biso   1.000  Br
  C101     1.0000 0.40040  0.00000  0.50000  Biso   1.000  C
  H51      1.0000 0.46210  0.00000  0.50000  Biso   1.000  H
  C102     1.0000 0.21970  0.00000  0.50000  Biso   1.000  C
  Br16     1.0000 0.00000  0.09910  0.00000  Biso   1.000  Br
  C103     1.0000 0.00000  0.40040  0.00000  Biso   1.000  C
  H52      1.0000 0.00000  0.46210  0.00000  Biso   1.000  H
  C104     1.0000 0.00000  0.21970  0.00000  Biso   1.000  C
  Br17     1.0000 0.90090  0.90090  0.00000  Biso   1.000  Br
  C105     1.0000 0.59960  0.59960  0.00000  Biso   1.000  C
  H53      1.0000 0.53790  0.53790  0.00000  Biso   1.000  H
  C106     1.0000 0.78030  0.78030  0.00000  Biso   1.000  C
  Br18     1.0000 0.09910  0.00000  0.00000  Biso   1.000  Br
  C107     1.0000 0.40040  0.00000  0.00000  Biso   1.000  C
  H54      1.0000 0.46210  0.00000  0.00000  Biso   1.000  H
  C108     1.0000 0.21970  0.00000  0.00000  Biso   1.000  C
