data_image0
_cell_length_a       14.392
_cell_length_b       14.392
_cell_length_c       17.416
_cell_angle_alpha    90
_cell_angle_beta     90
_cell_angle_gamma    120

_symmetry_space_group_name_H-M    "P 1"
_symmetry_int_tables_number       1

loop_
  _symmetry_equiv_pos_as_xyz
  'x, y, z'

loop_
  _atom_site_label
  _atom_site_occupancy
  _atom_site_fract_x
  _atom_site_fract_y
  _atom_site_fract_z
  _atom_site_thermal_displace_type
  _atom_site_B_iso_or_equiv
  _atom_site_type_symbol
  O1       1.0000 0.65370  0.50060  0.16603  Biso   1.000  O
  C1       1.0000 0.59690  0.56710  0.03390  Biso   1.000  C
  O2       1.0000 0.69890  0.63880  0.05760  Biso   1.000  O
  H1       1.0000 0.72610  0.60550  0.07880  Biso   1.000  H
  H2       1.0000 0.66400  0.61470  0.05700  Biso   1.000  H
  O3       1.0000 0.49940  0.15310  0.16603  Biso   1.000  O
  C2       1.0000 0.43290  0.02980  0.03390  Biso   1.000  C
  O4       1.0000 0.36120  0.06010  0.05760  Biso   1.000  O
  H3       1.0000 0.39450  0.12060  0.07880  Biso   1.000  H
  H4       1.0000 0.38530  0.04930  0.05700  Biso   1.000  H
  O5       1.0000 0.84690  0.34630  0.16603  Biso   1.000  O
  C3       1.0000 0.97020  0.40310  0.03390  Biso   1.000  C
  O6       1.0000 0.93990  0.30110  0.05760  Biso   1.000  O
  H5       1.0000 0.87940  0.27390  0.07880  Biso   1.000  H
  H6       1.0000 0.95070  0.33600  0.05700  Biso   1.000  H
  O7       1.0000 0.34630  0.49940  0.66603  Biso   1.000  O
  C4       1.0000 0.40310  0.43290  0.53390  Biso   1.000  C
  O8       1.0000 0.30110  0.36120  0.55760  Biso   1.000  O
  H7       1.0000 0.27390  0.39450  0.57880  Biso   1.000  H
  H8       1.0000 0.33600  0.38530  0.55700  Biso   1.000  H
  O9       1.0000 0.50060  0.84690  0.66603  Biso   1.000  O
  C5       1.0000 0.56710  0.97020  0.53390  Biso   1.000  C
  O10      1.0000 0.63880  0.93990  0.55760  Biso   1.000  O
  H9       1.0000 0.60550  0.87940  0.57880  Biso   1.000  H
  H10      1.0000 0.61470  0.95070  0.55700  Biso   1.000  H
  O11      1.0000 0.15310  0.65370  0.66603  Biso   1.000  O
  C6       1.0000 0.02980  0.59690  0.53390  Biso   1.000  C
  O12      1.0000 0.06010  0.69890  0.55760  Biso   1.000  O
  H11      1.0000 0.12060  0.72610  0.57880  Biso   1.000  H
  H12      1.0000 0.04930  0.66400  0.55700  Biso   1.000  H
  O13      1.0000 0.50060  0.65370  0.83397  Biso   1.000  O
  C7       1.0000 0.56710  0.59690  0.96610  Biso   1.000  C
  O14      1.0000 0.63880  0.69890  0.94240  Biso   1.000  O
  H13      1.0000 0.60550  0.72610  0.92120  Biso   1.000  H
  H14      1.0000 0.61470  0.66400  0.94300  Biso   1.000  H
  O15      1.0000 0.15310  0.49940  0.83397  Biso   1.000  O
  C8       1.0000 0.02980  0.43290  0.96610  Biso   1.000  C
  O16      1.0000 0.06010  0.36120  0.94240  Biso   1.000  O
  H15      1.0000 0.12060  0.39450  0.92120  Biso   1.000  H
  H16      1.0000 0.04930  0.38530  0.94300  Biso   1.000  H
  O17      1.0000 0.34630  0.84690  0.83397  Biso   1.000  O
  C9       1.0000 0.40310  0.97020  0.96610  Biso   1.000  C
  O18      1.0000 0.30110  0.93990  0.94240  Biso   1.000  O
  H17      1.0000 0.27390  0.87940  0.92120  Biso   1.000  H
  H18      1.0000 0.33600  0.95070  0.94300  Biso   1.000  H
  O19      1.0000 0.49940  0.34630  0.33397  Biso   1.000  O
  C10      1.0000 0.43290  0.40310  0.46610  Biso   1.000  C
  O20      1.0000 0.36120  0.30110  0.44240  Biso   1.000  O
  H19      1.0000 0.39450  0.27390  0.42120  Biso   1.000  H
  H20      1.0000 0.38530  0.33600  0.44300  Biso   1.000  H
  O21      1.0000 0.84690  0.50060  0.33397  Biso   1.000  O
  C11      1.0000 0.97020  0.56710  0.46610  Biso   1.000  C
  O22      1.0000 0.93990  0.63880  0.44240  Biso   1.000  O
  H21      1.0000 0.87940  0.60550  0.42120  Biso   1.000  H
  H22      1.0000 0.95070  0.61470  0.44300  Biso   1.000  H
  O23      1.0000 0.65370  0.15310  0.33397  Biso   1.000  O
  C12      1.0000 0.59690  0.02980  0.46610  Biso   1.000  C
  O24      1.0000 0.69890  0.06010  0.44240  Biso   1.000  O
  H23      1.0000 0.72610  0.12060  0.42120  Biso   1.000  H
  H24      1.0000 0.66400  0.04930  0.44300  Biso   1.000  H
  O25      1.0000 0.34630  0.49940  0.83397  Biso   1.000  O
  C13      1.0000 0.40310  0.43290  0.96610  Biso   1.000  C
  O26      1.0000 0.30110  0.36120  0.94240  Biso   1.000  O
  H25      1.0000 0.27390  0.39450  0.92120  Biso   1.000  H
  H26      1.0000 0.33600  0.38530  0.94300  Biso   1.000  H
  O27      1.0000 0.50060  0.84690  0.83397  Biso   1.000  O
  C14      1.0000 0.56710  0.97020  0.96610  Biso   1.000  C
  O28      1.0000 0.63880  0.93990  0.94240  Biso   1.000  O
  H27      1.0000 0.60550  0.87940  0.92120  Biso   1.000  H
  H28      1.0000 0.61470  0.95070  0.94300  Biso   1.000  H
  O29      1.0000 0.15310  0.65370  0.83397  Biso   1.000  O
  C15      1.0000 0.02980  0.59690  0.96610  Biso   1.000  C
  O30      1.0000 0.06010  0.69890  0.94240  Biso   1.000  O
  H29      1.0000 0.12060  0.72610  0.92120  Biso   1.000  H
  H30      1.0000 0.04930  0.66400  0.94300  Biso   1.000  H
  O31      1.0000 0.65370  0.50060  0.33397  Biso   1.000  O
  C16      1.0000 0.59690  0.56710  0.46610  Biso   1.000  C
  O32      1.0000 0.69890  0.63880  0.44240  Biso   1.000  O
  H31      1.0000 0.72610  0.60550  0.42120  Biso   1.000  H
  H32      1.0000 0.66400  0.61470  0.44300  Biso   1.000  H
  O33      1.0000 0.49940  0.15310  0.33397  Biso   1.000  O
  C17      1.0000 0.43290  0.02980  0.46610  Biso   1.000  C
  O34      1.0000 0.36120  0.06010  0.44240  Biso   1.000  O
  H33      1.0000 0.39450  0.12060  0.42120  Biso   1.000  H
  H34      1.0000 0.38530  0.04930  0.44300  Biso   1.000  H
  O35      1.0000 0.84690  0.34630  0.33397  Biso   1.000  O
  C18      1.0000 0.97020  0.40310  0.46610  Biso   1.000  C
  O36      1.0000 0.93990  0.30110  0.44240  Biso   1.000  O
  H35      1.0000 0.87940  0.27390  0.42120  Biso   1.000  H
  H36      1.0000 0.95070  0.33600  0.44300  Biso   1.000  H
  O37      1.0000 0.49940  0.34630  0.16603  Biso   1.000  O
  C19      1.0000 0.43290  0.40310  0.03390  Biso   1.000  C
  O38      1.0000 0.36120  0.30110  0.05760  Biso   1.000  O
  H37      1.0000 0.39450  0.27390  0.07880  Biso   1.000  H
  H38      1.0000 0.38530  0.33600  0.05700  Biso   1.000  H
  O39      1.0000 0.84690  0.50060  0.16603  Biso   1.000  O
  C20      1.0000 0.97020  0.56710  0.03390  Biso   1.000  C
  O40      1.0000 0.93990  0.63880  0.05760  Biso   1.000  O
  H39      1.0000 0.87940  0.60550  0.07880  Biso   1.000  H
  H40      1.0000 0.95070  0.61470  0.05700  Biso   1.000  H
  O41      1.0000 0.65370  0.15310  0.16603  Biso   1.000  O
  C21      1.0000 0.59690  0.02980  0.03390  Biso   1.000  C
  O42      1.0000 0.69890  0.06010  0.05760  Biso   1.000  O
  H41      1.0000 0.72610  0.12060  0.07880  Biso   1.000  H
  H42      1.0000 0.66400  0.04930  0.05700  Biso   1.000  H
  O43      1.0000 0.50060  0.65370  0.66603  Biso   1.000  O
  C22      1.0000 0.56710  0.59690  0.53390  Biso   1.000  C
  O44      1.0000 0.63880  0.69890  0.55760  Biso   1.000  O
  H43      1.0000 0.60550  0.72610  0.57880  Biso   1.000  H
  H44      1.0000 0.61470  0.66400  0.55700  Biso   1.000  H
  O45      1.0000 0.15310  0.49940  0.66603  Biso   1.000  O
  C23      1.0000 0.02980  0.43290  0.53390  Biso   1.000  C
  O46      1.0000 0.06010  0.36120  0.55760  Biso   1.000  O
  H45      1.0000 0.12060  0.39450  0.57880  Biso   1.000  H
  H46      1.0000 0.04930  0.38530  0.55700  Biso   1.000  H
  O47      1.0000 0.34630  0.84690  0.66603  Biso   1.000  O
  C24      1.0000 0.40310  0.97020  0.53390  Biso   1.000  C
  O48      1.0000 0.30110  0.93990  0.55760  Biso   1.000  O
  H47      1.0000 0.27390  0.87940  0.57880  Biso   1.000  H
  H48      1.0000 0.33600  0.95070  0.55700  Biso   1.000  H
  Fe1      1.0000 0.74400  0.48800  0.25000  Biso   1.000  Fe
  O49      1.0000 0.82675  0.65350  0.25000  Biso   1.000  O
  Co1      1.0000 0.74200  0.48400  0.25000  Biso   1.000  Co
  Fe2      1.0000 0.51200  0.25600  0.25000  Biso   1.000  Fe
  O50      1.0000 0.34650  0.17325  0.25000  Biso   1.000  O
  Co2      1.0000 0.51600  0.25800  0.25000  Biso   1.000  Co
  Fe3      1.0000 0.74400  0.25600  0.25000  Biso   1.000  Fe
  O51      1.0000 0.82675  0.17325  0.25000  Biso   1.000  O
  Co3      1.0000 0.74200  0.25800  0.25000  Biso   1.000  Co
  Fe4      1.0000 0.25600  0.51200  0.75000  Biso   1.000  Fe
  O52      1.0000 0.17325  0.34650  0.75000  Biso   1.000  O
  Co4      1.0000 0.25800  0.51600  0.75000  Biso   1.000  Co
  Fe5      1.0000 0.48800  0.74400  0.75000  Biso   1.000  Fe
  O53      1.0000 0.65350  0.82675  0.75000  Biso   1.000  O
  Co5      1.0000 0.48400  0.74200  0.75000  Biso   1.000  Co
  Fe6      1.0000 0.25600  0.74400  0.75000  Biso   1.000  Fe
  O54      1.0000 0.17325  0.82675  0.75000  Biso   1.000  O
  Co6      1.0000 0.25800  0.74200  0.75000  Biso   1.000  Co
  O55      1.0000 0.66667  0.33333  0.25000  Biso   1.000  O
  O56      1.0000 0.33333  0.66667  0.75000  Biso   1.000  O
  C25      1.0000 0.56330  0.43670  0.13750  Biso   1.000  C
  C26      1.0000 0.53020  0.46980  0.06740  Biso   1.000  C
  C27      1.0000 0.56330  0.12660  0.13750  Biso   1.000  C
  C28      1.0000 0.53020  0.06040  0.06740  Biso   1.000  C
  C29      1.0000 0.87340  0.43670  0.13750  Biso   1.000  C
  C30      1.0000 0.93960  0.46980  0.06740  Biso   1.000  C
  C31      1.0000 0.43670  0.56330  0.63750  Biso   1.000  C
  C32      1.0000 0.46980  0.53020  0.56740  Biso   1.000  C
  C33      1.0000 0.43670  0.87340  0.63750  Biso   1.000  C
  C34      1.0000 0.46980  0.93960  0.56740  Biso   1.000  C
  C35      1.0000 0.12660  0.56330  0.63750  Biso   1.000  C
  C36      1.0000 0.06040  0.53020  0.56740  Biso   1.000  C
  C37      1.0000 0.43670  0.56330  0.86250  Biso   1.000  C
  C38      1.0000 0.46980  0.53020  0.93260  Biso   1.000  C
  C39      1.0000 0.12660  0.56330  0.86250  Biso   1.000  C
  C40      1.0000 0.06040  0.53020  0.93260  Biso   1.000  C
  C41      1.0000 0.43670  0.87340  0.86250  Biso   1.000  C
  C42      1.0000 0.46980  0.93960  0.93260  Biso   1.000  C
  C43      1.0000 0.56330  0.43670  0.36250  Biso   1.000  C
  C44      1.0000 0.53020  0.46980  0.43260  Biso   1.000  C
  C45      1.0000 0.87340  0.43670  0.36250  Biso   1.000  C
  C46      1.0000 0.93960  0.46980  0.43260  Biso   1.000  C
  C47      1.0000 0.56330  0.12660  0.36250  Biso   1.000  C
  C48      1.0000 0.53020  0.06040  0.43260  Biso   1.000  C
