data_TOXNAX_clean
_audit_creation_date              2015-10-16
_audit_creation_method            'Materials Studio'
_symmetry_space_group_name_H-M    'P1'
_symmetry_Int_Tables_number       1
_symmetry_cell_setting            triclinic
loop_
_symmetry_equiv_pos_as_xyz
  x,y,z
_cell_length_a                    11.8018
_cell_length_b                    12.0171
_cell_length_c                    12.0171
_cell_angle_alpha                 76.0473
_cell_angle_beta                  60.5910
_cell_angle_gamma                 60.5910
loop_
_atom_site_label
_atom_site_type_symbol
_atom_site_fract_x
_atom_site_fract_y
_atom_site_fract_z
_atom_site_U_iso_or_equiv
_atom_site_adp_type
_atom_site_occupancy
Al1    Al    0.19415   0.00000   0.61170   0.01267  Uiso   1.00
Al2    Al    0.44416   0.11169   0.50000   0.01267  Uiso   1.00
Al3    Al    0.05584   0.88831   0.50000   0.01267  Uiso   1.00
Al4    Al    0.80585   0.00000   0.38830   0.01267  Uiso   1.00
H1     H     0.45077   0.05044   0.19646   0.01267  Uiso   1.00
H2     H     0.89723   0.30354   0.55044   0.01267  Uiso   1.00
H3     H     0.43980   0.93520   0.43520   0.01267  Uiso   1.00
H4     H     0.49879   0.05044   0.80354   0.01267  Uiso   1.00
H5     H     0.79923   0.30354   0.44956   0.01267  Uiso   1.00
H6     H     0.35277   0.94956   0.19646   0.01267  Uiso   1.00
H7     H     0.12500   0.06480   0.43520   0.01267  Uiso   1.00
H8     H     0.62500   0.93520   0.56480   0.01267  Uiso   1.00
H9     H     0.11416   0.00000   0.00000   0.01267  Uiso   1.00
H10    H     0.13584   0.50000   0.50000   0.01267  Uiso   1.00
H11    H     0.69767   0.94956   0.80354   0.01267  Uiso   1.00
H12    H     0.36416   0.50000   0.50000   0.01267  Uiso   1.00
H13    H     0.81020   0.06480   0.56480   0.01267  Uiso   1.00
H14    H     0.55233   0.69646   0.55044   0.01267  Uiso   1.00
H15    H     0.88584   0.00000   0.00000   0.01267  Uiso   1.00
H16    H     0.75121   0.69646   0.44956   0.01267  Uiso   1.00
C1     C     0.42304   0.02884   0.88768   0.01267  Uiso   1.00
C2     C     0.79687   0.00000   0.00000   0.01267  Uiso   1.00
C3     C     0.45313   0.50000   0.50000   0.01267  Uiso   1.00
C4     C     0.93982   0.95296   0.76686   0.01267  Uiso   1.00
C5     C     0.33956   0.97116   0.11232   0.01267  Uiso   1.00
C6     C     0.95668   0.73314   0.45296   0.01267  Uiso   1.00
C7     C     0.69069   0.50000   0.50000   0.01267  Uiso   1.00
C8     C     0.80806   0.97116   0.88768   0.01267  Uiso   1.00
C9     C     0.30426   0.02884   0.88768   0.01267  Uiso   1.00
C10    C     0.58310   0.38768   0.47116   0.01267  Uiso   1.00
C11    C     0.65964   0.04704   0.23314   0.01267  Uiso   1.00
C12    C     0.20313   0.00000   0.00000   0.01267  Uiso   1.00
C13    C     0.66690   0.02884   0.11232   0.01267  Uiso   1.00
C14    C     0.54812   0.02884   0.11232   0.01267  Uiso   1.00
C15    C     0.59036   0.26686   0.45296   0.01267  Uiso   1.00
C16    C     0.56072   0.61232   0.52884   0.01267  Uiso   1.00
C17    C     0.04687   0.50000   0.50000   0.01267  Uiso   1.00
C18    C     0.02922   0.38768   0.52884   0.01267  Uiso   1.00
C19    C     0.29332   0.04704   0.76686   0.01267  Uiso   1.00
C20    C     0.31018   0.73314   0.54704   0.01267  Uiso   1.00
C21    C     0.80931   0.50000   0.50000   0.01267  Uiso   1.00
C22    C     0.44194   0.61232   0.52884   0.01267  Uiso   1.00
C23    C     0.68928   0.97116   0.88768   0.01267  Uiso   1.00
C24    C     0.94574   0.61232   0.47116   0.01267  Uiso   1.00
C25    C     0.70188   0.38768   0.47116   0.01267  Uiso   1.00
C26    C     0.22078   0.97116   0.11232   0.01267  Uiso   1.00
C27    C     0.91044   0.38768   0.52884   0.01267  Uiso   1.00
C28    C     0.14278   0.26686   0.54704   0.01267  Uiso   1.00
C29    C     0.82696   0.61232   0.47116   0.01267  Uiso   1.00
C30    C     0.55931  -0.00000   0.00000   0.01267  Uiso   1.00
C31    C     0.10722   0.95296   0.23314   0.01267  Uiso   1.00
C32    C     0.44069   0.00000   0.00000   0.01267  Uiso   1.00
O1     O     0.53770   0.11043   0.31989   0.01267  Uiso   1.00
O2     O     0.87099   0.00401   0.50401   0.01267  Uiso   1.00
O3     O     0.02398   0.74286   0.50180   0.01267  Uiso   1.00
O4     O     0.98136   0.00180   0.24286   0.01267  Uiso   1.00
O5     O     0.77578   0.99820   0.24286   0.01267  Uiso   1.00
O6     O     0.96802   0.88957   0.68011   0.01267  Uiso   1.00
O7     O     0.10759   0.18011   0.61043   0.01267  Uiso   1.00
O8     O     0.47422   0.25714   0.50180   0.01267  Uiso   1.00
O9     O     0.71230   0.18011   0.38957   0.01267  Uiso   1.00
O10    O     0.37901   0.99599   0.49599   0.01267  Uiso   1.00
O11    O     0.23316   0.74286   0.49820   0.01267  Uiso   1.00
O12    O     0.14241   0.88957   0.31989   0.01267  Uiso   1.00
O13    O     0.35187   0.11043   0.68011   0.01267  Uiso   1.00
O14    O     0.22602   0.99820   0.75714   0.01267  Uiso   1.00
O15    O     0.26864   0.25714   0.49820   0.01267  Uiso   1.00
O16    O     0.01684   0.00180   0.75714   0.01267  Uiso   1.00
O17    O     0.89813   0.81989   0.38957   0.01267  Uiso   1.00
O18    O     0.12500   0.00401   0.49599   0.01267  Uiso   1.00
O19    O     0.62500   0.99599   0.50401   0.01267  Uiso   1.00
O20    O     0.28198   0.81989   0.61043   0.01267  Uiso   1.00
H17    H     0.81200   0.40430   0.84770   0.01267  Uiso   1.00
H18    H     0.35400   0.63220   0.00780   0.01267  Uiso   1.00
H19    H     0.12840   0.49640   0.74860   0.01267  Uiso   1.00
H20    H     0.87480   0.24860   0.00360   0.01267  Uiso   1.00
H21    H     0.06400   0.59570   0.15230   0.01267  Uiso   1.00
H22    H     0.22700   0.48300   0.83700   0.01267  Uiso   1.00
H23    H     0.99400   0.36780   0.99220   0.01267  Uiso   1.00
H24    H     0.43800   0.65230   0.09570   0.01267  Uiso   1.00
H25    H     0.37520   0.49640   0.25140   0.01267  Uiso   1.00
H26    H     0.63820   0.36780   0.00780   0.01267  Uiso   1.00
H27    H     0.70300   0.33700   0.98300   0.01267  Uiso   1.00
H28    H     0.25600   0.50780   0.13220   0.01267  Uiso   1.00
H29    H     0.37340   0.50360   0.25140   0.01267  Uiso   1.00
H30    H     0.46630   0.34770   0.09570   0.01267  Uiso   1.00
H31    H     0.54700   0.51700   0.16300   0.01267  Uiso   1.00
H32    H     0.61180   0.49220   0.13220   0.01267  Uiso   1.00
H33    H     0.01380   0.63220   0.99220   0.01267  Uiso   1.00
H34    H     0.93600   0.51700   0.83700   0.01267  Uiso   1.00
H35    H     0.87660   0.24860   0.99640   0.01267  Uiso   1.00
H36    H     0.78370   0.40430   0.15230   0.01267  Uiso   1.00
H37    H     0.96000   0.33700   0.01700   0.01267  Uiso   1.00
H38    H     0.18600   0.34770   0.90430   0.01267  Uiso   1.00
H39    H     0.02300   0.66300   0.01700   0.01267  Uiso   1.00
H40    H     0.12700   0.75140   0.99640   0.01267  Uiso   1.00
H41    H     0.31400   0.66300   0.98300   0.01267  Uiso   1.00
H42    H     0.12160   0.75140   0.00360   0.01267  Uiso   1.00
H43    H     0.34030   0.59570   0.84770   0.01267  Uiso   1.00
H44    H     0.89600   0.49220   0.86780   0.01267  Uiso   1.00
H45    H     0.29000   0.48300   0.16300   0.01267  Uiso   1.00
H46    H     0.90970   0.65230   0.90430   0.01267  Uiso   1.00
H47    H     0.23620   0.50780   0.86780   0.01267  Uiso   1.00
H48    H     0.12300   0.50360   0.74860   0.01267  Uiso   1.00
C33    C     0.53130   0.39170   0.08770   0.01267  Uiso   1.00
C34    C     0.01070   0.60830   0.91230   0.01267  Uiso   1.00
C35    C     0.12400   0.67200   0.97200   0.01267  Uiso   1.00
C36    C     0.90400   0.32800   0.97200   0.01267  Uiso   1.00
C37    C     0.04600   0.47200   0.82800   0.01267  Uiso   1.00
C38    C     0.34600   0.52800   0.17200   0.01267  Uiso   1.00
C39    C     0.48200   0.47200   0.17200   0.01267  Uiso   1.00
C40    C     0.86900   0.41230   0.89170   0.01267  Uiso   1.00
C41    C     0.07700   0.39170   0.91230   0.01267  Uiso   1.00
C42    C     0.38100   0.60830   0.08770   0.01267  Uiso   1.00
C43    C     0.17300   0.58770   0.10830   0.01267  Uiso   1.00
C44    C     0.76800   0.32800   0.02800   0.01267  Uiso   1.00
C45    C     0.20400   0.67200   0.02800   0.01267  Uiso   1.00
C46    C     0.71870   0.41230   0.10830   0.01267  Uiso   1.00
C47    C     0.12600   0.52800   0.82800   0.01267  Uiso   1.00
C48    C     0.23930   0.58770   0.89170   0.01267  Uiso   1.00
