data_image0
_cell_length_a       24.836
_cell_length_b       9.6903
_cell_length_c       21.6527
_cell_angle_alpha    90
_cell_angle_beta     103.244
_cell_angle_gamma    90

_symmetry_space_group_name_H-M    "P 1"
_symmetry_int_tables_number       1

loop_
  _symmetry_equiv_pos_as_xyz
  'x, y, z'

loop_
  _atom_site_label
  _atom_site_occupancy
  _atom_site_fract_x
  _atom_site_fract_y
  _atom_site_fract_z
  _atom_site_thermal_displace_type
  _atom_site_B_iso_or_equiv
  _atom_site_type_symbol
  Cu1      1.0000 0.70213  0.08463  0.53012  Biso   1.000  Cu
  Cl1      1.0000 0.71410  0.31850  0.80150  Biso   1.000  Cl
  O1       1.0000 0.73536  0.29990  0.56535  Biso   1.000  O
  O2       1.0000 0.81001  0.42480  0.56186  Biso   1.000  O
  O3       1.0000 0.79391  0.55090  0.88010  Biso   1.000  O
  O4       1.0000 0.85740  0.38230  0.89941  Biso   1.000  O
  N1       1.0000 0.62457  0.15540  0.51774  Biso   1.000  N
  N2       1.0000 0.27670  0.49630  0.54019  Biso   1.000  N
  C1       1.0000 0.77691  0.36920  0.59039  Biso   1.000  C
  C2       1.0000 0.78861  0.39040  0.66019  Biso   1.000  C
  C3       1.0000 0.81120  0.43160  0.79378  Biso   1.000  C
  C4       1.0000 0.75115  0.35090  0.69500  Biso   1.000  C
  H1       1.0000 0.71740  0.30920  0.67370  Biso   1.000  H
  C5       1.0000 0.76140  0.37040  0.76110  Biso   1.000  C
  C6       1.0000 0.85090  0.47160  0.75900  Biso   1.000  C
  H2       1.0000 0.88500  0.51140  0.78040  Biso   1.000  H
  C7       1.0000 0.83940  0.45190  0.69270  Biso   1.000  C
  H3       1.0000 0.86570  0.47990  0.66950  Biso   1.000  H
  C8       1.0000 0.82246  0.45240  0.86397  Biso   1.000  C
  C9       1.0000 0.58318  0.10780  0.47230  Biso   1.000  C
  H4       1.0000 0.59160  0.04550  0.44200  Biso   1.000  H
  C10      1.0000 0.52846  0.14510  0.46720  Biso   1.000  C
  H5       1.0000 0.50000  0.10670  0.43480  Biso   1.000  H
  C11      1.0000 0.51565  0.23940  0.51004  Biso   1.000  C
  C12      1.0000 0.55924  0.28990  0.55660  Biso   1.000  C
  H6       1.0000 0.55250  0.35500  0.58680  Biso   1.000  H
  C13      1.0000 0.61211  0.24560  0.55880  Biso   1.000  C
  H7       1.0000 0.64130  0.28100  0.59120  Biso   1.000  H
  C14      1.0000 0.45756  0.27760  0.50610  Biso   1.000  C
  H8       1.0000 0.42980  0.23560  0.47410  Biso   1.000  H
  C15      1.0000 0.44182  0.36750  0.54480  Biso   1.000  C
  H9       1.0000 0.47000  0.40970  0.57620  Biso   1.000  H
  C16      1.0000 0.38444  0.40680  0.54300  Biso   1.000  C
  C17      1.0000 0.37364  0.50290  0.58590  Biso   1.000  C
  H10      1.0000 0.40330  0.54170  0.61670  Biso   1.000  H
  C18      1.0000 0.31997  0.54230  0.58412  Biso   1.000  C
  H11      1.0000 0.31340  0.60480  0.61540  Biso   1.000  H
  C19      1.0000 0.28679  0.40210  0.49841  Biso   1.000  C
  H12      1.0000 0.25650  0.36730  0.46730  Biso   1.000  H
  C20      1.0000 0.33899  0.35400  0.49873  Biso   1.000  C
  H13      1.0000 0.34410  0.28560  0.46920  Biso   1.000  H
  Cl2      1.0000 0.73460  0.24930  0.80960  Biso   1.000  Cl
  Cl3      1.0000 0.89170  0.62210  0.79360  Biso   1.000  Cl
  Cl4      1.0000 0.82600  0.65610  0.64810  Biso   1.000  Cl
  C21      1.0000 0.75821  0.31490  0.69795  Biso   1.000  C
  H14      1.0000 0.73040  0.25110  0.67860  Biso   1.000  H
  C22      1.0000 0.77013  0.33640  0.76383  Biso   1.000  C
  C23      1.0000 0.84106  0.50460  0.75601  Biso   1.000  C
  H15      1.0000 0.86900  0.56800  0.77540  Biso   1.000  H
  C24      1.0000 0.82979  0.48410  0.68999  Biso   1.000  C
  H16      1.0000 0.85020  0.53410  0.66520  Biso   1.000  H
  H17      1.0000 0.75020  0.28590  0.78890  Biso   1.000  H
  C25      1.0000 0.77820  0.28740  0.70030  Biso   1.000  C
  H18      1.0000 0.76380  0.20170  0.68260  Biso   1.000  H
  C26      1.0000 0.78850  0.30580  0.76660  Biso   1.000  C
  H19      1.0000 0.78010  0.23410  0.79290  Biso   1.000  H
  C27      1.0000 0.82170  0.53880  0.75350  Biso   1.000  C
  H20      1.0000 0.83560  0.62490  0.77110  Biso   1.000  H
  C28      1.0000 0.81140  0.51780  0.68750  Biso   1.000  C
  Cu2      1.0000 0.20213  0.58463  0.53012  Biso   1.000  Cu
  Cl5      1.0000 0.21410  0.81850  0.80150  Biso   1.000  Cl
  O5       1.0000 0.23536  0.79990  0.56535  Biso   1.000  O
  O6       1.0000 0.31001  0.92480  0.56186  Biso   1.000  O
  O7       1.0000 0.29391  0.05090  0.88010  Biso   1.000  O
  O8       1.0000 0.35740  0.88230  0.89941  Biso   1.000  O
  N3       1.0000 0.12457  0.65540  0.51774  Biso   1.000  N
  N4       1.0000 0.77670  0.99630  0.54019  Biso   1.000  N
  C29      1.0000 0.27691  0.86920  0.59039  Biso   1.000  C
  C30      1.0000 0.28861  0.89040  0.66019  Biso   1.000  C
  C31      1.0000 0.31120  0.93160  0.79378  Biso   1.000  C
  C32      1.0000 0.25115  0.85090  0.69500  Biso   1.000  C
  H21      1.0000 0.21740  0.80920  0.67370  Biso   1.000  H
  C33      1.0000 0.26140  0.87040  0.76110  Biso   1.000  C
  C34      1.0000 0.35090  0.97160  0.75900  Biso   1.000  C
  H22      1.0000 0.38500  0.01140  0.78040  Biso   1.000  H
  C35      1.0000 0.33940  0.95190  0.69270  Biso   1.000  C
  H23      1.0000 0.36570  0.97990  0.66950  Biso   1.000  H
  C36      1.0000 0.32246  0.95240  0.86397  Biso   1.000  C
  C37      1.0000 0.08318  0.60780  0.47230  Biso   1.000  C
  H24      1.0000 0.09160  0.54550  0.44200  Biso   1.000  H
  C38      1.0000 0.02846  0.64510  0.46720  Biso   1.000  C
  H25      1.0000 0.00000  0.60670  0.43480  Biso   1.000  H
  C39      1.0000 0.01565  0.73940  0.51004  Biso   1.000  C
  C40      1.0000 0.05924  0.78990  0.55660  Biso   1.000  C
  H26      1.0000 0.05250  0.85500  0.58680  Biso   1.000  H
  C41      1.0000 0.11211  0.74560  0.55880  Biso   1.000  C
  H27      1.0000 0.14130  0.78100  0.59120  Biso   1.000  H
  C42      1.0000 0.95756  0.77760  0.50610  Biso   1.000  C
  H28      1.0000 0.92980  0.73560  0.47410  Biso   1.000  H
  C43      1.0000 0.94182  0.86750  0.54480  Biso   1.000  C
  H29      1.0000 0.97000  0.90970  0.57620  Biso   1.000  H
  C44      1.0000 0.88444  0.90680  0.54300  Biso   1.000  C
  C45      1.0000 0.87364  0.00290  0.58590  Biso   1.000  C
  H30      1.0000 0.90330  0.04170  0.61670  Biso   1.000  H
  C46      1.0000 0.81997  0.04230  0.58412  Biso   1.000  C
  H31      1.0000 0.81340  0.10480  0.61540  Biso   1.000  H
  C47      1.0000 0.78679  0.90210  0.49841  Biso   1.000  C
  H32      1.0000 0.75650  0.86730  0.46730  Biso   1.000  H
  C48      1.0000 0.83899  0.85400  0.49873  Biso   1.000  C
  H33      1.0000 0.84410  0.78560  0.46920  Biso   1.000  H
  Cl6      1.0000 0.23460  0.74930  0.80960  Biso   1.000  Cl
  Cl7      1.0000 0.39170  0.12210  0.79360  Biso   1.000  Cl
  Cl8      1.0000 0.32600  0.15610  0.64810  Biso   1.000  Cl
  C49      1.0000 0.25821  0.81490  0.69795  Biso   1.000  C
  H34      1.0000 0.23040  0.75110  0.67860  Biso   1.000  H
  C50      1.0000 0.27013  0.83640  0.76383  Biso   1.000  C
  C51      1.0000 0.34106  0.00460  0.75601  Biso   1.000  C
  H35      1.0000 0.36900  0.06800  0.77540  Biso   1.000  H
  C52      1.0000 0.32979  0.98410  0.68999  Biso   1.000  C
  H36      1.0000 0.35020  0.03410  0.66520  Biso   1.000  H
  H37      1.0000 0.25020  0.78590  0.78890  Biso   1.000  H
  C53      1.0000 0.27820  0.78740  0.70030  Biso   1.000  C
  H38      1.0000 0.26380  0.70170  0.68260  Biso   1.000  H
  C54      1.0000 0.28850  0.80580  0.76660  Biso   1.000  C
  H39      1.0000 0.28010  0.73410  0.79290  Biso   1.000  H
  C55      1.0000 0.32170  0.03880  0.75350  Biso   1.000  C
  H40      1.0000 0.33560  0.12490  0.77110  Biso   1.000  H
  C56      1.0000 0.31140  0.01780  0.68750  Biso   1.000  C
  Cu3      1.0000 0.29787  0.08463  0.96988  Biso   1.000  Cu
  Cl9      1.0000 0.28590  0.31850  0.69850  Biso   1.000  Cl
  O9       1.0000 0.26464  0.29990  0.93465  Biso   1.000  O
  O10      1.0000 0.18999  0.42480  0.93814  Biso   1.000  O
  O11      1.0000 0.20609  0.55090  0.61990  Biso   1.000  O
  O12      1.0000 0.14260  0.38230  0.60059  Biso   1.000  O
  N5       1.0000 0.37543  0.15540  0.98226  Biso   1.000  N
  N6       1.0000 0.72330  0.49630  0.95981  Biso   1.000  N
  C57      1.0000 0.22309  0.36920  0.90961  Biso   1.000  C
  C58      1.0000 0.21139  0.39040  0.83981  Biso   1.000  C
  C59      1.0000 0.18880  0.43160  0.70622  Biso   1.000  C
  C60      1.0000 0.24885  0.35090  0.80500  Biso   1.000  C
  H41      1.0000 0.28260  0.30920  0.82630  Biso   1.000  H
  C61      1.0000 0.23860  0.37040  0.73890  Biso   1.000  C
  C62      1.0000 0.14910  0.47160  0.74100  Biso   1.000  C
  H42      1.0000 0.11500  0.51140  0.71960  Biso   1.000  H
  C63      1.0000 0.16060  0.45190  0.80730  Biso   1.000  C
  H43      1.0000 0.13430  0.47990  0.83050  Biso   1.000  H
  C64      1.0000 0.17754  0.45240  0.63603  Biso   1.000  C
  C65      1.0000 0.41682  0.10780  0.02770  Biso   1.000  C
  H44      1.0000 0.40840  0.04550  0.05800  Biso   1.000  H
  C66      1.0000 0.47154  0.14510  0.03280  Biso   1.000  C
  H45      1.0000 0.50000  0.10670  0.06520  Biso   1.000  H
  C67      1.0000 0.48435  0.23940  0.98996  Biso   1.000  C
  C68      1.0000 0.44076  0.28990  0.94340  Biso   1.000  C
  H46      1.0000 0.44750  0.35500  0.91320  Biso   1.000  H
  C69      1.0000 0.38789  0.24560  0.94120  Biso   1.000  C
  H47      1.0000 0.35870  0.28100  0.90880  Biso   1.000  H
  C70      1.0000 0.54244  0.27760  0.99390  Biso   1.000  C
  H48      1.0000 0.57020  0.23560  0.02590  Biso   1.000  H
  C71      1.0000 0.55818  0.36750  0.95520  Biso   1.000  C
  H49      1.0000 0.53000  0.40970  0.92380  Biso   1.000  H
  C72      1.0000 0.61556  0.40680  0.95700  Biso   1.000  C
  C73      1.0000 0.62636  0.50290  0.91410  Biso   1.000  C
  H50      1.0000 0.59670  0.54170  0.88330  Biso   1.000  H
  C74      1.0000 0.68003  0.54230  0.91588  Biso   1.000  C
  H51      1.0000 0.68660  0.60480  0.88460  Biso   1.000  H
  C75      1.0000 0.71321  0.40210  0.00159  Biso   1.000  C
  H52      1.0000 0.74350  0.36730  0.03270  Biso   1.000  H
  C76      1.0000 0.66101  0.35400  0.00127  Biso   1.000  C
  H53      1.0000 0.65590  0.28560  0.03080  Biso   1.000  H
  Cl10     1.0000 0.26540  0.24930  0.69040  Biso   1.000  Cl
  Cl11     1.0000 0.10830  0.62210  0.70640  Biso   1.000  Cl
  Cl12     1.0000 0.17400  0.65610  0.85190  Biso   1.000  Cl
  C77      1.0000 0.24179  0.31490  0.80205  Biso   1.000  C
  H54      1.0000 0.26960  0.25110  0.82140  Biso   1.000  H
  C78      1.0000 0.22987  0.33640  0.73617  Biso   1.000  C
  C79      1.0000 0.15894  0.50460  0.74399  Biso   1.000  C
  H55      1.0000 0.13100  0.56800  0.72460  Biso   1.000  H
  C80      1.0000 0.17021  0.48410  0.81001  Biso   1.000  C
  H56      1.0000 0.14980  0.53410  0.83480  Biso   1.000  H
  H57      1.0000 0.24980  0.28590  0.71110  Biso   1.000  H
  C81      1.0000 0.22180  0.28740  0.79970  Biso   1.000  C
  H58      1.0000 0.23620  0.20170  0.81740  Biso   1.000  H
  C82      1.0000 0.21150  0.30580  0.73340  Biso   1.000  C
  H59      1.0000 0.21990  0.23410  0.70710  Biso   1.000  H
  C83      1.0000 0.17830  0.53880  0.74650  Biso   1.000  C
  H60      1.0000 0.16440  0.62490  0.72890  Biso   1.000  H
  C84      1.0000 0.18860  0.51780  0.81250  Biso   1.000  C
  Cu4      1.0000 0.79787  0.58463  0.96988  Biso   1.000  Cu
  Cl13     1.0000 0.78590  0.81850  0.69850  Biso   1.000  Cl
  O13      1.0000 0.76464  0.79990  0.93465  Biso   1.000  O
  O14      1.0000 0.68999  0.92480  0.93814  Biso   1.000  O
  O15      1.0000 0.70609  0.05090  0.61990  Biso   1.000  O
  O16      1.0000 0.64260  0.88230  0.60059  Biso   1.000  O
  N7       1.0000 0.87543  0.65540  0.98226  Biso   1.000  N
  N8       1.0000 0.22330  0.99630  0.95981  Biso   1.000  N
  C85      1.0000 0.72309  0.86920  0.90961  Biso   1.000  C
  C86      1.0000 0.71139  0.89040  0.83981  Biso   1.000  C
  C87      1.0000 0.68880  0.93160  0.70622  Biso   1.000  C
  C88      1.0000 0.74885  0.85090  0.80500  Biso   1.000  C
  H61      1.0000 0.78260  0.80920  0.82630  Biso   1.000  H
  C89      1.0000 0.73860  0.87040  0.73890  Biso   1.000  C
  C90      1.0000 0.64910  0.97160  0.74100  Biso   1.000  C
  H62      1.0000 0.61500  0.01140  0.71960  Biso   1.000  H
  C91      1.0000 0.66060  0.95190  0.80730  Biso   1.000  C
  H63      1.0000 0.63430  0.97990  0.83050  Biso   1.000  H
  C92      1.0000 0.67754  0.95240  0.63603  Biso   1.000  C
  C93      1.0000 0.91682  0.60780  0.02770  Biso   1.000  C
  H64      1.0000 0.90840  0.54550  0.05800  Biso   1.000  H
  C94      1.0000 0.97154  0.64510  0.03280  Biso   1.000  C
  H65      1.0000 0.00000  0.60670  0.06520  Biso   1.000  H
  C95      1.0000 0.98435  0.73940  0.98996  Biso   1.000  C
  C96      1.0000 0.94076  0.78990  0.94340  Biso   1.000  C
  H66      1.0000 0.94750  0.85500  0.91320  Biso   1.000  H
  C97      1.0000 0.88789  0.74560  0.94120  Biso   1.000  C
  H67      1.0000 0.85870  0.78100  0.90880  Biso   1.000  H
  C98      1.0000 0.04244  0.77760  0.99390  Biso   1.000  C
  H68      1.0000 0.07020  0.73560  0.02590  Biso   1.000  H
  C99      1.0000 0.05818  0.86750  0.95520  Biso   1.000  C
  H69      1.0000 0.03000  0.90970  0.92380  Biso   1.000  H
  C100     1.0000 0.11556  0.90680  0.95700  Biso   1.000  C
  C101     1.0000 0.12636  0.00290  0.91410  Biso   1.000  C
  H70      1.0000 0.09670  0.04170  0.88330  Biso   1.000  H
  C102     1.0000 0.18003  0.04230  0.91588  Biso   1.000  C
  H71      1.0000 0.18660  0.10480  0.88460  Biso   1.000  H
  C103     1.0000 0.21321  0.90210  0.00159  Biso   1.000  C
  H72      1.0000 0.24350  0.86730  0.03270  Biso   1.000  H
  C104     1.0000 0.16101  0.85400  0.00127  Biso   1.000  C
  H73      1.0000 0.15590  0.78560  0.03080  Biso   1.000  H
  Cl14     1.0000 0.76540  0.74930  0.69040  Biso   1.000  Cl
  Cl15     1.0000 0.60830  0.12210  0.70640  Biso   1.000  Cl
  Cl16     1.0000 0.67400  0.15610  0.85190  Biso   1.000  Cl
  C105     1.0000 0.74179  0.81490  0.80205  Biso   1.000  C
  H74      1.0000 0.76960  0.75110  0.82140  Biso   1.000  H
  C106     1.0000 0.72987  0.83640  0.73617  Biso   1.000  C
  C107     1.0000 0.65894  0.00460  0.74399  Biso   1.000  C
  H75      1.0000 0.63100  0.06800  0.72460  Biso   1.000  H
  C108     1.0000 0.67021  0.98410  0.81001  Biso   1.000  C
  H76      1.0000 0.64980  0.03410  0.83480  Biso   1.000  H
  H77      1.0000 0.74980  0.78590  0.71110  Biso   1.000  H
  C109     1.0000 0.72180  0.78740  0.79970  Biso   1.000  C
  H78      1.0000 0.73620  0.70170  0.81740  Biso   1.000  H
  C110     1.0000 0.71150  0.80580  0.73340  Biso   1.000  C
  H79      1.0000 0.71990  0.73410  0.70710  Biso   1.000  H
  C111     1.0000 0.67830  0.03880  0.74650  Biso   1.000  C
  H80      1.0000 0.66440  0.12490  0.72890  Biso   1.000  H
  C112     1.0000 0.68860  0.01780  0.81250  Biso   1.000  C
  Cu5      1.0000 0.29787  0.91537  0.46988  Biso   1.000  Cu
  Cl17     1.0000 0.28590  0.68150  0.19850  Biso   1.000  Cl
  O17      1.0000 0.26464  0.70010  0.43465  Biso   1.000  O
  O18      1.0000 0.18999  0.57520  0.43814  Biso   1.000  O
  O19      1.0000 0.20609  0.44910  0.11990  Biso   1.000  O
  O20      1.0000 0.14260  0.61770  0.10059  Biso   1.000  O
  N9       1.0000 0.37543  0.84460  0.48226  Biso   1.000  N
  N10      1.0000 0.72330  0.50370  0.45981  Biso   1.000  N
  C113     1.0000 0.22309  0.63080  0.40961  Biso   1.000  C
  C114     1.0000 0.21139  0.60960  0.33981  Biso   1.000  C
  C115     1.0000 0.18880  0.56840  0.20622  Biso   1.000  C
  C116     1.0000 0.24885  0.64910  0.30500  Biso   1.000  C
  H81      1.0000 0.28260  0.69080  0.32630  Biso   1.000  H
  C117     1.0000 0.23860  0.62960  0.23890  Biso   1.000  C
  C118     1.0000 0.14910  0.52840  0.24100  Biso   1.000  C
  H82      1.0000 0.11500  0.48860  0.21960  Biso   1.000  H
  C119     1.0000 0.16060  0.54810  0.30730  Biso   1.000  C
  H83      1.0000 0.13430  0.52010  0.33050  Biso   1.000  H
  C120     1.0000 0.17754  0.54760  0.13603  Biso   1.000  C
  C121     1.0000 0.41682  0.89220  0.52770  Biso   1.000  C
  H84      1.0000 0.40840  0.95450  0.55800  Biso   1.000  H
  C122     1.0000 0.47154  0.85490  0.53280  Biso   1.000  C
  H85      1.0000 0.50000  0.89330  0.56520  Biso   1.000  H
  C123     1.0000 0.48435  0.76060  0.48996  Biso   1.000  C
  C124     1.0000 0.44076  0.71010  0.44340  Biso   1.000  C
  H86      1.0000 0.44750  0.64500  0.41320  Biso   1.000  H
  C125     1.0000 0.38789  0.75440  0.44120  Biso   1.000  C
  H87      1.0000 0.35870  0.71900  0.40880  Biso   1.000  H
  C126     1.0000 0.54244  0.72240  0.49390  Biso   1.000  C
  H88      1.0000 0.57020  0.76440  0.52590  Biso   1.000  H
  C127     1.0000 0.55818  0.63250  0.45520  Biso   1.000  C
  H89      1.0000 0.53000  0.59030  0.42380  Biso   1.000  H
  C128     1.0000 0.61556  0.59320  0.45700  Biso   1.000  C
  C129     1.0000 0.62636  0.49710  0.41410  Biso   1.000  C
  H90      1.0000 0.59670  0.45830  0.38330  Biso   1.000  H
  C130     1.0000 0.68003  0.45770  0.41588  Biso   1.000  C
  H91      1.0000 0.68660  0.39520  0.38460  Biso   1.000  H
  C131     1.0000 0.71321  0.59790  0.50159  Biso   1.000  C
  H92      1.0000 0.74350  0.63270  0.53270  Biso   1.000  H
  C132     1.0000 0.66101  0.64600  0.50127  Biso   1.000  C
  H93      1.0000 0.65590  0.71440  0.53080  Biso   1.000  H
  Cl18     1.0000 0.26540  0.75070  0.19040  Biso   1.000  Cl
  Cl19     1.0000 0.10830  0.37790  0.20640  Biso   1.000  Cl
  Cl20     1.0000 0.17400  0.34390  0.35190  Biso   1.000  Cl
  C133     1.0000 0.24179  0.68510  0.30205  Biso   1.000  C
  H94      1.0000 0.26960  0.74890  0.32140  Biso   1.000  H
  C134     1.0000 0.22987  0.66360  0.23617  Biso   1.000  C
  C135     1.0000 0.15894  0.49540  0.24399  Biso   1.000  C
  H95      1.0000 0.13100  0.43200  0.22460  Biso   1.000  H
  C136     1.0000 0.17021  0.51590  0.31001  Biso   1.000  C
  H96      1.0000 0.14980  0.46590  0.33480  Biso   1.000  H
  H97      1.0000 0.24980  0.71410  0.21110  Biso   1.000  H
  C137     1.0000 0.22180  0.71260  0.29970  Biso   1.000  C
  H98      1.0000 0.23620  0.79830  0.31740  Biso   1.000  H
  C138     1.0000 0.21150  0.69420  0.23340  Biso   1.000  C
  H99      1.0000 0.21990  0.76590  0.20710  Biso   1.000  H
  C139     1.0000 0.17830  0.46120  0.24650  Biso   1.000  C
  H100     1.0000 0.16440  0.37510  0.22890  Biso   1.000  H
  C140     1.0000 0.18860  0.48220  0.31250  Biso   1.000  C
  Cu6      1.0000 0.79787  0.41537  0.46988  Biso   1.000  Cu
  Cl21     1.0000 0.78590  0.18150  0.19850  Biso   1.000  Cl
  O21      1.0000 0.76464  0.20010  0.43465  Biso   1.000  O
  O22      1.0000 0.68999  0.07520  0.43814  Biso   1.000  O
  O23      1.0000 0.70609  0.94910  0.11990  Biso   1.000  O
  O24      1.0000 0.64260  0.11770  0.10059  Biso   1.000  O
  N11      1.0000 0.87543  0.34460  0.48226  Biso   1.000  N
  N12      1.0000 0.22330  0.00370  0.45981  Biso   1.000  N
  C141     1.0000 0.72309  0.13080  0.40961  Biso   1.000  C
  C142     1.0000 0.71139  0.10960  0.33981  Biso   1.000  C
  C143     1.0000 0.68880  0.06840  0.20622  Biso   1.000  C
  C144     1.0000 0.74885  0.14910  0.30500  Biso   1.000  C
  H101     1.0000 0.78260  0.19080  0.32630  Biso   1.000  H
  C145     1.0000 0.73860  0.12960  0.23890  Biso   1.000  C
  C146     1.0000 0.64910  0.02840  0.24100  Biso   1.000  C
  H102     1.0000 0.61500  0.98860  0.21960  Biso   1.000  H
  C147     1.0000 0.66060  0.04810  0.30730  Biso   1.000  C
  H103     1.0000 0.63430  0.02010  0.33050  Biso   1.000  H
  C148     1.0000 0.67754  0.04760  0.13603  Biso   1.000  C
  C149     1.0000 0.91682  0.39220  0.52770  Biso   1.000  C
  H104     1.0000 0.90840  0.45450  0.55800  Biso   1.000  H
  C150     1.0000 0.97154  0.35490  0.53280  Biso   1.000  C
  H105     1.0000 0.00000  0.39330  0.56520  Biso   1.000  H
  C151     1.0000 0.98435  0.26060  0.48996  Biso   1.000  C
  C152     1.0000 0.94076  0.21010  0.44340  Biso   1.000  C
  H106     1.0000 0.94750  0.14500  0.41320  Biso   1.000  H
  C153     1.0000 0.88789  0.25440  0.44120  Biso   1.000  C
  H107     1.0000 0.85870  0.21900  0.40880  Biso   1.000  H
  C154     1.0000 0.04244  0.22240  0.49390  Biso   1.000  C
  H108     1.0000 0.07020  0.26440  0.52590  Biso   1.000  H
  C155     1.0000 0.05818  0.13250  0.45520  Biso   1.000  C
  H109     1.0000 0.03000  0.09030  0.42380  Biso   1.000  H
  C156     1.0000 0.11556  0.09320  0.45700  Biso   1.000  C
  C157     1.0000 0.12636  0.99710  0.41410  Biso   1.000  C
  H110     1.0000 0.09670  0.95830  0.38330  Biso   1.000  H
  C158     1.0000 0.18003  0.95770  0.41588  Biso   1.000  C
  H111     1.0000 0.18660  0.89520  0.38460  Biso   1.000  H
  C159     1.0000 0.21321  0.09790  0.50159  Biso   1.000  C
  H112     1.0000 0.24350  0.13270  0.53270  Biso   1.000  H
  C160     1.0000 0.16101  0.14600  0.50127  Biso   1.000  C
  H113     1.0000 0.15590  0.21440  0.53080  Biso   1.000  H
  Cl22     1.0000 0.76540  0.25070  0.19040  Biso   1.000  Cl
  Cl23     1.0000 0.60830  0.87790  0.20640  Biso   1.000  Cl
  Cl24     1.0000 0.67400  0.84390  0.35190  Biso   1.000  Cl
  C161     1.0000 0.74179  0.18510  0.30205  Biso   1.000  C
  H114     1.0000 0.76960  0.24890  0.32140  Biso   1.000  H
  C162     1.0000 0.72987  0.16360  0.23617  Biso   1.000  C
  C163     1.0000 0.65894  0.99540  0.24399  Biso   1.000  C
  H115     1.0000 0.63100  0.93200  0.22460  Biso   1.000  H
  C164     1.0000 0.67021  0.01590  0.31001  Biso   1.000  C
  H116     1.0000 0.64980  0.96590  0.33480  Biso   1.000  H
  H117     1.0000 0.74980  0.21410  0.21110  Biso   1.000  H
  C165     1.0000 0.72180  0.21260  0.29970  Biso   1.000  C
  H118     1.0000 0.73620  0.29830  0.31740  Biso   1.000  H
  C166     1.0000 0.71150  0.19420  0.23340  Biso   1.000  C
  H119     1.0000 0.71990  0.26590  0.20710  Biso   1.000  H
  C167     1.0000 0.67830  0.96120  0.24650  Biso   1.000  C
  H120     1.0000 0.66440  0.87510  0.22890  Biso   1.000  H
  C168     1.0000 0.68860  0.98220  0.31250  Biso   1.000  C
  Cu7      1.0000 0.70213  0.91537  0.03012  Biso   1.000  Cu
  Cl25     1.0000 0.71410  0.68150  0.30150  Biso   1.000  Cl
  O25      1.0000 0.73536  0.70010  0.06535  Biso   1.000  O
  O26      1.0000 0.81001  0.57520  0.06186  Biso   1.000  O
  O27      1.0000 0.79391  0.44910  0.38010  Biso   1.000  O
  O28      1.0000 0.85740  0.61770  0.39941  Biso   1.000  O
  N13      1.0000 0.62457  0.84460  0.01774  Biso   1.000  N
  N14      1.0000 0.27670  0.50370  0.04019  Biso   1.000  N
  C169     1.0000 0.77691  0.63080  0.09039  Biso   1.000  C
  C170     1.0000 0.78861  0.60960  0.16019  Biso   1.000  C
  C171     1.0000 0.81120  0.56840  0.29378  Biso   1.000  C
  C172     1.0000 0.75115  0.64910  0.19500  Biso   1.000  C
  H121     1.0000 0.71740  0.69080  0.17370  Biso   1.000  H
  C173     1.0000 0.76140  0.62960  0.26110  Biso   1.000  C
  C174     1.0000 0.85090  0.52840  0.25900  Biso   1.000  C
  H122     1.0000 0.88500  0.48860  0.28040  Biso   1.000  H
  C175     1.0000 0.83940  0.54810  0.19270  Biso   1.000  C
  H123     1.0000 0.86570  0.52010  0.16950  Biso   1.000  H
  C176     1.0000 0.82246  0.54760  0.36397  Biso   1.000  C
  C177     1.0000 0.58318  0.89220  0.97230  Biso   1.000  C
  H124     1.0000 0.59160  0.95450  0.94200  Biso   1.000  H
  C178     1.0000 0.52846  0.85490  0.96720  Biso   1.000  C
  H125     1.0000 0.50000  0.89330  0.93480  Biso   1.000  H
  C179     1.0000 0.51565  0.76060  0.01004  Biso   1.000  C
  C180     1.0000 0.55924  0.71010  0.05660  Biso   1.000  C
  H126     1.0000 0.55250  0.64500  0.08680  Biso   1.000  H
  C181     1.0000 0.61211  0.75440  0.05880  Biso   1.000  C
  H127     1.0000 0.64130  0.71900  0.09120  Biso   1.000  H
  C182     1.0000 0.45756  0.72240  0.00610  Biso   1.000  C
  H128     1.0000 0.42980  0.76440  0.97410  Biso   1.000  H
  C183     1.0000 0.44182  0.63250  0.04480  Biso   1.000  C
  H129     1.0000 0.47000  0.59030  0.07620  Biso   1.000  H
  C184     1.0000 0.38444  0.59320  0.04300  Biso   1.000  C
  C185     1.0000 0.37364  0.49710  0.08590  Biso   1.000  C
  H130     1.0000 0.40330  0.45830  0.11670  Biso   1.000  H
  C186     1.0000 0.31997  0.45770  0.08412  Biso   1.000  C
  H131     1.0000 0.31340  0.39520  0.11540  Biso   1.000  H
  C187     1.0000 0.28679  0.59790  0.99841  Biso   1.000  C
  H132     1.0000 0.25650  0.63270  0.96730  Biso   1.000  H
  C188     1.0000 0.33899  0.64600  0.99873  Biso   1.000  C
  H133     1.0000 0.34410  0.71440  0.96920  Biso   1.000  H
  Cl26     1.0000 0.73460  0.75070  0.30960  Biso   1.000  Cl
  Cl27     1.0000 0.89170  0.37790  0.29360  Biso   1.000  Cl
  Cl28     1.0000 0.82600  0.34390  0.14810  Biso   1.000  Cl
  C189     1.0000 0.75821  0.68510  0.19795  Biso   1.000  C
  H134     1.0000 0.73040  0.74890  0.17860  Biso   1.000  H
  C190     1.0000 0.77013  0.66360  0.26383  Biso   1.000  C
  C191     1.0000 0.84106  0.49540  0.25601  Biso   1.000  C
  H135     1.0000 0.86900  0.43200  0.27540  Biso   1.000  H
  C192     1.0000 0.82979  0.51590  0.18999  Biso   1.000  C
  H136     1.0000 0.85020  0.46590  0.16520  Biso   1.000  H
  H137     1.0000 0.75020  0.71410  0.28890  Biso   1.000  H
  C193     1.0000 0.77820  0.71260  0.20030  Biso   1.000  C
  H138     1.0000 0.76380  0.79830  0.18260  Biso   1.000  H
  C194     1.0000 0.78850  0.69420  0.26660  Biso   1.000  C
  H139     1.0000 0.78010  0.76590  0.29290  Biso   1.000  H
  C195     1.0000 0.82170  0.46120  0.25350  Biso   1.000  C
  H140     1.0000 0.83560  0.37510  0.27110  Biso   1.000  H
  C196     1.0000 0.81140  0.48220  0.18750  Biso   1.000  C
  Cu8      1.0000 0.20213  0.41537  0.03012  Biso   1.000  Cu
  Cl29     1.0000 0.21410  0.18150  0.30150  Biso   1.000  Cl
  O29      1.0000 0.23536  0.20010  0.06535  Biso   1.000  O
  O30      1.0000 0.31001  0.07520  0.06186  Biso   1.000  O
  O31      1.0000 0.29391  0.94910  0.38010  Biso   1.000  O
  O32      1.0000 0.35740  0.11770  0.39941  Biso   1.000  O
  N15      1.0000 0.12457  0.34460  0.01774  Biso   1.000  N
  N16      1.0000 0.77670  0.00370  0.04019  Biso   1.000  N
  C197     1.0000 0.27691  0.13080  0.09039  Biso   1.000  C
  C198     1.0000 0.28861  0.10960  0.16019  Biso   1.000  C
  C199     1.0000 0.31120  0.06840  0.29378  Biso   1.000  C
  C200     1.0000 0.25115  0.14910  0.19500  Biso   1.000  C
  H141     1.0000 0.21740  0.19080  0.17370  Biso   1.000  H
  C201     1.0000 0.26140  0.12960  0.26110  Biso   1.000  C
  C202     1.0000 0.35090  0.02840  0.25900  Biso   1.000  C
  H142     1.0000 0.38500  0.98860  0.28040  Biso   1.000  H
  C203     1.0000 0.33940  0.04810  0.19270  Biso   1.000  C
  H143     1.0000 0.36570  0.02010  0.16950  Biso   1.000  H
  C204     1.0000 0.32246  0.04760  0.36397  Biso   1.000  C
  C205     1.0000 0.08318  0.39220  0.97230  Biso   1.000  C
  H144     1.0000 0.09160  0.45450  0.94200  Biso   1.000  H
  C206     1.0000 0.02846  0.35490  0.96720  Biso   1.000  C
  H145     1.0000 0.00000  0.39330  0.93480  Biso   1.000  H
  C207     1.0000 0.01565  0.26060  0.01004  Biso   1.000  C
  C208     1.0000 0.05924  0.21010  0.05660  Biso   1.000  C
  H146     1.0000 0.05250  0.14500  0.08680  Biso   1.000  H
  C209     1.0000 0.11211  0.25440  0.05880  Biso   1.000  C
  H147     1.0000 0.14130  0.21900  0.09120  Biso   1.000  H
  C210     1.0000 0.95756  0.22240  0.00610  Biso   1.000  C
  H148     1.0000 0.92980  0.26440  0.97410  Biso   1.000  H
  C211     1.0000 0.94182  0.13250  0.04480  Biso   1.000  C
  H149     1.0000 0.97000  0.09030  0.07620  Biso   1.000  H
  C212     1.0000 0.88444  0.09320  0.04300  Biso   1.000  C
  C213     1.0000 0.87364  0.99710  0.08590  Biso   1.000  C
  H150     1.0000 0.90330  0.95830  0.11670  Biso   1.000  H
  C214     1.0000 0.81997  0.95770  0.08412  Biso   1.000  C
  H151     1.0000 0.81340  0.89520  0.11540  Biso   1.000  H
  C215     1.0000 0.78679  0.09790  0.99841  Biso   1.000  C
  H152     1.0000 0.75650  0.13270  0.96730  Biso   1.000  H
  C216     1.0000 0.83899  0.14600  0.99873  Biso   1.000  C
  H153     1.0000 0.84410  0.21440  0.96920  Biso   1.000  H
  Cl30     1.0000 0.23460  0.25070  0.30960  Biso   1.000  Cl
  Cl31     1.0000 0.39170  0.87790  0.29360  Biso   1.000  Cl
  Cl32     1.0000 0.32600  0.84390  0.14810  Biso   1.000  Cl
  C217     1.0000 0.25821  0.18510  0.19795  Biso   1.000  C
  H154     1.0000 0.23040  0.24890  0.17860  Biso   1.000  H
  C218     1.0000 0.27013  0.16360  0.26383  Biso   1.000  C
  C219     1.0000 0.34106  0.99540  0.25601  Biso   1.000  C
  H155     1.0000 0.36900  0.93200  0.27540  Biso   1.000  H
  C220     1.0000 0.32979  0.01590  0.18999  Biso   1.000  C
  H156     1.0000 0.35020  0.96590  0.16520  Biso   1.000  H
  H157     1.0000 0.25020  0.21410  0.28890  Biso   1.000  H
  C221     1.0000 0.27820  0.21260  0.20030  Biso   1.000  C
  H158     1.0000 0.26380  0.29830  0.18260  Biso   1.000  H
  C222     1.0000 0.28850  0.19420  0.26660  Biso   1.000  C
  H159     1.0000 0.28010  0.26590  0.29290  Biso   1.000  H
  C223     1.0000 0.32170  0.96120  0.25350  Biso   1.000  C
  H160     1.0000 0.33560  0.87510  0.27110  Biso   1.000  H
  C224     1.0000 0.31140  0.98220  0.18750  Biso   1.000  C
