data_image0
_cell_length_a       24.6648
_cell_length_b       10.049
_cell_length_c       21.4914
_cell_angle_alpha    90
_cell_angle_beta     104.424
_cell_angle_gamma    90

_symmetry_space_group_name_H-M    "P 1"
_symmetry_int_tables_number       1

loop_
  _symmetry_equiv_pos_as_xyz
  'x, y, z'

loop_
  _atom_site_label
  _atom_site_occupancy
  _atom_site_fract_x
  _atom_site_fract_y
  _atom_site_fract_z
  _atom_site_thermal_displace_type
  _atom_site_B_iso_or_equiv
  _atom_site_type_symbol
  Cu1      1.0000 0.70008  0.09372  0.52967  Biso   1.000  Cu
  O1       1.0000 0.73519  0.30050  0.56499  Biso   1.000  O
  O2       1.0000 0.81296  0.41460  0.56345  Biso   1.000  O
  O3       1.0000 0.79517  0.56120  0.87946  Biso   1.000  O
  O4       1.0000 0.85040  0.38450  0.90620  Biso   1.000  O
  N1       1.0000 0.62182  0.16200  0.51692  Biso   1.000  N
  N2       1.0000 0.27462  0.50380  0.54030  Biso   1.000  N
  C1       1.0000 0.77885  0.36320  0.59160  Biso   1.000  C
  C2       1.0000 0.78973  0.38700  0.66166  Biso   1.000  C
  C3       1.0000 0.75642  0.31930  0.69865  Biso   1.000  C
  H1       1.0000 0.72740  0.25990  0.67850  Biso   1.000  H
  C4       1.0000 0.76807  0.34340  0.76486  Biso   1.000  C
  C5       1.0000 0.81064  0.43250  0.79615  Biso   1.000  C
  C6       1.0000 0.84280  0.49710  0.75920  Biso   1.000  C
  H2       1.0000 0.87180  0.55660  0.77950  Biso   1.000  H
  C7       1.0000 0.83240  0.47410  0.69280  Biso   1.000  C
  H3       1.0000 0.85450  0.51810  0.66870  Biso   1.000  H
  C8       1.0000 0.82080  0.45650  0.86650  Biso   1.000  C
  C9       1.0000 0.57910  0.11350  0.47240  Biso   1.000  C
  H4       1.0000 0.58670  0.05200  0.44200  Biso   1.000  H
  C10      1.0000 0.52400  0.14810  0.46810  Biso   1.000  C
  H5       1.0000 0.49470  0.10820  0.43640  Biso   1.000  H
  C11      1.0000 0.51170  0.24130  0.51020  Biso   1.000  C
  C12      1.0000 0.55650  0.29290  0.55560  Biso   1.000  C
  H6       1.0000 0.55020  0.35590  0.58600  Biso   1.000  H
  C13      1.0000 0.61030  0.25360  0.55690  Biso   1.000  C
  H7       1.0000 0.64050  0.29310  0.58760  Biso   1.000  H
  C14      1.0000 0.45360  0.27870  0.50680  Biso   1.000  C
  H8       1.0000 0.42480  0.23590  0.47570  Biso   1.000  H
  C15      1.0000 0.43900  0.36860  0.54450  Biso   1.000  C
  H9       1.0000 0.46840  0.41020  0.57550  Biso   1.000  H
  C16      1.0000 0.38180  0.41010  0.54300  Biso   1.000  C
  C17      1.0000 0.37320  0.50870  0.58480  Biso   1.000  C
  H10      1.0000 0.40430  0.54700  0.61470  Biso   1.000  H
  C18      1.0000 0.31950  0.55130  0.58310  Biso   1.000  C
  H11      1.0000 0.31430  0.61610  0.61320  Biso   1.000  H
  C19      1.0000 0.28250  0.40780  0.50040  Biso   1.000  C
  H12      1.0000 0.25060  0.37270  0.47050  Biso   1.000  H
  C20      1.0000 0.33420  0.35720  0.50040  Biso   1.000  C
  H13      1.0000 0.33770  0.28740  0.47180  Biso   1.000  H
  Br1      1.0000 0.70335  0.33680  0.80126  Biso   1.000  Br
  Br2      1.0000 0.83481  0.65740  0.64576  Biso   1.000  Br
  C21      1.0000 0.74972  0.35760  0.69460  Biso   1.000  C
  H14      1.0000 0.71480  0.32160  0.67170  Biso   1.000  H
  C22      1.0000 0.75910  0.37940  0.76120  Biso   1.000  C
  C23      1.0000 0.85250  0.46270  0.76320  Biso   1.000  C
  H15      1.0000 0.88760  0.49770  0.78610  Biso   1.000  H
  C24      1.0000 0.84180  0.44050  0.69640  Biso   1.000  C
  H16      1.0000 0.86960  0.46170  0.67440  Biso   1.000  H
  C25      1.0000 0.77690  0.29110  0.70210  Biso   1.000  C
  H17      1.0000 0.76110  0.20910  0.68430  Biso   1.000  H
  C26      1.0000 0.78660  0.31170  0.76890  Biso   1.000  C
  H18      1.0000 0.77690  0.24470  0.79540  Biso   1.000  H
  C27      1.0000 0.82390  0.53210  0.75540  Biso   1.000  C
  H19      1.0000 0.83930  0.61450  0.77310  Biso   1.000  H
  C28      1.0000 0.81420  0.50920  0.68880  Biso   1.000  C
  Br3      1.0000 0.72469  0.25740  0.81221  Biso   1.000  Br
  Cu2      1.0000 0.20008  0.59372  0.52967  Biso   1.000  Cu
  O5       1.0000 0.23519  0.80050  0.56499  Biso   1.000  O
  O6       1.0000 0.31296  0.91460  0.56345  Biso   1.000  O
  O7       1.0000 0.29517  0.06120  0.87946  Biso   1.000  O
  O8       1.0000 0.35040  0.88450  0.90620  Biso   1.000  O
  N3       1.0000 0.12182  0.66200  0.51692  Biso   1.000  N
  N4       1.0000 0.77462  0.00380  0.54030  Biso   1.000  N
  C29      1.0000 0.27885  0.86320  0.59160  Biso   1.000  C
  C30      1.0000 0.28973  0.88700  0.66166  Biso   1.000  C
  C31      1.0000 0.25642  0.81930  0.69865  Biso   1.000  C
  H20      1.0000 0.22740  0.75990  0.67850  Biso   1.000  H
  C32      1.0000 0.26807  0.84340  0.76486  Biso   1.000  C
  C33      1.0000 0.31064  0.93250  0.79615  Biso   1.000  C
  C34      1.0000 0.34280  0.99710  0.75920  Biso   1.000  C
  H21      1.0000 0.37180  0.05660  0.77950  Biso   1.000  H
  C35      1.0000 0.33240  0.97410  0.69280  Biso   1.000  C
  H22      1.0000 0.35450  0.01810  0.66870  Biso   1.000  H
  C36      1.0000 0.32080  0.95650  0.86650  Biso   1.000  C
  C37      1.0000 0.07910  0.61350  0.47240  Biso   1.000  C
  H23      1.0000 0.08670  0.55200  0.44200  Biso   1.000  H
  C38      1.0000 0.02400  0.64810  0.46810  Biso   1.000  C
  H24      1.0000 0.99470  0.60820  0.43640  Biso   1.000  H
  C39      1.0000 0.01170  0.74130  0.51020  Biso   1.000  C
  C40      1.0000 0.05650  0.79290  0.55560  Biso   1.000  C
  H25      1.0000 0.05020  0.85590  0.58600  Biso   1.000  H
  C41      1.0000 0.11030  0.75360  0.55690  Biso   1.000  C
  H26      1.0000 0.14050  0.79310  0.58760  Biso   1.000  H
  C42      1.0000 0.95360  0.77870  0.50680  Biso   1.000  C
  H27      1.0000 0.92480  0.73590  0.47570  Biso   1.000  H
  C43      1.0000 0.93900  0.86860  0.54450  Biso   1.000  C
  H28      1.0000 0.96840  0.91020  0.57550  Biso   1.000  H
  C44      1.0000 0.88180  0.91010  0.54300  Biso   1.000  C
  C45      1.0000 0.87320  0.00870  0.58480  Biso   1.000  C
  H29      1.0000 0.90430  0.04700  0.61470  Biso   1.000  H
  C46      1.0000 0.81950  0.05130  0.58310  Biso   1.000  C
  H30      1.0000 0.81430  0.11610  0.61320  Biso   1.000  H
  C47      1.0000 0.78250  0.90780  0.50040  Biso   1.000  C
  H31      1.0000 0.75060  0.87270  0.47050  Biso   1.000  H
  C48      1.0000 0.83420  0.85720  0.50040  Biso   1.000  C
  H32      1.0000 0.83770  0.78740  0.47180  Biso   1.000  H
  Br4      1.0000 0.20335  0.83680  0.80126  Biso   1.000  Br
  Br5      1.0000 0.33481  0.15740  0.64576  Biso   1.000  Br
  C49      1.0000 0.24972  0.85760  0.69460  Biso   1.000  C
  H33      1.0000 0.21480  0.82160  0.67170  Biso   1.000  H
  C50      1.0000 0.25910  0.87940  0.76120  Biso   1.000  C
  C51      1.0000 0.35250  0.96270  0.76320  Biso   1.000  C
  H34      1.0000 0.38760  0.99770  0.78610  Biso   1.000  H
  C52      1.0000 0.34180  0.94050  0.69640  Biso   1.000  C
  H35      1.0000 0.36960  0.96170  0.67440  Biso   1.000  H
  C53      1.0000 0.27690  0.79110  0.70210  Biso   1.000  C
  H36      1.0000 0.26110  0.70910  0.68430  Biso   1.000  H
  C54      1.0000 0.28660  0.81170  0.76890  Biso   1.000  C
  H37      1.0000 0.27690  0.74470  0.79540  Biso   1.000  H
  C55      1.0000 0.32390  0.03210  0.75540  Biso   1.000  C
  H38      1.0000 0.33930  0.11450  0.77310  Biso   1.000  H
  C56      1.0000 0.31420  0.00920  0.68880  Biso   1.000  C
  Br6      1.0000 0.22469  0.75740  0.81221  Biso   1.000  Br
  Cu3      1.0000 0.29992  0.09372  0.97033  Biso   1.000  Cu
  O9       1.0000 0.26481  0.30050  0.93501  Biso   1.000  O
  O10      1.0000 0.18704  0.41460  0.93655  Biso   1.000  O
  O11      1.0000 0.20483  0.56120  0.62054  Biso   1.000  O
  O12      1.0000 0.14960  0.38450  0.59380  Biso   1.000  O
  N5       1.0000 0.37818  0.16200  0.98308  Biso   1.000  N
  N6       1.0000 0.72538  0.50380  0.95970  Biso   1.000  N
  C57      1.0000 0.22115  0.36320  0.90840  Biso   1.000  C
  C58      1.0000 0.21027  0.38700  0.83834  Biso   1.000  C
  C59      1.0000 0.24358  0.31930  0.80135  Biso   1.000  C
  H39      1.0000 0.27260  0.25990  0.82150  Biso   1.000  H
  C60      1.0000 0.23193  0.34340  0.73514  Biso   1.000  C
  C61      1.0000 0.18936  0.43250  0.70385  Biso   1.000  C
  C62      1.0000 0.15720  0.49710  0.74080  Biso   1.000  C
  H40      1.0000 0.12820  0.55660  0.72050  Biso   1.000  H
  C63      1.0000 0.16760  0.47410  0.80720  Biso   1.000  C
  H41      1.0000 0.14550  0.51810  0.83130  Biso   1.000  H
  C64      1.0000 0.17920  0.45650  0.63350  Biso   1.000  C
  C65      1.0000 0.42090  0.11350  0.02760  Biso   1.000  C
  H42      1.0000 0.41330  0.05200  0.05800  Biso   1.000  H
  C66      1.0000 0.47600  0.14810  0.03190  Biso   1.000  C
  H43      1.0000 0.50530  0.10820  0.06360  Biso   1.000  H
  C67      1.0000 0.48830  0.24130  0.98980  Biso   1.000  C
  C68      1.0000 0.44350  0.29290  0.94440  Biso   1.000  C
  H44      1.0000 0.44980  0.35590  0.91400  Biso   1.000  H
  C69      1.0000 0.38970  0.25360  0.94310  Biso   1.000  C
  H45      1.0000 0.35950  0.29310  0.91240  Biso   1.000  H
  C70      1.0000 0.54640  0.27870  0.99320  Biso   1.000  C
  H46      1.0000 0.57520  0.23590  0.02430  Biso   1.000  H
  C71      1.0000 0.56100  0.36860  0.95550  Biso   1.000  C
  H47      1.0000 0.53160  0.41020  0.92450  Biso   1.000  H
  C72      1.0000 0.61820  0.41010  0.95700  Biso   1.000  C
  C73      1.0000 0.62680  0.50870  0.91520  Biso   1.000  C
  H48      1.0000 0.59570  0.54700  0.88530  Biso   1.000  H
  C74      1.0000 0.68050  0.55130  0.91690  Biso   1.000  C
  H49      1.0000 0.68570  0.61610  0.88680  Biso   1.000  H
  C75      1.0000 0.71750  0.40780  0.99960  Biso   1.000  C
  H50      1.0000 0.74940  0.37270  0.02950  Biso   1.000  H
  C76      1.0000 0.66580  0.35720  0.99960  Biso   1.000  C
  H51      1.0000 0.66230  0.28740  0.02820  Biso   1.000  H
  Br7      1.0000 0.29665  0.33680  0.69874  Biso   1.000  Br
  Br8      1.0000 0.16519  0.65740  0.85424  Biso   1.000  Br
  C77      1.0000 0.25028  0.35760  0.80540  Biso   1.000  C
  H52      1.0000 0.28520  0.32160  0.82830  Biso   1.000  H
  C78      1.0000 0.24090  0.37940  0.73880  Biso   1.000  C
  C79      1.0000 0.14750  0.46270  0.73680  Biso   1.000  C
  H53      1.0000 0.11240  0.49770  0.71390  Biso   1.000  H
  C80      1.0000 0.15820  0.44050  0.80360  Biso   1.000  C
  H54      1.0000 0.13040  0.46170  0.82560  Biso   1.000  H
  C81      1.0000 0.22310  0.29110  0.79790  Biso   1.000  C
  H55      1.0000 0.23890  0.20910  0.81570  Biso   1.000  H
  C82      1.0000 0.21340  0.31170  0.73110  Biso   1.000  C
  H56      1.0000 0.22310  0.24470  0.70460  Biso   1.000  H
  C83      1.0000 0.17610  0.53210  0.74460  Biso   1.000  C
  H57      1.0000 0.16070  0.61450  0.72690  Biso   1.000  H
  C84      1.0000 0.18580  0.50920  0.81120  Biso   1.000  C
  Br9      1.0000 0.27531  0.25740  0.68779  Biso   1.000  Br
  Cu4      1.0000 0.79992  0.59372  0.97033  Biso   1.000  Cu
  O13      1.0000 0.76481  0.80050  0.93501  Biso   1.000  O
  O14      1.0000 0.68704  0.91460  0.93655  Biso   1.000  O
  O15      1.0000 0.70483  0.06120  0.62054  Biso   1.000  O
  O16      1.0000 0.64960  0.88450  0.59380  Biso   1.000  O
  N7       1.0000 0.87818  0.66200  0.98308  Biso   1.000  N
  N8       1.0000 0.22538  0.00380  0.95970  Biso   1.000  N
  C85      1.0000 0.72115  0.86320  0.90840  Biso   1.000  C
  C86      1.0000 0.71027  0.88700  0.83834  Biso   1.000  C
  C87      1.0000 0.74358  0.81930  0.80135  Biso   1.000  C
  H58      1.0000 0.77260  0.75990  0.82150  Biso   1.000  H
  C88      1.0000 0.73193  0.84340  0.73514  Biso   1.000  C
  C89      1.0000 0.68936  0.93250  0.70385  Biso   1.000  C
  C90      1.0000 0.65720  0.99710  0.74080  Biso   1.000  C
  H59      1.0000 0.62820  0.05660  0.72050  Biso   1.000  H
  C91      1.0000 0.66760  0.97410  0.80720  Biso   1.000  C
  H60      1.0000 0.64550  0.01810  0.83130  Biso   1.000  H
  C92      1.0000 0.67920  0.95650  0.63350  Biso   1.000  C
  C93      1.0000 0.92090  0.61350  0.02760  Biso   1.000  C
  H61      1.0000 0.91330  0.55200  0.05800  Biso   1.000  H
  C94      1.0000 0.97600  0.64810  0.03190  Biso   1.000  C
  H62      1.0000 0.00530  0.60820  0.06360  Biso   1.000  H
  C95      1.0000 0.98830  0.74130  0.98980  Biso   1.000  C
  C96      1.0000 0.94350  0.79290  0.94440  Biso   1.000  C
  H63      1.0000 0.94980  0.85590  0.91400  Biso   1.000  H
  C97      1.0000 0.88970  0.75360  0.94310  Biso   1.000  C
  H64      1.0000 0.85950  0.79310  0.91240  Biso   1.000  H
  C98      1.0000 0.04640  0.77870  0.99320  Biso   1.000  C
  H65      1.0000 0.07520  0.73590  0.02430  Biso   1.000  H
  C99      1.0000 0.06100  0.86860  0.95550  Biso   1.000  C
  H66      1.0000 0.03160  0.91020  0.92450  Biso   1.000  H
  C100     1.0000 0.11820  0.91010  0.95700  Biso   1.000  C
  C101     1.0000 0.12680  0.00870  0.91520  Biso   1.000  C
  H67      1.0000 0.09570  0.04700  0.88530  Biso   1.000  H
  C102     1.0000 0.18050  0.05130  0.91690  Biso   1.000  C
  H68      1.0000 0.18570  0.11610  0.88680  Biso   1.000  H
  C103     1.0000 0.21750  0.90780  0.99960  Biso   1.000  C
  H69      1.0000 0.24940  0.87270  0.02950  Biso   1.000  H
  C104     1.0000 0.16580  0.85720  0.99960  Biso   1.000  C
  H70      1.0000 0.16230  0.78740  0.02820  Biso   1.000  H
  Br10     1.0000 0.79665  0.83680  0.69874  Biso   1.000  Br
  Br11     1.0000 0.66519  0.15740  0.85424  Biso   1.000  Br
  C105     1.0000 0.75028  0.85760  0.80540  Biso   1.000  C
  H71      1.0000 0.78520  0.82160  0.82830  Biso   1.000  H
  C106     1.0000 0.74090  0.87940  0.73880  Biso   1.000  C
  C107     1.0000 0.64750  0.96270  0.73680  Biso   1.000  C
  H72      1.0000 0.61240  0.99770  0.71390  Biso   1.000  H
  C108     1.0000 0.65820  0.94050  0.80360  Biso   1.000  C
  H73      1.0000 0.63040  0.96170  0.82560  Biso   1.000  H
  C109     1.0000 0.72310  0.79110  0.79790  Biso   1.000  C
  H74      1.0000 0.73890  0.70910  0.81570  Biso   1.000  H
  C110     1.0000 0.71340  0.81170  0.73110  Biso   1.000  C
  H75      1.0000 0.72310  0.74470  0.70460  Biso   1.000  H
  C111     1.0000 0.67610  0.03210  0.74460  Biso   1.000  C
  H76      1.0000 0.66070  0.11450  0.72690  Biso   1.000  H
  C112     1.0000 0.68580  0.00920  0.81120  Biso   1.000  C
  Br12     1.0000 0.77531  0.75740  0.68779  Biso   1.000  Br
  Cu5      1.0000 0.29992  0.90628  0.47033  Biso   1.000  Cu
  O17      1.0000 0.26481  0.69950  0.43501  Biso   1.000  O
  O18      1.0000 0.18704  0.58540  0.43655  Biso   1.000  O
  O19      1.0000 0.20483  0.43880  0.12054  Biso   1.000  O
  O20      1.0000 0.14960  0.61550  0.09380  Biso   1.000  O
  N9       1.0000 0.37818  0.83800  0.48308  Biso   1.000  N
  N10      1.0000 0.72538  0.49620  0.45970  Biso   1.000  N
  C113     1.0000 0.22115  0.63680  0.40840  Biso   1.000  C
  C114     1.0000 0.21027  0.61300  0.33834  Biso   1.000  C
  C115     1.0000 0.24358  0.68070  0.30135  Biso   1.000  C
  H77      1.0000 0.27260  0.74010  0.32150  Biso   1.000  H
  C116     1.0000 0.23193  0.65660  0.23514  Biso   1.000  C
  C117     1.0000 0.18936  0.56750  0.20385  Biso   1.000  C
  C118     1.0000 0.15720  0.50290  0.24080  Biso   1.000  C
  H78      1.0000 0.12820  0.44340  0.22050  Biso   1.000  H
  C119     1.0000 0.16760  0.52590  0.30720  Biso   1.000  C
  H79      1.0000 0.14550  0.48190  0.33130  Biso   1.000  H
  C120     1.0000 0.17920  0.54350  0.13350  Biso   1.000  C
  C121     1.0000 0.42090  0.88650  0.52760  Biso   1.000  C
  H80      1.0000 0.41330  0.94800  0.55800  Biso   1.000  H
  C122     1.0000 0.47600  0.85190  0.53190  Biso   1.000  C
  H81      1.0000 0.50530  0.89180  0.56360  Biso   1.000  H
  C123     1.0000 0.48830  0.75870  0.48980  Biso   1.000  C
  C124     1.0000 0.44350  0.70710  0.44440  Biso   1.000  C
  H82      1.0000 0.44980  0.64410  0.41400  Biso   1.000  H
  C125     1.0000 0.38970  0.74640  0.44310  Biso   1.000  C
  H83      1.0000 0.35950  0.70690  0.41240  Biso   1.000  H
  C126     1.0000 0.54640  0.72130  0.49320  Biso   1.000  C
  H84      1.0000 0.57520  0.76410  0.52430  Biso   1.000  H
  C127     1.0000 0.56100  0.63140  0.45550  Biso   1.000  C
  H85      1.0000 0.53160  0.58980  0.42450  Biso   1.000  H
  C128     1.0000 0.61820  0.58990  0.45700  Biso   1.000  C
  C129     1.0000 0.62680  0.49130  0.41520  Biso   1.000  C
  H86      1.0000 0.59570  0.45300  0.38530  Biso   1.000  H
  C130     1.0000 0.68050  0.44870  0.41690  Biso   1.000  C
  H87      1.0000 0.68570  0.38390  0.38680  Biso   1.000  H
  C131     1.0000 0.71750  0.59220  0.49960  Biso   1.000  C
  H88      1.0000 0.74940  0.62730  0.52950  Biso   1.000  H
  C132     1.0000 0.66580  0.64280  0.49960  Biso   1.000  C
  H89      1.0000 0.66230  0.71260  0.52820  Biso   1.000  H
  Br13     1.0000 0.29665  0.66320  0.19874  Biso   1.000  Br
  Br14     1.0000 0.16519  0.34260  0.35424  Biso   1.000  Br
  C133     1.0000 0.25028  0.64240  0.30540  Biso   1.000  C
  H90      1.0000 0.28520  0.67840  0.32830  Biso   1.000  H
  C134     1.0000 0.24090  0.62060  0.23880  Biso   1.000  C
  C135     1.0000 0.14750  0.53730  0.23680  Biso   1.000  C
  H91      1.0000 0.11240  0.50230  0.21390  Biso   1.000  H
  C136     1.0000 0.15820  0.55950  0.30360  Biso   1.000  C
  H92      1.0000 0.13040  0.53830  0.32560  Biso   1.000  H
  C137     1.0000 0.22310  0.70890  0.29790  Biso   1.000  C
  H93      1.0000 0.23890  0.79090  0.31570  Biso   1.000  H
  C138     1.0000 0.21340  0.68830  0.23110  Biso   1.000  C
  H94      1.0000 0.22310  0.75530  0.20460  Biso   1.000  H
  C139     1.0000 0.17610  0.46790  0.24460  Biso   1.000  C
  H95      1.0000 0.16070  0.38550  0.22690  Biso   1.000  H
  C140     1.0000 0.18580  0.49080  0.31120  Biso   1.000  C
  Br15     1.0000 0.27531  0.74260  0.18779  Biso   1.000  Br
  Cu6      1.0000 0.79992  0.40628  0.47033  Biso   1.000  Cu
  O21      1.0000 0.76481  0.19950  0.43501  Biso   1.000  O
  O22      1.0000 0.68704  0.08540  0.43655  Biso   1.000  O
  O23      1.0000 0.70483  0.93880  0.12054  Biso   1.000  O
  O24      1.0000 0.64960  0.11550  0.09380  Biso   1.000  O
  N11      1.0000 0.87818  0.33800  0.48308  Biso   1.000  N
  N12      1.0000 0.22538  0.99620  0.45970  Biso   1.000  N
  C141     1.0000 0.72115  0.13680  0.40840  Biso   1.000  C
  C142     1.0000 0.71027  0.11300  0.33834  Biso   1.000  C
  C143     1.0000 0.74358  0.18070  0.30135  Biso   1.000  C
  H96      1.0000 0.77260  0.24010  0.32150  Biso   1.000  H
  C144     1.0000 0.73193  0.15660  0.23514  Biso   1.000  C
  C145     1.0000 0.68936  0.06750  0.20385  Biso   1.000  C
  C146     1.0000 0.65720  0.00290  0.24080  Biso   1.000  C
  H97      1.0000 0.62820  0.94340  0.22050  Biso   1.000  H
  C147     1.0000 0.66760  0.02590  0.30720  Biso   1.000  C
  H98      1.0000 0.64550  0.98190  0.33130  Biso   1.000  H
  C148     1.0000 0.67920  0.04350  0.13350  Biso   1.000  C
  C149     1.0000 0.92090  0.38650  0.52760  Biso   1.000  C
  H99      1.0000 0.91330  0.44800  0.55800  Biso   1.000  H
  C150     1.0000 0.97600  0.35190  0.53190  Biso   1.000  C
  H100     1.0000 0.00530  0.39180  0.56360  Biso   1.000  H
  C151     1.0000 0.98830  0.25870  0.48980  Biso   1.000  C
  C152     1.0000 0.94350  0.20710  0.44440  Biso   1.000  C
  H101     1.0000 0.94980  0.14410  0.41400  Biso   1.000  H
  C153     1.0000 0.88970  0.24640  0.44310  Biso   1.000  C
  H102     1.0000 0.85950  0.20690  0.41240  Biso   1.000  H
  C154     1.0000 0.04640  0.22130  0.49320  Biso   1.000  C
  H103     1.0000 0.07520  0.26410  0.52430  Biso   1.000  H
  C155     1.0000 0.06100  0.13140  0.45550  Biso   1.000  C
  H104     1.0000 0.03160  0.08980  0.42450  Biso   1.000  H
  C156     1.0000 0.11820  0.08990  0.45700  Biso   1.000  C
  C157     1.0000 0.12680  0.99130  0.41520  Biso   1.000  C
  H105     1.0000 0.09570  0.95300  0.38530  Biso   1.000  H
  C158     1.0000 0.18050  0.94870  0.41690  Biso   1.000  C
  H106     1.0000 0.18570  0.88390  0.38680  Biso   1.000  H
  C159     1.0000 0.21750  0.09220  0.49960  Biso   1.000  C
  H107     1.0000 0.24940  0.12730  0.52950  Biso   1.000  H
  C160     1.0000 0.16580  0.14280  0.49960  Biso   1.000  C
  H108     1.0000 0.16230  0.21260  0.52820  Biso   1.000  H
  Br16     1.0000 0.79665  0.16320  0.19874  Biso   1.000  Br
  Br17     1.0000 0.66519  0.84260  0.35424  Biso   1.000  Br
  C161     1.0000 0.75028  0.14240  0.30540  Biso   1.000  C
  H109     1.0000 0.78520  0.17840  0.32830  Biso   1.000  H
  C162     1.0000 0.74090  0.12060  0.23880  Biso   1.000  C
  C163     1.0000 0.64750  0.03730  0.23680  Biso   1.000  C
  H110     1.0000 0.61240  0.00230  0.21390  Biso   1.000  H
  C164     1.0000 0.65820  0.05950  0.30360  Biso   1.000  C
  H111     1.0000 0.63040  0.03830  0.32560  Biso   1.000  H
  C165     1.0000 0.72310  0.20890  0.29790  Biso   1.000  C
  H112     1.0000 0.73890  0.29090  0.31570  Biso   1.000  H
  C166     1.0000 0.71340  0.18830  0.23110  Biso   1.000  C
  H113     1.0000 0.72310  0.25530  0.20460  Biso   1.000  H
  C167     1.0000 0.67610  0.96790  0.24460  Biso   1.000  C
  H114     1.0000 0.66070  0.88550  0.22690  Biso   1.000  H
  C168     1.0000 0.68580  0.99080  0.31120  Biso   1.000  C
  Br18     1.0000 0.77531  0.24260  0.18779  Biso   1.000  Br
  Cu7      1.0000 0.70008  0.90628  0.02967  Biso   1.000  Cu
  O25      1.0000 0.73519  0.69950  0.06499  Biso   1.000  O
  O26      1.0000 0.81296  0.58540  0.06345  Biso   1.000  O
  O27      1.0000 0.79517  0.43880  0.37946  Biso   1.000  O
  O28      1.0000 0.85040  0.61550  0.40620  Biso   1.000  O
  N13      1.0000 0.62182  0.83800  0.01692  Biso   1.000  N
  N14      1.0000 0.27462  0.49620  0.04030  Biso   1.000  N
  C169     1.0000 0.77885  0.63680  0.09160  Biso   1.000  C
  C170     1.0000 0.78973  0.61300  0.16166  Biso   1.000  C
  C171     1.0000 0.75642  0.68070  0.19865  Biso   1.000  C
  H115     1.0000 0.72740  0.74010  0.17850  Biso   1.000  H
  C172     1.0000 0.76807  0.65660  0.26486  Biso   1.000  C
  C173     1.0000 0.81064  0.56750  0.29615  Biso   1.000  C
  C174     1.0000 0.84280  0.50290  0.25920  Biso   1.000  C
  H116     1.0000 0.87180  0.44340  0.27950  Biso   1.000  H
  C175     1.0000 0.83240  0.52590  0.19280  Biso   1.000  C
  H117     1.0000 0.85450  0.48190  0.16870  Biso   1.000  H
  C176     1.0000 0.82080  0.54350  0.36650  Biso   1.000  C
  C177     1.0000 0.57910  0.88650  0.97240  Biso   1.000  C
  H118     1.0000 0.58670  0.94800  0.94200  Biso   1.000  H
  C178     1.0000 0.52400  0.85190  0.96810  Biso   1.000  C
  H119     1.0000 0.49470  0.89180  0.93640  Biso   1.000  H
  C179     1.0000 0.51170  0.75870  0.01020  Biso   1.000  C
  C180     1.0000 0.55650  0.70710  0.05560  Biso   1.000  C
  H120     1.0000 0.55020  0.64410  0.08600  Biso   1.000  H
  C181     1.0000 0.61030  0.74640  0.05690  Biso   1.000  C
  H121     1.0000 0.64050  0.70690  0.08760  Biso   1.000  H
  C182     1.0000 0.45360  0.72130  0.00680  Biso   1.000  C
  H122     1.0000 0.42480  0.76410  0.97570  Biso   1.000  H
  C183     1.0000 0.43900  0.63140  0.04450  Biso   1.000  C
  H123     1.0000 0.46840  0.58980  0.07550  Biso   1.000  H
  C184     1.0000 0.38180  0.58990  0.04300  Biso   1.000  C
  C185     1.0000 0.37320  0.49130  0.08480  Biso   1.000  C
  H124     1.0000 0.40430  0.45300  0.11470  Biso   1.000  H
  C186     1.0000 0.31950  0.44870  0.08310  Biso   1.000  C
  H125     1.0000 0.31430  0.38390  0.11320  Biso   1.000  H
  C187     1.0000 0.28250  0.59220  0.00040  Biso   1.000  C
  H126     1.0000 0.25060  0.62730  0.97050  Biso   1.000  H
  C188     1.0000 0.33420  0.64280  0.00040  Biso   1.000  C
  H127     1.0000 0.33770  0.71260  0.97180  Biso   1.000  H
  Br19     1.0000 0.70335  0.66320  0.30126  Biso   1.000  Br
  Br20     1.0000 0.83481  0.34260  0.14576  Biso   1.000  Br
  C189     1.0000 0.74972  0.64240  0.19460  Biso   1.000  C
  H128     1.0000 0.71480  0.67840  0.17170  Biso   1.000  H
  C190     1.0000 0.75910  0.62060  0.26120  Biso   1.000  C
  C191     1.0000 0.85250  0.53730  0.26320  Biso   1.000  C
  H129     1.0000 0.88760  0.50230  0.28610  Biso   1.000  H
  C192     1.0000 0.84180  0.55950  0.19640  Biso   1.000  C
  H130     1.0000 0.86960  0.53830  0.17440  Biso   1.000  H
  C193     1.0000 0.77690  0.70890  0.20210  Biso   1.000  C
  H131     1.0000 0.76110  0.79090  0.18430  Biso   1.000  H
  C194     1.0000 0.78660  0.68830  0.26890  Biso   1.000  C
  H132     1.0000 0.77690  0.75530  0.29540  Biso   1.000  H
  C195     1.0000 0.82390  0.46790  0.25540  Biso   1.000  C
  H133     1.0000 0.83930  0.38550  0.27310  Biso   1.000  H
  C196     1.0000 0.81420  0.49080  0.18880  Biso   1.000  C
  Br21     1.0000 0.72469  0.74260  0.31221  Biso   1.000  Br
  Cu8      1.0000 0.20008  0.40628  0.02967  Biso   1.000  Cu
  O29      1.0000 0.23519  0.19950  0.06499  Biso   1.000  O
  O30      1.0000 0.31296  0.08540  0.06345  Biso   1.000  O
  O31      1.0000 0.29517  0.93880  0.37946  Biso   1.000  O
  O32      1.0000 0.35040  0.11550  0.40620  Biso   1.000  O
  N15      1.0000 0.12182  0.33800  0.01692  Biso   1.000  N
  N16      1.0000 0.77462  0.99620  0.04030  Biso   1.000  N
  C197     1.0000 0.27885  0.13680  0.09160  Biso   1.000  C
  C198     1.0000 0.28973  0.11300  0.16166  Biso   1.000  C
  C199     1.0000 0.25642  0.18070  0.19865  Biso   1.000  C
  H134     1.0000 0.22740  0.24010  0.17850  Biso   1.000  H
  C200     1.0000 0.26807  0.15660  0.26486  Biso   1.000  C
  C201     1.0000 0.31064  0.06750  0.29615  Biso   1.000  C
  C202     1.0000 0.34280  0.00290  0.25920  Biso   1.000  C
  H135     1.0000 0.37180  0.94340  0.27950  Biso   1.000  H
  C203     1.0000 0.33240  0.02590  0.19280  Biso   1.000  C
  H136     1.0000 0.35450  0.98190  0.16870  Biso   1.000  H
  C204     1.0000 0.32080  0.04350  0.36650  Biso   1.000  C
  C205     1.0000 0.07910  0.38650  0.97240  Biso   1.000  C
  H137     1.0000 0.08670  0.44800  0.94200  Biso   1.000  H
  C206     1.0000 0.02400  0.35190  0.96810  Biso   1.000  C
  H138     1.0000 0.99470  0.39180  0.93640  Biso   1.000  H
  C207     1.0000 0.01170  0.25870  0.01020  Biso   1.000  C
  C208     1.0000 0.05650  0.20710  0.05560  Biso   1.000  C
  H139     1.0000 0.05020  0.14410  0.08600  Biso   1.000  H
  C209     1.0000 0.11030  0.24640  0.05690  Biso   1.000  C
  H140     1.0000 0.14050  0.20690  0.08760  Biso   1.000  H
  C210     1.0000 0.95360  0.22130  0.00680  Biso   1.000  C
  H141     1.0000 0.92480  0.26410  0.97570  Biso   1.000  H
  C211     1.0000 0.93900  0.13140  0.04450  Biso   1.000  C
  H142     1.0000 0.96840  0.08980  0.07550  Biso   1.000  H
  C212     1.0000 0.88180  0.08990  0.04300  Biso   1.000  C
  C213     1.0000 0.87320  0.99130  0.08480  Biso   1.000  C
  H143     1.0000 0.90430  0.95300  0.11470  Biso   1.000  H
  C214     1.0000 0.81950  0.94870  0.08310  Biso   1.000  C
  H144     1.0000 0.81430  0.88390  0.11320  Biso   1.000  H
  C215     1.0000 0.78250  0.09220  0.00040  Biso   1.000  C
  H145     1.0000 0.75060  0.12730  0.97050  Biso   1.000  H
  C216     1.0000 0.83420  0.14280  0.00040  Biso   1.000  C
  H146     1.0000 0.83770  0.21260  0.97180  Biso   1.000  H
  Br22     1.0000 0.20335  0.16320  0.30126  Biso   1.000  Br
  Br23     1.0000 0.33481  0.84260  0.14576  Biso   1.000  Br
  C217     1.0000 0.24972  0.14240  0.19460  Biso   1.000  C
  H147     1.0000 0.21480  0.17840  0.17170  Biso   1.000  H
  C218     1.0000 0.25910  0.12060  0.26120  Biso   1.000  C
  C219     1.0000 0.35250  0.03730  0.26320  Biso   1.000  C
  H148     1.0000 0.38760  0.00230  0.28610  Biso   1.000  H
  C220     1.0000 0.34180  0.05950  0.19640  Biso   1.000  C
  H149     1.0000 0.36960  0.03830  0.17440  Biso   1.000  H
  C221     1.0000 0.27690  0.20890  0.20210  Biso   1.000  C
  H150     1.0000 0.26110  0.29090  0.18430  Biso   1.000  H
  C222     1.0000 0.28660  0.18830  0.26890  Biso   1.000  C
  H151     1.0000 0.27690  0.25530  0.29540  Biso   1.000  H
  C223     1.0000 0.32390  0.96790  0.25540  Biso   1.000  C
  H152     1.0000 0.33930  0.88550  0.27310  Biso   1.000  H
  C224     1.0000 0.31420  0.99080  0.18880  Biso   1.000  C
  Br24     1.0000 0.22469  0.24260  0.31221  Biso   1.000  Br
