data_image0
_cell_length_a       20.9271
_cell_length_b       20.9271
_cell_length_c       20.9271
_cell_angle_alpha    90
_cell_angle_beta     90
_cell_angle_gamma    90

_symmetry_space_group_name_H-M    "P 1"
_symmetry_int_tables_number       1

loop_
  _symmetry_equiv_pos_as_xyz
  'x, y, z'

loop_
  _atom_site_label
  _atom_site_occupancy
  _atom_site_fract_x
  _atom_site_fract_y
  _atom_site_fract_z
  _atom_site_thermal_displace_type
  _atom_site_B_iso_or_equiv
  _atom_site_type_symbol
  C1       1.0000 0.35960  0.80690  0.94860  Biso   1.000  C
  C2       1.0000 0.36780  0.76400  0.90990  Biso   1.000  C
  O1       1.0000 0.40700  0.78930  0.86340  Biso   1.000  O
  O2       1.0000 0.36090  0.70470  0.90650  Biso   1.000  O
  C3       1.0000 0.25210  0.77880  0.02320  Biso   1.000  C
  Gd1      1.0000 0.47670  0.24910  0.78690  Biso   1.000  Gd
  C4       1.0000 0.37400  0.22700  0.96300  Biso   1.000  C
  C5       1.0000 0.40950  0.27170  0.92440  Biso   1.000  C
  O3       1.0000 0.45530  0.24500  0.89880  Biso   1.000  O
  O4       1.0000 0.41880  0.31220  0.96710  Biso   1.000  O
  C6       1.0000 0.64040  0.19310  0.94860  Biso   1.000  C
  C7       1.0000 0.63220  0.23600  0.90990  Biso   1.000  C
  O5       1.0000 0.59300  0.21070  0.86340  Biso   1.000  O
  O6       1.0000 0.63910  0.29530  0.90650  Biso   1.000  O
  C8       1.0000 0.74790  0.22120  0.02320  Biso   1.000  C
  Gd2      1.0000 0.52330  0.75090  0.78690  Biso   1.000  Gd
  C9       1.0000 0.62600  0.77300  0.96300  Biso   1.000  C
  C10      1.0000 0.59050  0.72830  0.92440  Biso   1.000  C
  O7       1.0000 0.54470  0.75500  0.89880  Biso   1.000  O
  O8       1.0000 0.58120  0.68780  0.96710  Biso   1.000  O
  C11      1.0000 0.64040  0.80690  0.05140  Biso   1.000  C
  C12      1.0000 0.63220  0.76400  0.09010  Biso   1.000  C
  O9       1.0000 0.59300  0.78930  0.13660  Biso   1.000  O
  O10      1.0000 0.63910  0.70470  0.09350  Biso   1.000  O
  C13      1.0000 0.74790  0.77880  0.97680  Biso   1.000  C
  Gd3      1.0000 0.52330  0.24910  0.21310  Biso   1.000  Gd
  C14      1.0000 0.62600  0.22700  0.03700  Biso   1.000  C
  C15      1.0000 0.59050  0.27170  0.07560  Biso   1.000  C
  O11      1.0000 0.54470  0.24500  0.10120  Biso   1.000  O
  O12      1.0000 0.58120  0.31220  0.03290  Biso   1.000  O
  C16      1.0000 0.35960  0.19310  0.05140  Biso   1.000  C
  C17      1.0000 0.36780  0.23600  0.09010  Biso   1.000  C
  O13      1.0000 0.40700  0.21070  0.13660  Biso   1.000  O
  O14      1.0000 0.36090  0.29530  0.09350  Biso   1.000  O
  C18      1.0000 0.25210  0.22120  0.97680  Biso   1.000  C
  Gd4      1.0000 0.47670  0.75090  0.21310  Biso   1.000  Gd
  C19      1.0000 0.37400  0.77300  0.03700  Biso   1.000  C
  C20      1.0000 0.40950  0.72830  0.07560  Biso   1.000  C
  O15      1.0000 0.45530  0.75500  0.10120  Biso   1.000  O
  O16      1.0000 0.41880  0.68780  0.03290  Biso   1.000  O
  C21      1.0000 0.94860  0.35960  0.80690  Biso   1.000  C
  C22      1.0000 0.90990  0.36780  0.76400  Biso   1.000  C
  O17      1.0000 0.86340  0.40700  0.78930  Biso   1.000  O
  O18      1.0000 0.90650  0.36090  0.70470  Biso   1.000  O
  C23      1.0000 0.02320  0.25210  0.77880  Biso   1.000  C
  Gd5      1.0000 0.78690  0.47670  0.24910  Biso   1.000  Gd
  C24      1.0000 0.96300  0.37400  0.22700  Biso   1.000  C
  C25      1.0000 0.92440  0.40950  0.27170  Biso   1.000  C
  O19      1.0000 0.89880  0.45530  0.24500  Biso   1.000  O
  O20      1.0000 0.96710  0.41880  0.31220  Biso   1.000  O
  C26      1.0000 0.94860  0.64040  0.19310  Biso   1.000  C
  C27      1.0000 0.90990  0.63220  0.23600  Biso   1.000  C
  O21      1.0000 0.86340  0.59300  0.21070  Biso   1.000  O
  O22      1.0000 0.90650  0.63910  0.29530  Biso   1.000  O
  C28      1.0000 0.02320  0.74790  0.22120  Biso   1.000  C
  Gd6      1.0000 0.78690  0.52330  0.75090  Biso   1.000  Gd
  C29      1.0000 0.96300  0.62600  0.77300  Biso   1.000  C
  C30      1.0000 0.92440  0.59050  0.72830  Biso   1.000  C
  O23      1.0000 0.89880  0.54470  0.75500  Biso   1.000  O
  O24      1.0000 0.96710  0.58120  0.68780  Biso   1.000  O
  C31      1.0000 0.05140  0.64040  0.80690  Biso   1.000  C
  C32      1.0000 0.09010  0.63220  0.76400  Biso   1.000  C
  O25      1.0000 0.13660  0.59300  0.78930  Biso   1.000  O
  O26      1.0000 0.09350  0.63910  0.70470  Biso   1.000  O
  C33      1.0000 0.97680  0.74790  0.77880  Biso   1.000  C
  Gd7      1.0000 0.21310  0.52330  0.24910  Biso   1.000  Gd
  C34      1.0000 0.03700  0.62600  0.22700  Biso   1.000  C
  C35      1.0000 0.07560  0.59050  0.27170  Biso   1.000  C
  O27      1.0000 0.10120  0.54470  0.24500  Biso   1.000  O
  O28      1.0000 0.03290  0.58120  0.31220  Biso   1.000  O
  C36      1.0000 0.05140  0.35960  0.19310  Biso   1.000  C
  C37      1.0000 0.09010  0.36780  0.23600  Biso   1.000  C
  O29      1.0000 0.13660  0.40700  0.21070  Biso   1.000  O
  O30      1.0000 0.09350  0.36090  0.29530  Biso   1.000  O
  C38      1.0000 0.97680  0.25210  0.22120  Biso   1.000  C
  Gd8      1.0000 0.21310  0.47670  0.75090  Biso   1.000  Gd
  C39      1.0000 0.03700  0.37400  0.77300  Biso   1.000  C
  C40      1.0000 0.07560  0.40950  0.72830  Biso   1.000  C
  O31      1.0000 0.10120  0.45530  0.75500  Biso   1.000  O
  O32      1.0000 0.03290  0.41880  0.68780  Biso   1.000  O
  C41      1.0000 0.80690  0.94860  0.35960  Biso   1.000  C
  C42      1.0000 0.76400  0.90990  0.36780  Biso   1.000  C
  O33      1.0000 0.78930  0.86340  0.40700  Biso   1.000  O
  O34      1.0000 0.70470  0.90650  0.36090  Biso   1.000  O
  C43      1.0000 0.77880  0.02320  0.25210  Biso   1.000  C
  Gd9      1.0000 0.24910  0.78690  0.47670  Biso   1.000  Gd
  C44      1.0000 0.22700  0.96300  0.37400  Biso   1.000  C
  C45      1.0000 0.27170  0.92440  0.40950  Biso   1.000  C
  O35      1.0000 0.24500  0.89880  0.45530  Biso   1.000  O
  O36      1.0000 0.31220  0.96710  0.41880  Biso   1.000  O
  C46      1.0000 0.19310  0.94860  0.64040  Biso   1.000  C
  C47      1.0000 0.23600  0.90990  0.63220  Biso   1.000  C
  O37      1.0000 0.21070  0.86340  0.59300  Biso   1.000  O
  O38      1.0000 0.29530  0.90650  0.63910  Biso   1.000  O
  C48      1.0000 0.22120  0.02320  0.74790  Biso   1.000  C
  Gd10     1.0000 0.75090  0.78690  0.52330  Biso   1.000  Gd
  C49      1.0000 0.77300  0.96300  0.62600  Biso   1.000  C
  C50      1.0000 0.72830  0.92440  0.59050  Biso   1.000  C
  O39      1.0000 0.75500  0.89880  0.54470  Biso   1.000  O
  O40      1.0000 0.68780  0.96710  0.58120  Biso   1.000  O
  C51      1.0000 0.80690  0.05140  0.64040  Biso   1.000  C
  C52      1.0000 0.76400  0.09010  0.63220  Biso   1.000  C
  O41      1.0000 0.78930  0.13660  0.59300  Biso   1.000  O
  O42      1.0000 0.70470  0.09350  0.63910  Biso   1.000  O
  C53      1.0000 0.77880  0.97680  0.74790  Biso   1.000  C
  Gd11     1.0000 0.24910  0.21310  0.52330  Biso   1.000  Gd
  C54      1.0000 0.22700  0.03700  0.62600  Biso   1.000  C
  C55      1.0000 0.27170  0.07560  0.59050  Biso   1.000  C
  O43      1.0000 0.24500  0.10120  0.54470  Biso   1.000  O
  O44      1.0000 0.31220  0.03290  0.58120  Biso   1.000  O
  C56      1.0000 0.19310  0.05140  0.35960  Biso   1.000  C
  C57      1.0000 0.23600  0.09010  0.36780  Biso   1.000  C
  O45      1.0000 0.21070  0.13660  0.40700  Biso   1.000  O
  O46      1.0000 0.29530  0.09350  0.36090  Biso   1.000  O
  C58      1.0000 0.22120  0.97680  0.25210  Biso   1.000  C
  Gd12     1.0000 0.75090  0.21310  0.47670  Biso   1.000  Gd
  C59      1.0000 0.77300  0.03700  0.37400  Biso   1.000  C
  C60      1.0000 0.72830  0.07560  0.40950  Biso   1.000  C
  O47      1.0000 0.75500  0.10120  0.45530  Biso   1.000  O
  O48      1.0000 0.68780  0.03290  0.41880  Biso   1.000  O
  C61      1.0000 0.80690  0.35960  0.05140  Biso   1.000  C
  C62      1.0000 0.76400  0.36780  0.09010  Biso   1.000  C
  O49      1.0000 0.78930  0.40700  0.13660  Biso   1.000  O
  O50      1.0000 0.70470  0.36090  0.09350  Biso   1.000  O
  C63      1.0000 0.77880  0.25210  0.97680  Biso   1.000  C
  Gd13     1.0000 0.24910  0.47670  0.21310  Biso   1.000  Gd
  C64      1.0000 0.22700  0.37400  0.03700  Biso   1.000  C
  C65      1.0000 0.27170  0.40950  0.07560  Biso   1.000  C
  O51      1.0000 0.24500  0.45530  0.10120  Biso   1.000  O
  O52      1.0000 0.31220  0.41880  0.03290  Biso   1.000  O
  C66      1.0000 0.19310  0.64040  0.05140  Biso   1.000  C
  C67      1.0000 0.23600  0.63220  0.09010  Biso   1.000  C
  O53      1.0000 0.21070  0.59300  0.13660  Biso   1.000  O
  O54      1.0000 0.29530  0.63910  0.09350  Biso   1.000  O
  C68      1.0000 0.22120  0.74790  0.97680  Biso   1.000  C
  Gd14     1.0000 0.75090  0.52330  0.21310  Biso   1.000  Gd
  C69      1.0000 0.77300  0.62600  0.03700  Biso   1.000  C
  C70      1.0000 0.72830  0.59050  0.07560  Biso   1.000  C
  O55      1.0000 0.75500  0.54470  0.10120  Biso   1.000  O
  O56      1.0000 0.68780  0.58120  0.03290  Biso   1.000  O
  C71      1.0000 0.80690  0.64040  0.94860  Biso   1.000  C
  C72      1.0000 0.76400  0.63220  0.90990  Biso   1.000  C
  O57      1.0000 0.78930  0.59300  0.86340  Biso   1.000  O
  O58      1.0000 0.70470  0.63910  0.90650  Biso   1.000  O
  C73      1.0000 0.77880  0.74790  0.02320  Biso   1.000  C
  Gd15     1.0000 0.24910  0.52330  0.78690  Biso   1.000  Gd
  C74      1.0000 0.22700  0.62600  0.96300  Biso   1.000  C
  C75      1.0000 0.27170  0.59050  0.92440  Biso   1.000  C
  O59      1.0000 0.24500  0.54470  0.89880  Biso   1.000  O
  O60      1.0000 0.31220  0.58120  0.96710  Biso   1.000  O
  C76      1.0000 0.19310  0.35960  0.94860  Biso   1.000  C
  C77      1.0000 0.23600  0.36780  0.90990  Biso   1.000  C
  O61      1.0000 0.21070  0.40700  0.86340  Biso   1.000  O
  O62      1.0000 0.29530  0.36090  0.90650  Biso   1.000  O
  C78      1.0000 0.22120  0.25210  0.02320  Biso   1.000  C
  Gd16     1.0000 0.75090  0.47670  0.78690  Biso   1.000  Gd
  C79      1.0000 0.77300  0.37400  0.96300  Biso   1.000  C
  C80      1.0000 0.72830  0.40950  0.92440  Biso   1.000  C
  O63      1.0000 0.75500  0.45530  0.89880  Biso   1.000  O
  O64      1.0000 0.68780  0.41880  0.96710  Biso   1.000  O
  C81      1.0000 0.35960  0.94860  0.19310  Biso   1.000  C
  C82      1.0000 0.36780  0.90990  0.23600  Biso   1.000  C
  O65      1.0000 0.40700  0.86340  0.21070  Biso   1.000  O
  O66      1.0000 0.36090  0.90650  0.29530  Biso   1.000  O
  C83      1.0000 0.25210  0.02320  0.22120  Biso   1.000  C
  Gd17     1.0000 0.47670  0.78690  0.75090  Biso   1.000  Gd
  C84      1.0000 0.37400  0.96300  0.77300  Biso   1.000  C
  C85      1.0000 0.40950  0.92440  0.72830  Biso   1.000  C
  O67      1.0000 0.45530  0.89880  0.75500  Biso   1.000  O
  O68      1.0000 0.41880  0.96710  0.68780  Biso   1.000  O
  C86      1.0000 0.64040  0.94860  0.80690  Biso   1.000  C
  C87      1.0000 0.63220  0.90990  0.76400  Biso   1.000  C
  O69      1.0000 0.59300  0.86340  0.78930  Biso   1.000  O
  O70      1.0000 0.63910  0.90650  0.70470  Biso   1.000  O
  C88      1.0000 0.74790  0.02320  0.77880  Biso   1.000  C
  Gd18     1.0000 0.52330  0.78690  0.24910  Biso   1.000  Gd
  C89      1.0000 0.62600  0.96300  0.22700  Biso   1.000  C
  C90      1.0000 0.59050  0.92440  0.27170  Biso   1.000  C
  O71      1.0000 0.54470  0.89880  0.24500  Biso   1.000  O
  O72      1.0000 0.58120  0.96710  0.31220  Biso   1.000  O
  C91      1.0000 0.64040  0.05140  0.19310  Biso   1.000  C
  C92      1.0000 0.63220  0.09010  0.23600  Biso   1.000  C
  O73      1.0000 0.59300  0.13660  0.21070  Biso   1.000  O
  O74      1.0000 0.63910  0.09350  0.29530  Biso   1.000  O
  C93      1.0000 0.74790  0.97680  0.22120  Biso   1.000  C
  Gd19     1.0000 0.52330  0.21310  0.75090  Biso   1.000  Gd
  C94      1.0000 0.62600  0.03700  0.77300  Biso   1.000  C
  C95      1.0000 0.59050  0.07560  0.72830  Biso   1.000  C
  O75      1.0000 0.54470  0.10120  0.75500  Biso   1.000  O
  O76      1.0000 0.58120  0.03290  0.68780  Biso   1.000  O
  C96      1.0000 0.35960  0.05140  0.80690  Biso   1.000  C
  C97      1.0000 0.36780  0.09010  0.76400  Biso   1.000  C
  O77      1.0000 0.40700  0.13660  0.78930  Biso   1.000  O
  O78      1.0000 0.36090  0.09350  0.70470  Biso   1.000  O
  C98      1.0000 0.25210  0.97680  0.77880  Biso   1.000  C
  Gd20     1.0000 0.47670  0.21310  0.24910  Biso   1.000  Gd
  C99      1.0000 0.37400  0.03700  0.22700  Biso   1.000  C
  C100     1.0000 0.40950  0.07560  0.27170  Biso   1.000  C
  O79      1.0000 0.45530  0.10120  0.24500  Biso   1.000  O
  O80      1.0000 0.41880  0.03290  0.31220  Biso   1.000  O
  C101     1.0000 0.94860  0.80690  0.64040  Biso   1.000  C
  C102     1.0000 0.90990  0.76400  0.63220  Biso   1.000  C
  O81      1.0000 0.86340  0.78930  0.59300  Biso   1.000  O
  O82      1.0000 0.90650  0.70470  0.63910  Biso   1.000  O
  C103     1.0000 0.02320  0.77880  0.74790  Biso   1.000  C
  Gd21     1.0000 0.78690  0.24910  0.52330  Biso   1.000  Gd
  C104     1.0000 0.96300  0.22700  0.62600  Biso   1.000  C
  C105     1.0000 0.92440  0.27170  0.59050  Biso   1.000  C
  O83      1.0000 0.89880  0.24500  0.54470  Biso   1.000  O
  O84      1.0000 0.96710  0.31220  0.58120  Biso   1.000  O
  C106     1.0000 0.94860  0.19310  0.35960  Biso   1.000  C
  C107     1.0000 0.90990  0.23600  0.36780  Biso   1.000  C
  O85      1.0000 0.86340  0.21070  0.40700  Biso   1.000  O
  O86      1.0000 0.90650  0.29530  0.36090  Biso   1.000  O
  C108     1.0000 0.02320  0.22120  0.25210  Biso   1.000  C
  Gd22     1.0000 0.78690  0.75090  0.47670  Biso   1.000  Gd
  C109     1.0000 0.96300  0.77300  0.37400  Biso   1.000  C
  C110     1.0000 0.92440  0.72830  0.40950  Biso   1.000  C
  O87      1.0000 0.89880  0.75500  0.45530  Biso   1.000  O
  O88      1.0000 0.96710  0.68780  0.41880  Biso   1.000  O
  C111     1.0000 0.05140  0.80690  0.35960  Biso   1.000  C
  C112     1.0000 0.09010  0.76400  0.36780  Biso   1.000  C
  O89      1.0000 0.13660  0.78930  0.40700  Biso   1.000  O
  O90      1.0000 0.09350  0.70470  0.36090  Biso   1.000  O
  C113     1.0000 0.97680  0.77880  0.25210  Biso   1.000  C
  Gd23     1.0000 0.21310  0.24910  0.47670  Biso   1.000  Gd
  C114     1.0000 0.03700  0.22700  0.37400  Biso   1.000  C
  C115     1.0000 0.07560  0.27170  0.40950  Biso   1.000  C
  O91      1.0000 0.10120  0.24500  0.45530  Biso   1.000  O
  O92      1.0000 0.03290  0.31220  0.41880  Biso   1.000  O
  C116     1.0000 0.05140  0.19310  0.64040  Biso   1.000  C
  C117     1.0000 0.09010  0.23600  0.63220  Biso   1.000  C
  O93      1.0000 0.13660  0.21070  0.59300  Biso   1.000  O
  O94      1.0000 0.09350  0.29530  0.63910  Biso   1.000  O
  C118     1.0000 0.97680  0.22120  0.74790  Biso   1.000  C
  Gd24     1.0000 0.21310  0.75090  0.52330  Biso   1.000  Gd
  C119     1.0000 0.03700  0.77300  0.62600  Biso   1.000  C
  C120     1.0000 0.07560  0.72830  0.59050  Biso   1.000  C
  O95      1.0000 0.10120  0.75500  0.54470  Biso   1.000  O
  O96      1.0000 0.03290  0.68780  0.58120  Biso   1.000  O
  C121     1.0000 0.64040  0.19310  0.05140  Biso   1.000  C
  C122     1.0000 0.63220  0.23600  0.09010  Biso   1.000  C
  O97      1.0000 0.59300  0.21070  0.13660  Biso   1.000  O
  O98      1.0000 0.63910  0.29530  0.09350  Biso   1.000  O
  C123     1.0000 0.74790  0.22120  0.97680  Biso   1.000  C
  Gd25     1.0000 0.52330  0.75090  0.21310  Biso   1.000  Gd
  C124     1.0000 0.62600  0.77300  0.03700  Biso   1.000  C
  C125     1.0000 0.59050  0.72830  0.07560  Biso   1.000  C
  O99      1.0000 0.54470  0.75500  0.10120  Biso   1.000  O
  O100     1.0000 0.58120  0.68780  0.03290  Biso   1.000  O
  C126     1.0000 0.35960  0.80690  0.05140  Biso   1.000  C
  C127     1.0000 0.36780  0.76400  0.09010  Biso   1.000  C
  O101     1.0000 0.40700  0.78930  0.13660  Biso   1.000  O
  O102     1.0000 0.36090  0.70470  0.09350  Biso   1.000  O
  C128     1.0000 0.25210  0.77880  0.97680  Biso   1.000  C
  Gd26     1.0000 0.47670  0.24910  0.21310  Biso   1.000  Gd
  C129     1.0000 0.37400  0.22700  0.03700  Biso   1.000  C
  C130     1.0000 0.40950  0.27170  0.07560  Biso   1.000  C
  O103     1.0000 0.45530  0.24500  0.10120  Biso   1.000  O
  O104     1.0000 0.41880  0.31220  0.03290  Biso   1.000  O
  C131     1.0000 0.35960  0.19310  0.94860  Biso   1.000  C
  C132     1.0000 0.36780  0.23600  0.90990  Biso   1.000  C
  O105     1.0000 0.40700  0.21070  0.86340  Biso   1.000  O
  O106     1.0000 0.36090  0.29530  0.90650  Biso   1.000  O
  C133     1.0000 0.25210  0.22120  0.02320  Biso   1.000  C
  Gd27     1.0000 0.47670  0.75090  0.78690  Biso   1.000  Gd
  C134     1.0000 0.37400  0.77300  0.96300  Biso   1.000  C
  C135     1.0000 0.40950  0.72830  0.92440  Biso   1.000  C
  O107     1.0000 0.45530  0.75500  0.89880  Biso   1.000  O
  O108     1.0000 0.41880  0.68780  0.96710  Biso   1.000  O
  C136     1.0000 0.64040  0.80690  0.94860  Biso   1.000  C
  C137     1.0000 0.63220  0.76400  0.90990  Biso   1.000  C
  O109     1.0000 0.59300  0.78930  0.86340  Biso   1.000  O
  O110     1.0000 0.63910  0.70470  0.90650  Biso   1.000  O
  C138     1.0000 0.74790  0.77880  0.02320  Biso   1.000  C
  Gd28     1.0000 0.52330  0.24910  0.78690  Biso   1.000  Gd
  C139     1.0000 0.62600  0.22700  0.96300  Biso   1.000  C
  C140     1.0000 0.59050  0.27170  0.92440  Biso   1.000  C
  O111     1.0000 0.54470  0.24500  0.89880  Biso   1.000  O
  O112     1.0000 0.58120  0.31220  0.96710  Biso   1.000  O
  C141     1.0000 0.05140  0.64040  0.19310  Biso   1.000  C
  C142     1.0000 0.09010  0.63220  0.23600  Biso   1.000  C
  O113     1.0000 0.13660  0.59300  0.21070  Biso   1.000  O
  O114     1.0000 0.09350  0.63910  0.29530  Biso   1.000  O
  C143     1.0000 0.97680  0.74790  0.22120  Biso   1.000  C
  Gd29     1.0000 0.21310  0.52330  0.75090  Biso   1.000  Gd
  C144     1.0000 0.03700  0.62600  0.77300  Biso   1.000  C
  C145     1.0000 0.07560  0.59050  0.72830  Biso   1.000  C
  O115     1.0000 0.10120  0.54470  0.75500  Biso   1.000  O
  O116     1.0000 0.03290  0.58120  0.68780  Biso   1.000  O
  C146     1.0000 0.05140  0.35960  0.80690  Biso   1.000  C
  C147     1.0000 0.09010  0.36780  0.76400  Biso   1.000  C
  O117     1.0000 0.13660  0.40700  0.78930  Biso   1.000  O
  O118     1.0000 0.09350  0.36090  0.70470  Biso   1.000  O
  C148     1.0000 0.97680  0.25210  0.77880  Biso   1.000  C
  Gd30     1.0000 0.21310  0.47670  0.24910  Biso   1.000  Gd
  C149     1.0000 0.03700  0.37400  0.22700  Biso   1.000  C
  C150     1.0000 0.07560  0.40950  0.27170  Biso   1.000  C
  O119     1.0000 0.10120  0.45530  0.24500  Biso   1.000  O
  O120     1.0000 0.03290  0.41880  0.31220  Biso   1.000  O
  C151     1.0000 0.94860  0.35960  0.19310  Biso   1.000  C
  C152     1.0000 0.90990  0.36780  0.23600  Biso   1.000  C
  O121     1.0000 0.86340  0.40700  0.21070  Biso   1.000  O
  O122     1.0000 0.90650  0.36090  0.29530  Biso   1.000  O
  C153     1.0000 0.02320  0.25210  0.22120  Biso   1.000  C
  Gd31     1.0000 0.78690  0.47670  0.75090  Biso   1.000  Gd
  C154     1.0000 0.96300  0.37400  0.77300  Biso   1.000  C
  C155     1.0000 0.92440  0.40950  0.72830  Biso   1.000  C
  O123     1.0000 0.89880  0.45530  0.75500  Biso   1.000  O
  O124     1.0000 0.96710  0.41880  0.68780  Biso   1.000  O
  C156     1.0000 0.94860  0.64040  0.80690  Biso   1.000  C
  C157     1.0000 0.90990  0.63220  0.76400  Biso   1.000  C
  O125     1.0000 0.86340  0.59300  0.78930  Biso   1.000  O
  O126     1.0000 0.90650  0.63910  0.70470  Biso   1.000  O
  C158     1.0000 0.02320  0.74790  0.77880  Biso   1.000  C
  Gd32     1.0000 0.78690  0.52330  0.24910  Biso   1.000  Gd
  C159     1.0000 0.96300  0.62600  0.22700  Biso   1.000  C
  C160     1.0000 0.92440  0.59050  0.27170  Biso   1.000  C
  O127     1.0000 0.89880  0.54470  0.24500  Biso   1.000  O
  O128     1.0000 0.96710  0.58120  0.31220  Biso   1.000  O
  C161     1.0000 0.19310  0.05140  0.64040  Biso   1.000  C
  C162     1.0000 0.23600  0.09010  0.63220  Biso   1.000  C
  O129     1.0000 0.21070  0.13660  0.59300  Biso   1.000  O
  O130     1.0000 0.29530  0.09350  0.63910  Biso   1.000  O
  C163     1.0000 0.22120  0.97680  0.74790  Biso   1.000  C
  Gd33     1.0000 0.75090  0.21310  0.52330  Biso   1.000  Gd
  C164     1.0000 0.77300  0.03700  0.62600  Biso   1.000  C
  C165     1.0000 0.72830  0.07560  0.59050  Biso   1.000  C
  O131     1.0000 0.75500  0.10120  0.54470  Biso   1.000  O
  O132     1.0000 0.68780  0.03290  0.58120  Biso   1.000  O
  C166     1.0000 0.80690  0.05140  0.35960  Biso   1.000  C
  C167     1.0000 0.76400  0.09010  0.36780  Biso   1.000  C
  O133     1.0000 0.78930  0.13660  0.40700  Biso   1.000  O
  O134     1.0000 0.70470  0.09350  0.36090  Biso   1.000  O
  C168     1.0000 0.77880  0.97680  0.25210  Biso   1.000  C
  Gd34     1.0000 0.24910  0.21310  0.47670  Biso   1.000  Gd
  C169     1.0000 0.22700  0.03700  0.37400  Biso   1.000  C
  C170     1.0000 0.27170  0.07560  0.40950  Biso   1.000  C
  O135     1.0000 0.24500  0.10120  0.45530  Biso   1.000  O
  O136     1.0000 0.31220  0.03290  0.41880  Biso   1.000  O
  C171     1.0000 0.19310  0.94860  0.35960  Biso   1.000  C
  C172     1.0000 0.23600  0.90990  0.36780  Biso   1.000  C
  O137     1.0000 0.21070  0.86340  0.40700  Biso   1.000  O
  O138     1.0000 0.29530  0.90650  0.36090  Biso   1.000  O
  C173     1.0000 0.22120  0.02320  0.25210  Biso   1.000  C
  Gd35     1.0000 0.75090  0.78690  0.47670  Biso   1.000  Gd
  C174     1.0000 0.77300  0.96300  0.37400  Biso   1.000  C
  C175     1.0000 0.72830  0.92440  0.40950  Biso   1.000  C
  O139     1.0000 0.75500  0.89880  0.45530  Biso   1.000  O
  O140     1.0000 0.68780  0.96710  0.41880  Biso   1.000  O
  C176     1.0000 0.80690  0.94860  0.64040  Biso   1.000  C
  C177     1.0000 0.76400  0.90990  0.63220  Biso   1.000  C
  O141     1.0000 0.78930  0.86340  0.59300  Biso   1.000  O
  O142     1.0000 0.70470  0.90650  0.63910  Biso   1.000  O
  C178     1.0000 0.77880  0.02320  0.74790  Biso   1.000  C
  Gd36     1.0000 0.24910  0.78690  0.52330  Biso   1.000  Gd
  C179     1.0000 0.22700  0.96300  0.62600  Biso   1.000  C
  C180     1.0000 0.27170  0.92440  0.59050  Biso   1.000  C
  O143     1.0000 0.24500  0.89880  0.54470  Biso   1.000  O
  O144     1.0000 0.31220  0.96710  0.58120  Biso   1.000  O
  C181     1.0000 0.19310  0.64040  0.94860  Biso   1.000  C
  C182     1.0000 0.23600  0.63220  0.90990  Biso   1.000  C
  O145     1.0000 0.21070  0.59300  0.86340  Biso   1.000  O
  O146     1.0000 0.29530  0.63910  0.90650  Biso   1.000  O
  C183     1.0000 0.22120  0.74790  0.02320  Biso   1.000  C
  Gd37     1.0000 0.75090  0.52330  0.78690  Biso   1.000  Gd
  C184     1.0000 0.77300  0.62600  0.96300  Biso   1.000  C
  C185     1.0000 0.72830  0.59050  0.92440  Biso   1.000  C
  O147     1.0000 0.75500  0.54470  0.89880  Biso   1.000  O
  O148     1.0000 0.68780  0.58120  0.96710  Biso   1.000  O
  C186     1.0000 0.80690  0.35960  0.94860  Biso   1.000  C
  C187     1.0000 0.76400  0.36780  0.90990  Biso   1.000  C
  O149     1.0000 0.78930  0.40700  0.86340  Biso   1.000  O
  O150     1.0000 0.70470  0.36090  0.90650  Biso   1.000  O
  C188     1.0000 0.77880  0.25210  0.02320  Biso   1.000  C
  Gd38     1.0000 0.24910  0.47670  0.78690  Biso   1.000  Gd
  C189     1.0000 0.22700  0.37400  0.96300  Biso   1.000  C
  C190     1.0000 0.27170  0.40950  0.92440  Biso   1.000  C
  O151     1.0000 0.24500  0.45530  0.89880  Biso   1.000  O
  O152     1.0000 0.31220  0.41880  0.96710  Biso   1.000  O
  C191     1.0000 0.19310  0.35960  0.05140  Biso   1.000  C
  C192     1.0000 0.23600  0.36780  0.09010  Biso   1.000  C
  O153     1.0000 0.21070  0.40700  0.13660  Biso   1.000  O
  O154     1.0000 0.29530  0.36090  0.09350  Biso   1.000  O
  C193     1.0000 0.22120  0.25210  0.97680  Biso   1.000  C
  Gd39     1.0000 0.75090  0.47670  0.21310  Biso   1.000  Gd
  C194     1.0000 0.77300  0.37400  0.03700  Biso   1.000  C
  C195     1.0000 0.72830  0.40950  0.07560  Biso   1.000  C
  O155     1.0000 0.75500  0.45530  0.10120  Biso   1.000  O
  O156     1.0000 0.68780  0.41880  0.03290  Biso   1.000  O
  C196     1.0000 0.80690  0.64040  0.05140  Biso   1.000  C
  C197     1.0000 0.76400  0.63220  0.09010  Biso   1.000  C
  O157     1.0000 0.78930  0.59300  0.13660  Biso   1.000  O
  O158     1.0000 0.70470  0.63910  0.09350  Biso   1.000  O
  C198     1.0000 0.77880  0.74790  0.97680  Biso   1.000  C
  Gd40     1.0000 0.24910  0.52330  0.21310  Biso   1.000  Gd
  C199     1.0000 0.22700  0.62600  0.03700  Biso   1.000  C
  C200     1.0000 0.27170  0.59050  0.07560  Biso   1.000  C
  O159     1.0000 0.24500  0.54470  0.10120  Biso   1.000  O
  O160     1.0000 0.31220  0.58120  0.03290  Biso   1.000  O
  C201     1.0000 0.64040  0.05140  0.80690  Biso   1.000  C
  C202     1.0000 0.63220  0.09010  0.76400  Biso   1.000  C
  O161     1.0000 0.59300  0.13660  0.78930  Biso   1.000  O
  O162     1.0000 0.63910  0.09350  0.70470  Biso   1.000  O
  C203     1.0000 0.74790  0.97680  0.77880  Biso   1.000  C
  Gd41     1.0000 0.52330  0.21310  0.24910  Biso   1.000  Gd
  C204     1.0000 0.62600  0.03700  0.22700  Biso   1.000  C
  C205     1.0000 0.59050  0.07560  0.27170  Biso   1.000  C
  O163     1.0000 0.54470  0.10120  0.24500  Biso   1.000  O
  O164     1.0000 0.58120  0.03290  0.31220  Biso   1.000  O
  C206     1.0000 0.35960  0.05140  0.19310  Biso   1.000  C
  C207     1.0000 0.36780  0.09010  0.23600  Biso   1.000  C
  O165     1.0000 0.40700  0.13660  0.21070  Biso   1.000  O
  O166     1.0000 0.36090  0.09350  0.29530  Biso   1.000  O
  C208     1.0000 0.25210  0.97680  0.22120  Biso   1.000  C
  Gd42     1.0000 0.47670  0.21310  0.75090  Biso   1.000  Gd
  C209     1.0000 0.37400  0.03700  0.77300  Biso   1.000  C
  C210     1.0000 0.40950  0.07560  0.72830  Biso   1.000  C
  O167     1.0000 0.45530  0.10120  0.75500  Biso   1.000  O
  O168     1.0000 0.41880  0.03290  0.68780  Biso   1.000  O
  C211     1.0000 0.35960  0.94860  0.80690  Biso   1.000  C
  C212     1.0000 0.36780  0.90990  0.76400  Biso   1.000  C
  O169     1.0000 0.40700  0.86340  0.78930  Biso   1.000  O
  O170     1.0000 0.36090  0.90650  0.70470  Biso   1.000  O
  C213     1.0000 0.25210  0.02320  0.77880  Biso   1.000  C
  Gd43     1.0000 0.47670  0.78690  0.24910  Biso   1.000  Gd
  C214     1.0000 0.37400  0.96300  0.22700  Biso   1.000  C
  C215     1.0000 0.40950  0.92440  0.27170  Biso   1.000  C
  O171     1.0000 0.45530  0.89880  0.24500  Biso   1.000  O
  O172     1.0000 0.41880  0.96710  0.31220  Biso   1.000  O
  C216     1.0000 0.64040  0.94860  0.19310  Biso   1.000  C
  C217     1.0000 0.63220  0.90990  0.23600  Biso   1.000  C
  O173     1.0000 0.59300  0.86340  0.21070  Biso   1.000  O
  O174     1.0000 0.63910  0.90650  0.29530  Biso   1.000  O
  C218     1.0000 0.74790  0.02320  0.22120  Biso   1.000  C
  Gd44     1.0000 0.52330  0.78690  0.75090  Biso   1.000  Gd
  C219     1.0000 0.62600  0.96300  0.77300  Biso   1.000  C
  C220     1.0000 0.59050  0.92440  0.72830  Biso   1.000  C
  O175     1.0000 0.54470  0.89880  0.75500  Biso   1.000  O
  O176     1.0000 0.58120  0.96710  0.68780  Biso   1.000  O
  C221     1.0000 0.05140  0.19310  0.35960  Biso   1.000  C
  C222     1.0000 0.09010  0.23600  0.36780  Biso   1.000  C
  O177     1.0000 0.13660  0.21070  0.40700  Biso   1.000  O
  O178     1.0000 0.09350  0.29530  0.36090  Biso   1.000  O
  C223     1.0000 0.97680  0.22120  0.25210  Biso   1.000  C
  Gd45     1.0000 0.21310  0.75090  0.47670  Biso   1.000  Gd
  C224     1.0000 0.03700  0.77300  0.37400  Biso   1.000  C
  C225     1.0000 0.07560  0.72830  0.40950  Biso   1.000  C
  O179     1.0000 0.10120  0.75500  0.45530  Biso   1.000  O
  O180     1.0000 0.03290  0.68780  0.41880  Biso   1.000  O
  C226     1.0000 0.05140  0.80690  0.64040  Biso   1.000  C
  C227     1.0000 0.09010  0.76400  0.63220  Biso   1.000  C
  O181     1.0000 0.13660  0.78930  0.59300  Biso   1.000  O
  O182     1.0000 0.09350  0.70470  0.63910  Biso   1.000  O
  C228     1.0000 0.97680  0.77880  0.74790  Biso   1.000  C
  Gd46     1.0000 0.21310  0.24910  0.52330  Biso   1.000  Gd
  C229     1.0000 0.03700  0.22700  0.62600  Biso   1.000  C
  C230     1.0000 0.07560  0.27170  0.59050  Biso   1.000  C
  O183     1.0000 0.10120  0.24500  0.54470  Biso   1.000  O
  O184     1.0000 0.03290  0.31220  0.58120  Biso   1.000  O
  C231     1.0000 0.94860  0.19310  0.64040  Biso   1.000  C
  C232     1.0000 0.90990  0.23600  0.63220  Biso   1.000  C
  O185     1.0000 0.86340  0.21070  0.59300  Biso   1.000  O
  O186     1.0000 0.90650  0.29530  0.63910  Biso   1.000  O
  C233     1.0000 0.02320  0.22120  0.74790  Biso   1.000  C
  Gd47     1.0000 0.78690  0.75090  0.52330  Biso   1.000  Gd
  C234     1.0000 0.96300  0.77300  0.62600  Biso   1.000  C
  C235     1.0000 0.92440  0.72830  0.59050  Biso   1.000  C
  O187     1.0000 0.89880  0.75500  0.54470  Biso   1.000  O
  O188     1.0000 0.96710  0.68780  0.58120  Biso   1.000  O
  C236     1.0000 0.94860  0.80690  0.35960  Biso   1.000  C
  C237     1.0000 0.90990  0.76400  0.36780  Biso   1.000  C
  O189     1.0000 0.86340  0.78930  0.40700  Biso   1.000  O
  O190     1.0000 0.90650  0.70470  0.36090  Biso   1.000  O
  C238     1.0000 0.02320  0.77880  0.25210  Biso   1.000  C
  Gd48     1.0000 0.78690  0.24910  0.47670  Biso   1.000  Gd
  C239     1.0000 0.96300  0.22700  0.37400  Biso   1.000  C
  C240     1.0000 0.92440  0.27170  0.40950  Biso   1.000  C
  O191     1.0000 0.89880  0.24500  0.45530  Biso   1.000  O
  O192     1.0000 0.96710  0.31220  0.41880  Biso   1.000  O
  Gd49     1.0000 0.50000  0.80275  0.80275  Biso   1.000  Gd
  Gd50     1.0000 0.50000  0.19725  0.80275  Biso   1.000  Gd
  Gd51     1.0000 0.50000  0.80275  0.19725  Biso   1.000  Gd
  Gd52     1.0000 0.50000  0.19725  0.19725  Biso   1.000  Gd
  Gd53     1.0000 0.80275  0.50000  0.80275  Biso   1.000  Gd
  Gd54     1.0000 0.80275  0.50000  0.19725  Biso   1.000  Gd
  Gd55     1.0000 0.19725  0.50000  0.80275  Biso   1.000  Gd
  Gd56     1.0000 0.19725  0.50000  0.19725  Biso   1.000  Gd
  Gd57     1.0000 0.80275  0.80275  0.50000  Biso   1.000  Gd
  Gd58     1.0000 0.19725  0.80275  0.50000  Biso   1.000  Gd
  Gd59     1.0000 0.80275  0.19725  0.50000  Biso   1.000  Gd
  Gd60     1.0000 0.19725  0.19725  0.50000  Biso   1.000  Gd
  Ni1      1.0000 0.32794  0.67206  0.00000  Biso   1.000  Ni
  Ni2      1.0000 0.67206  0.32794  0.00000  Biso   1.000  Ni
  Ni3      1.0000 0.67206  0.67206  0.00000  Biso   1.000  Ni
  Ni4      1.0000 0.32794  0.32794  0.00000  Biso   1.000  Ni
  Ni5      1.0000 0.00000  0.32794  0.67206  Biso   1.000  Ni
  Ni6      1.0000 0.00000  0.67206  0.32794  Biso   1.000  Ni
  Ni7      1.0000 0.00000  0.67206  0.67206  Biso   1.000  Ni
  Ni8      1.0000 0.00000  0.32794  0.32794  Biso   1.000  Ni
  Ni9      1.0000 0.67206  0.00000  0.32794  Biso   1.000  Ni
  Ni10     1.0000 0.32794  0.00000  0.67206  Biso   1.000  Ni
  Ni11     1.0000 0.67206  0.00000  0.67206  Biso   1.000  Ni
  Ni12     1.0000 0.32794  0.00000  0.32794  Biso   1.000  Ni
  N1       1.0000 0.32710  0.77150  0.00000  Biso   1.000  N
  C241     1.0000 0.24700  0.85100  0.00000  Biso   1.000  C
  N2       1.0000 0.67290  0.22850  0.00000  Biso   1.000  N
  C242     1.0000 0.75300  0.14900  0.00000  Biso   1.000  C
  N3       1.0000 0.67290  0.77150  0.00000  Biso   1.000  N
  C243     1.0000 0.75300  0.85100  0.00000  Biso   1.000  C
  N4       1.0000 0.32710  0.22850  0.00000  Biso   1.000  N
  C244     1.0000 0.24700  0.14900  0.00000  Biso   1.000  C
  N5       1.0000 0.00000  0.32710  0.77150  Biso   1.000  N
  C245     1.0000 0.00000  0.24700  0.85100  Biso   1.000  C
  N6       1.0000 0.00000  0.67290  0.22850  Biso   1.000  N
  C246     1.0000 0.00000  0.75300  0.14900  Biso   1.000  C
  N7       1.0000 0.00000  0.67290  0.77150  Biso   1.000  N
  C247     1.0000 0.00000  0.75300  0.85100  Biso   1.000  C
  N8       1.0000 0.00000  0.32710  0.22850  Biso   1.000  N
  C248     1.0000 0.00000  0.24700  0.14900  Biso   1.000  C
  N9       1.0000 0.77150  0.00000  0.32710  Biso   1.000  N
  C249     1.0000 0.85100  0.00000  0.24700  Biso   1.000  C
  N10      1.0000 0.22850  0.00000  0.67290  Biso   1.000  N
  C250     1.0000 0.14900  0.00000  0.75300  Biso   1.000  C
  N11      1.0000 0.77150  0.00000  0.67290  Biso   1.000  N
  C251     1.0000 0.85100  0.00000  0.75300  Biso   1.000  C
  N12      1.0000 0.22850  0.00000  0.32710  Biso   1.000  N
  C252     1.0000 0.14900  0.00000  0.24700  Biso   1.000  C
  N13      1.0000 0.77150  0.32710  0.00000  Biso   1.000  N
  C253     1.0000 0.85100  0.24700  0.00000  Biso   1.000  C
  N14      1.0000 0.22850  0.67290  0.00000  Biso   1.000  N
  C254     1.0000 0.14900  0.75300  0.00000  Biso   1.000  C
  N15      1.0000 0.77150  0.67290  0.00000  Biso   1.000  N
  C255     1.0000 0.85100  0.75300  0.00000  Biso   1.000  C
  N16      1.0000 0.22850  0.32710  0.00000  Biso   1.000  N
  C256     1.0000 0.14900  0.24700  0.00000  Biso   1.000  C
  N17      1.0000 0.32710  0.00000  0.22850  Biso   1.000  N
  C257     1.0000 0.24700  0.00000  0.14900  Biso   1.000  C
  N18      1.0000 0.67290  0.00000  0.77150  Biso   1.000  N
  C258     1.0000 0.75300  0.00000  0.85100  Biso   1.000  C
  N19      1.0000 0.67290  0.00000  0.22850  Biso   1.000  N
  C259     1.0000 0.75300  0.00000  0.14900  Biso   1.000  C
  N20      1.0000 0.32710  0.00000  0.77150  Biso   1.000  N
  C260     1.0000 0.24700  0.00000  0.85100  Biso   1.000  C
  N21      1.0000 0.00000  0.77150  0.67290  Biso   1.000  N
  C261     1.0000 0.00000  0.85100  0.75300  Biso   1.000  C
  N22      1.0000 0.00000  0.22850  0.32710  Biso   1.000  N
  C262     1.0000 0.00000  0.14900  0.24700  Biso   1.000  C
  N23      1.0000 0.00000  0.77150  0.32710  Biso   1.000  N
  C263     1.0000 0.00000  0.85100  0.24700  Biso   1.000  C
  N24      1.0000 0.00000  0.22850  0.67290  Biso   1.000  N
  C264     1.0000 0.00000  0.14900  0.75300  Biso   1.000  C
  O193     1.0000 0.58930  0.74340  0.74340  Biso   1.000  O
  O194     1.0000 0.41070  0.25660  0.74340  Biso   1.000  O
  O195     1.0000 0.41070  0.74340  0.25660  Biso   1.000  O
  O196     1.0000 0.58930  0.25660  0.25660  Biso   1.000  O
  O197     1.0000 0.74340  0.58930  0.74340  Biso   1.000  O
  O198     1.0000 0.74340  0.41070  0.25660  Biso   1.000  O
  O199     1.0000 0.25660  0.41070  0.74340  Biso   1.000  O
  O200     1.0000 0.25660  0.58930  0.25660  Biso   1.000  O
  O201     1.0000 0.74340  0.74340  0.58930  Biso   1.000  O
  O202     1.0000 0.25660  0.74340  0.41070  Biso   1.000  O
  O203     1.0000 0.74340  0.25660  0.41070  Biso   1.000  O
  O204     1.0000 0.25660  0.25660  0.58930  Biso   1.000  O
  O205     1.0000 0.74340  0.58930  0.25660  Biso   1.000  O
  O206     1.0000 0.25660  0.41070  0.25660  Biso   1.000  O
  O207     1.0000 0.74340  0.41070  0.74340  Biso   1.000  O
  O208     1.0000 0.25660  0.58930  0.74340  Biso   1.000  O
  O209     1.0000 0.58930  0.74340  0.25660  Biso   1.000  O
  O210     1.0000 0.41070  0.74340  0.74340  Biso   1.000  O
  O211     1.0000 0.41070  0.25660  0.25660  Biso   1.000  O
  O212     1.0000 0.58930  0.25660  0.74340  Biso   1.000  O
  O213     1.0000 0.74340  0.74340  0.41070  Biso   1.000  O
  O214     1.0000 0.74340  0.25660  0.58930  Biso   1.000  O
  O215     1.0000 0.25660  0.74340  0.58930  Biso   1.000  O
  O216     1.0000 0.25660  0.25660  0.41070  Biso   1.000  O
