data_image0
_cell_length_a       10.443
_cell_length_b       11.542
_cell_length_c       13.197
_cell_angle_alpha    87.51
_cell_angle_beta     70.648
_cell_angle_gamma    85.711

_symmetry_space_group_name_H-M    "P 1"
_symmetry_int_tables_number       1

loop_
  _symmetry_equiv_pos_as_xyz
  'x, y, z'

loop_
  _atom_site_label
  _atom_site_occupancy
  _atom_site_fract_x
  _atom_site_fract_y
  _atom_site_fract_z
  _atom_site_thermal_displace_type
  _atom_site_B_iso_or_equiv
  _atom_site_type_symbol
  Cd1      1.0000 0.61267  0.88678  0.04891  Biso   1.000  Cd
  O1       1.0000 0.48850  0.07520  0.08500  Biso   1.000  O
  O2       1.0000 0.57950  0.00920  0.20480  Biso   1.000  O
  O3       1.0000 0.72050  0.71000  0.96410  Biso   1.000  O
  O4       1.0000 0.74260  0.73980  0.12110  Biso   1.000  O
  N1       1.0000 0.80700  0.97650  0.94860  Biso   1.000  N
  N2       1.0000 0.04470  0.99380  0.59250  Biso   1.000  N
  N3       1.0000 0.43150  0.78770  0.15880  Biso   1.000  N
  N4       1.0000 0.42220  0.58060  0.45810  Biso   1.000  N
  C1       1.0000 0.24590  0.66810  0.18850  Biso   1.000  C
  H1       1.0000 0.18450  0.63610  0.16200  Biso   1.000  H
  C2       1.0000 0.84890  0.07070  0.98150  Biso   1.000  C
  H2       1.0000 0.79830  0.10130  0.04790  Biso   1.000  H
  C3       1.0000 0.96460  0.12370  0.92030  Biso   1.000  C
  H3       1.0000 0.99000  0.18990  0.94460  Biso   1.000  H
  C4       1.0000 0.04160  0.07790  0.82330  Biso   1.000  C
  H4       1.0000 0.12090  0.11160  0.78200  Biso   1.000  H
  C5       1.0000 0.00040  0.98120  0.78740  Biso   1.000  C
  C6       1.0000 0.88200  0.93330  0.85470  Biso   1.000  C
  H5       1.0000 0.85430  0.86720  0.83210  Biso   1.000  H
  C7       1.0000 0.07620  0.92830  0.68060  Biso   1.000  C
  H6       1.0000 0.17320  0.92720  0.66820  Biso   1.000  H
  H7       1.0000 0.05210  0.84870  0.68130  Biso   1.000  H
  C8       1.0000 0.90070  0.99440  0.60320  Biso   1.000  C
  H8       1.0000 0.84630  0.03160  0.66960  Biso   1.000  H
  H9       1.0000 0.87460  0.91510  0.60640  Biso   1.000  H
  C9       1.0000 0.12650  0.94160  0.49040  Biso   1.000  C
  H10      1.0000 0.10550  0.86110  0.49080  Biso   1.000  H
  H11      1.0000 0.22210  0.94310  0.48210  Biso   1.000  H
  C10      1.0000 0.34300  0.73720  0.12400  Biso   1.000  C
  H12      1.0000 0.34750  0.74970  0.05280  Biso   1.000  H
  C11      1.0000 0.24100  0.64670  0.29440  Biso   1.000  C
  H13      1.0000 0.17700  0.59900  0.33920  Biso   1.000  H
  C12      1.0000 0.33170  0.69680  0.33220  Biso   1.000  C
  C13      1.0000 0.42600  0.76710  0.26060  Biso   1.000  C
  H14      1.0000 0.48790  0.80120  0.28500  Biso   1.000  H
  C14      1.0000 0.33290  0.67890  0.44620  Biso   1.000  C
  H15      1.0000 0.36170  0.74860  0.46850  Biso   1.000  H
  H16      1.0000 0.24120  0.66700  0.49330  Biso   1.000  H
  C15      1.0000 0.54570  0.56270  0.40070  Biso   1.000  C
  H17      1.0000 0.59560  0.62670  0.41020  Biso   1.000  H
  H18      1.0000 0.55070  0.56410  0.32590  Biso   1.000  H
  C16      1.0000 0.38280  0.54990  0.57710  Biso   1.000  C
  H19      1.0000 0.40490  0.61240  0.61400  Biso   1.000  H
  H20      1.0000 0.28520  0.54310  0.60590  Biso   1.000  H
  C17      1.0000 0.75960  0.67700  0.04070  Biso   1.000  C
  C18      1.0000 0.82710  0.55660  0.04050  Biso   1.000  C
  H21      1.0000 0.89430  0.55820  0.07640  Biso   1.000  H
  H22      1.0000 0.87440  0.53410  0.96680  Biso   1.000  H
  C19      1.0000 0.72710  0.46570  0.09570  Biso   1.000  C
  C20      1.0000 0.59320  0.47450  0.09740  Biso   1.000  C
  H23      1.0000 0.56180  0.53980  0.06670  Biso   1.000  H
  C21      1.0000 0.76890  0.36780  0.14410  Biso   1.000  C
  H24      1.0000 0.85780  0.35980  0.14520  Biso   1.000  H
  C22      1.0000 0.50560  0.38900  0.14340  Biso   1.000  C
  H25      1.0000 0.41650  0.39710  0.14310  Biso   1.000  H
  C23      1.0000 0.68230  0.28290  0.19040  Biso   1.000  C
  H26      1.0000 0.71310  0.21850  0.22270  Biso   1.000  H
  C24      1.0000 0.54960  0.29100  0.19010  Biso   1.000  C
  C25      1.0000 0.45480  0.19400  0.23750  Biso   1.000  C
  H27      1.0000 0.44840  0.17920  0.31190  Biso   1.000  H
  H28      1.0000 0.36450  0.21690  0.23530  Biso   1.000  H
  C26      1.0000 0.50960  0.08480  0.17330  Biso   1.000  C
  C27      1.0000 0.42510  0.48070  0.42870  Biso   1.000  C
  H29      1.0000 0.42860  0.48370  0.35430  Biso   1.000  H
  H30      1.0000 0.34070  0.44740  0.47070  Biso   1.000  H
  C28      1.0000 0.45490  0.60200  0.56200  Biso   1.000  C
  H31      1.0000 0.47790  0.68190  0.56180  Biso   1.000  H
  H32      1.0000 0.37490  0.59020  0.62400  Biso   1.000  H
  Cd2      1.0000 0.38733  0.11322  0.95109  Biso   1.000  Cd
  O5       1.0000 0.51150  0.92480  0.91500  Biso   1.000  O
  O6       1.0000 0.42050  0.99080  0.79520  Biso   1.000  O
  O7       1.0000 0.27950  0.29000  0.03590  Biso   1.000  O
  O8       1.0000 0.25740  0.26020  0.87890  Biso   1.000  O
  N5       1.0000 0.19300  0.02350  0.05140  Biso   1.000  N
  N6       1.0000 0.95530  0.00620  0.40750  Biso   1.000  N
  N7       1.0000 0.56850  0.21230  0.84120  Biso   1.000  N
  N8       1.0000 0.57780  0.41940  0.54190  Biso   1.000  N
  C29      1.0000 0.75410  0.33190  0.81150  Biso   1.000  C
  H33      1.0000 0.81550  0.36390  0.83800  Biso   1.000  H
  C30      1.0000 0.15110  0.92930  0.01850  Biso   1.000  C
  H34      1.0000 0.20170  0.89870  0.95210  Biso   1.000  H
  C31      1.0000 0.03540  0.87630  0.07970  Biso   1.000  C
  H35      1.0000 0.01000  0.81010  0.05540  Biso   1.000  H
  C32      1.0000 0.95840  0.92210  0.17670  Biso   1.000  C
  H36      1.0000 0.87910  0.88840  0.21800  Biso   1.000  H
  C33      1.0000 0.99960  0.01880  0.21260  Biso   1.000  C
  C34      1.0000 0.11800  0.06670  0.14530  Biso   1.000  C
  H37      1.0000 0.14570  0.13280  0.16790  Biso   1.000  H
  C35      1.0000 0.92380  0.07170  0.31940  Biso   1.000  C
  H38      1.0000 0.82680  0.07280  0.33180  Biso   1.000  H
  H39      1.0000 0.94790  0.15130  0.31870  Biso   1.000  H
  C36      1.0000 0.09930  0.00560  0.39680  Biso   1.000  C
  H40      1.0000 0.15370  0.96840  0.33040  Biso   1.000  H
  H41      1.0000 0.12540  0.08490  0.39360  Biso   1.000  H
  C37      1.0000 0.87350  0.05840  0.50960  Biso   1.000  C
  H42      1.0000 0.89450  0.13890  0.50920  Biso   1.000  H
  H43      1.0000 0.77790  0.05690  0.51790  Biso   1.000  H
  C38      1.0000 0.65700  0.26280  0.87600  Biso   1.000  C
  H44      1.0000 0.65250  0.25030  0.94720  Biso   1.000  H
  C39      1.0000 0.75900  0.35330  0.70560  Biso   1.000  C
  H45      1.0000 0.82300  0.40100  0.66080  Biso   1.000  H
  C40      1.0000 0.66830  0.30320  0.66780  Biso   1.000  C
  C41      1.0000 0.57400  0.23290  0.73940  Biso   1.000  C
  H46      1.0000 0.51210  0.19880  0.71500  Biso   1.000  H
  C42      1.0000 0.66710  0.32110  0.55380  Biso   1.000  C
  H47      1.0000 0.63830  0.25140  0.53150  Biso   1.000  H
  H48      1.0000 0.75880  0.33300  0.50670  Biso   1.000  H
  C43      1.0000 0.45430  0.43730  0.59930  Biso   1.000  C
  H49      1.0000 0.40440  0.37330  0.58980  Biso   1.000  H
  H50      1.0000 0.44930  0.43590  0.67410  Biso   1.000  H
  C44      1.0000 0.61720  0.45010  0.42290  Biso   1.000  C
  H51      1.0000 0.59510  0.38760  0.38600  Biso   1.000  H
  H52      1.0000 0.71480  0.45690  0.39410  Biso   1.000  H
  C45      1.0000 0.24040  0.32300  0.95930  Biso   1.000  C
  C46      1.0000 0.17290  0.44340  0.95950  Biso   1.000  C
  H53      1.0000 0.10570  0.44180  0.92360  Biso   1.000  H
  H54      1.0000 0.12560  0.46590  0.03320  Biso   1.000  H
  C47      1.0000 0.27290  0.53430  0.90430  Biso   1.000  C
  C48      1.0000 0.40680  0.52550  0.90260  Biso   1.000  C
  H55      1.0000 0.43820  0.46020  0.93330  Biso   1.000  H
  C49      1.0000 0.23110  0.63220  0.85590  Biso   1.000  C
  H56      1.0000 0.14220  0.64020  0.85480  Biso   1.000  H
  C50      1.0000 0.49440  0.61100  0.85660  Biso   1.000  C
  H57      1.0000 0.58350  0.60290  0.85690  Biso   1.000  H
  C51      1.0000 0.31770  0.71710  0.80960  Biso   1.000  C
  H58      1.0000 0.28690  0.78150  0.77730  Biso   1.000  H
  C52      1.0000 0.45040  0.70900  0.80990  Biso   1.000  C
  C53      1.0000 0.54520  0.80600  0.76250  Biso   1.000  C
  H59      1.0000 0.55160  0.82080  0.68810  Biso   1.000  H
  H60      1.0000 0.63550  0.78310  0.76470  Biso   1.000  H
  C54      1.0000 0.49040  0.91520  0.82670  Biso   1.000  C
  C55      1.0000 0.57490  0.51930  0.57130  Biso   1.000  C
  H61      1.0000 0.57140  0.51630  0.64570  Biso   1.000  H
  H62      1.0000 0.65930  0.55260  0.52930  Biso   1.000  H
  C56      1.0000 0.54510  0.39800  0.43800  Biso   1.000  C
  H63      1.0000 0.52210  0.31810  0.43820  Biso   1.000  H
  H64      1.0000 0.62510  0.40980  0.37600  Biso   1.000  H
