data_image0
_cell_length_a       40.633
_cell_length_b       40.633
_cell_length_c       18.232
_cell_angle_alpha    90
_cell_angle_beta     90
_cell_angle_gamma    120

_symmetry_space_group_name_H-M    "P 1"
_symmetry_int_tables_number       1

loop_
  _symmetry_equiv_pos_as_xyz
  'x, y, z'

loop_
  _atom_site_label
  _atom_site_occupancy
  _atom_site_fract_x
  _atom_site_fract_y
  _atom_site_fract_z
  _atom_site_thermal_displace_type
  _atom_site_B_iso_or_equiv
  _atom_site_type_symbol
  Zn1      1.0000 0.39718  0.02268  0.33504  Biso   1.000  Zn
  O1       1.0000 0.38413  0.04678  0.41119  Biso   1.000  O
  O2       1.0000 0.41480  0.10431  0.35910  Biso   1.000  O
  C1       1.0000 0.39797  0.08209  0.41090  Biso   1.000  C
  C2       1.0000 0.39317  0.09832  0.48340  Biso   1.000  C
  C3       1.0000 0.37406  0.07523  0.54270  Biso   1.000  C
  H1       1.0000 0.36330  0.04870  0.53900  Biso   1.000  H
  C4       1.0000 0.37098  0.09138  0.60720  Biso   1.000  C
  H2       1.0000 0.35770  0.07540  0.64680  Biso   1.000  H
  C5       1.0000 0.38720  0.13098  0.61550  Biso   1.000  C
  C6       1.0000 0.40730  0.15469  0.55500  Biso   1.000  C
  H3       1.0000 0.41970  0.18130  0.55870  Biso   1.000  H
  C7       1.0000 0.40810  0.13664  0.48900  Biso   1.000  C
  H4       1.0000 0.41940  0.15170  0.44730  Biso   1.000  H
  C8       1.0000 0.38504  0.14822  0.68430  Biso   1.000  C
  C9       1.0000 0.38281  0.18130  0.68460  Biso   1.000  C
  H5       1.0000 0.38150  0.19190  0.63960  Biso   1.000  H
  C10      1.0000 0.37990  0.25130  0.69010  Biso   1.000  C
  H6       1.0000 0.37910  0.23960  0.64510  Biso   1.000  H
  C11      1.0000 0.37950  0.28528  0.68790  Biso   1.000  C
  H7       1.0000 0.38020  0.29680  0.64280  Biso   1.000  H
  O3       1.0000 0.37691  0.35221  0.68836  Biso   1.000  O
  O4       1.0000 0.43066  0.00983  0.38754  Biso   1.000  O
  O5       1.0000 0.48693  0.04279  0.33408  Biso   1.000  O
  C12      1.0000 0.46590  0.02256  0.38410  Biso   1.000  C
  C13      1.0000 0.48340  0.00920  0.44280  Biso   1.000  C
  C14      1.0000 0.46100  0.98440  0.49240  Biso   1.000  C
  C15      1.0000 0.52160  0.02450  0.44680  Biso   1.000  C
  C16      1.0000 0.57457  0.19002  0.28137  Biso   1.000  C
  H8       1.0000 0.57720  0.16960  0.29840  Biso   1.000  H
  C17      1.0000 0.60474  0.22702  0.28750  Biso   1.000  C
  H9       1.0000 0.62770  0.23160  0.30870  Biso   1.000  H
  C18      1.0000 0.60089  0.25720  0.26230  Biso   1.000  C
  C19      1.0000 0.56687  0.25040  0.23090  Biso   1.000  C
  H10      1.0000 0.56430  0.27080  0.21390  Biso   1.000  H
  C20      1.0000 0.53670  0.21340  0.22479  Biso   1.000  C
  H11      1.0000 0.51370  0.20880  0.20360  Biso   1.000  H
  C21      1.0000 0.63703  0.29883  0.24860  Biso   1.000  C
  C22      1.0000 0.62975  0.32811  0.22940  Biso   1.000  C
  Zn2      1.0000 0.97732  0.37450  0.33504  Biso   1.000  Zn
  O6       1.0000 0.95322  0.33735  0.41119  Biso   1.000  O
  O7       1.0000 0.89569  0.31049  0.35910  Biso   1.000  O
  C23      1.0000 0.91791  0.31588  0.41090  Biso   1.000  C
  C24      1.0000 0.90168  0.29485  0.48340  Biso   1.000  C
  C25      1.0000 0.92477  0.29883  0.54270  Biso   1.000  C
  H12      1.0000 0.95130  0.31460  0.53900  Biso   1.000  H
  C26      1.0000 0.90862  0.27960  0.60720  Biso   1.000  C
  H13      1.0000 0.92460  0.28230  0.64680  Biso   1.000  H
  C27      1.0000 0.86902  0.25622  0.61550  Biso   1.000  C
  C28      1.0000 0.84531  0.25261  0.55500  Biso   1.000  C
  H14      1.0000 0.81870  0.23840  0.55870  Biso   1.000  H
  C29      1.0000 0.86336  0.27146  0.48900  Biso   1.000  C
  H15      1.0000 0.84830  0.26770  0.44730  Biso   1.000  H
  C30      1.0000 0.85178  0.23682  0.68430  Biso   1.000  C
  C31      1.0000 0.81870  0.20151  0.68460  Biso   1.000  C
  H16      1.0000 0.80810  0.18960  0.63960  Biso   1.000  H
  C32      1.0000 0.74870  0.12860  0.69010  Biso   1.000  C
  H17      1.0000 0.76040  0.13950  0.64510  Biso   1.000  H
  C33      1.0000 0.71472  0.09422  0.68790  Biso   1.000  C
  H18      1.0000 0.70320  0.08340  0.64280  Biso   1.000  H
  O8       1.0000 0.64779  0.02470  0.68836  Biso   1.000  O
  O9       1.0000 0.99017  0.42083  0.38754  Biso   1.000  O
  O10      1.0000 0.95721  0.44414  0.33408  Biso   1.000  O
  C34      1.0000 0.97744  0.44334  0.38410  Biso   1.000  C
  C35      1.0000 0.99080  0.47420  0.44280  Biso   1.000  C
  C36      1.0000 0.01560  0.47660  0.49240  Biso   1.000  C
  C37      1.0000 0.97550  0.49710  0.44680  Biso   1.000  C
  C38      1.0000 0.80998  0.38455  0.28137  Biso   1.000  C
  H19      1.0000 0.83040  0.40760  0.29840  Biso   1.000  H
  C39      1.0000 0.77298  0.37772  0.28750  Biso   1.000  C
  H20      1.0000 0.76840  0.39610  0.30870  Biso   1.000  H
  C40      1.0000 0.74280  0.34369  0.26230  Biso   1.000  C
  C41      1.0000 0.74960  0.31647  0.23090  Biso   1.000  C
  H21      1.0000 0.72920  0.29350  0.21390  Biso   1.000  H
  C42      1.0000 0.78660  0.32330  0.22479  Biso   1.000  C
  H22      1.0000 0.79120  0.30490  0.20360  Biso   1.000  H
  C43      1.0000 0.70117  0.33820  0.24860  Biso   1.000  C
  C44      1.0000 0.67189  0.30164  0.22940  Biso   1.000  C
  Zn3      1.0000 0.62550  0.60282  0.33504  Biso   1.000  Zn
  O11      1.0000 0.66265  0.61587  0.41119  Biso   1.000  O
  O12      1.0000 0.68951  0.58520  0.35910  Biso   1.000  O
  C45      1.0000 0.68412  0.60203  0.41090  Biso   1.000  C
  C46      1.0000 0.70515  0.60683  0.48340  Biso   1.000  C
  C47      1.0000 0.70117  0.62594  0.54270  Biso   1.000  C
  H23      1.0000 0.68540  0.63670  0.53900  Biso   1.000  H
  C48      1.0000 0.72040  0.62902  0.60720  Biso   1.000  C
  H24      1.0000 0.71770  0.64230  0.64680  Biso   1.000  H
  C49      1.0000 0.74378  0.61280  0.61550  Biso   1.000  C
  C50      1.0000 0.74739  0.59270  0.55500  Biso   1.000  C
  H25      1.0000 0.76160  0.58030  0.55870  Biso   1.000  H
  C51      1.0000 0.72854  0.59190  0.48900  Biso   1.000  C
  H26      1.0000 0.73230  0.58060  0.44730  Biso   1.000  H
  C52      1.0000 0.76318  0.61496  0.68430  Biso   1.000  C
  C53      1.0000 0.79849  0.61719  0.68460  Biso   1.000  C
  H27      1.0000 0.81040  0.61850  0.63960  Biso   1.000  H
  C54      1.0000 0.87140  0.62010  0.69010  Biso   1.000  C
  H28      1.0000 0.86050  0.62090  0.64510  Biso   1.000  H
  C55      1.0000 0.90578  0.62050  0.68790  Biso   1.000  C
  H29      1.0000 0.91660  0.61980  0.64280  Biso   1.000  H
  O13      1.0000 0.97530  0.62309  0.68836  Biso   1.000  O
  O14      1.0000 0.57917  0.56934  0.38754  Biso   1.000  O
  O15      1.0000 0.55586  0.51307  0.33408  Biso   1.000  O
  C56      1.0000 0.55666  0.53410  0.38410  Biso   1.000  C
  C57      1.0000 0.52580  0.51660  0.44280  Biso   1.000  C
  C58      1.0000 0.52340  0.53900  0.49240  Biso   1.000  C
  C59      1.0000 0.50290  0.47840  0.44680  Biso   1.000  C
  C60      1.0000 0.61545  0.42543  0.28137  Biso   1.000  C
  H30      1.0000 0.59240  0.42280  0.29840  Biso   1.000  H
  C61      1.0000 0.62228  0.39526  0.28750  Biso   1.000  C
  H31      1.0000 0.60390  0.37230  0.30870  Biso   1.000  H
  C62      1.0000 0.65631  0.39911  0.26230  Biso   1.000  C
  C63      1.0000 0.68353  0.43313  0.23090  Biso   1.000  C
  H32      1.0000 0.70650  0.43570  0.21390  Biso   1.000  H
  C64      1.0000 0.67670  0.46330  0.22479  Biso   1.000  C
  H33      1.0000 0.69510  0.48630  0.20360  Biso   1.000  H
  C65      1.0000 0.66180  0.36297  0.24860  Biso   1.000  C
  C66      1.0000 0.69836  0.37025  0.22940  Biso   1.000  C
  Zn4      1.0000 0.60282  0.97732  0.83504  Biso   1.000  Zn
  O16      1.0000 0.61587  0.95322  0.91119  Biso   1.000  O
  O17      1.0000 0.58520  0.89569  0.85910  Biso   1.000  O
  C67      1.0000 0.60203  0.91791  0.91090  Biso   1.000  C
  C68      1.0000 0.60683  0.90168  0.98340  Biso   1.000  C
  C69      1.0000 0.62594  0.92477  0.04270  Biso   1.000  C
  H34      1.0000 0.63670  0.95130  0.03900  Biso   1.000  H
  C70      1.0000 0.62902  0.90862  0.10720  Biso   1.000  C
  H35      1.0000 0.64230  0.92460  0.14680  Biso   1.000  H
  C71      1.0000 0.61280  0.86902  0.11550  Biso   1.000  C
  C72      1.0000 0.59270  0.84531  0.05500  Biso   1.000  C
  H36      1.0000 0.58030  0.81870  0.05870  Biso   1.000  H
  C73      1.0000 0.59190  0.86336  0.98900  Biso   1.000  C
  H37      1.0000 0.58060  0.84830  0.94730  Biso   1.000  H
  C74      1.0000 0.61496  0.85178  0.18430  Biso   1.000  C
  C75      1.0000 0.61719  0.81870  0.18460  Biso   1.000  C
  H38      1.0000 0.61850  0.80810  0.13960  Biso   1.000  H
  C76      1.0000 0.62010  0.74870  0.19010  Biso   1.000  C
  H39      1.0000 0.62090  0.76040  0.14510  Biso   1.000  H
  C77      1.0000 0.62050  0.71472  0.18790  Biso   1.000  C
  H40      1.0000 0.61980  0.70320  0.14280  Biso   1.000  H
  O18      1.0000 0.62309  0.64779  0.18836  Biso   1.000  O
  O19      1.0000 0.56934  0.99017  0.88754  Biso   1.000  O
  O20      1.0000 0.51307  0.95721  0.83408  Biso   1.000  O
  C78      1.0000 0.53410  0.97744  0.88410  Biso   1.000  C
  C79      1.0000 0.51660  0.99080  0.94280  Biso   1.000  C
  C80      1.0000 0.53900  0.01560  0.99240  Biso   1.000  C
  C81      1.0000 0.47840  0.97550  0.94680  Biso   1.000  C
  C82      1.0000 0.42543  0.80998  0.78137  Biso   1.000  C
  H41      1.0000 0.42280  0.83040  0.79840  Biso   1.000  H
  C83      1.0000 0.39526  0.77298  0.78750  Biso   1.000  C
  H42      1.0000 0.37230  0.76840  0.80870  Biso   1.000  H
  C84      1.0000 0.39911  0.74280  0.76230  Biso   1.000  C
  C85      1.0000 0.43313  0.74960  0.73090  Biso   1.000  C
  H43      1.0000 0.43570  0.72920  0.71390  Biso   1.000  H
  C86      1.0000 0.46330  0.78660  0.72479  Biso   1.000  C
  H44      1.0000 0.48630  0.79120  0.70360  Biso   1.000  H
  C87      1.0000 0.36297  0.70117  0.74860  Biso   1.000  C
  C88      1.0000 0.37025  0.67189  0.72940  Biso   1.000  C
  Zn5      1.0000 0.02268  0.62550  0.83504  Biso   1.000  Zn
  O21      1.0000 0.04678  0.66265  0.91119  Biso   1.000  O
  O22      1.0000 0.10431  0.68951  0.85910  Biso   1.000  O
  C89      1.0000 0.08209  0.68412  0.91090  Biso   1.000  C
  C90      1.0000 0.09832  0.70515  0.98340  Biso   1.000  C
  C91      1.0000 0.07523  0.70117  0.04270  Biso   1.000  C
  H45      1.0000 0.04870  0.68540  0.03900  Biso   1.000  H
  C92      1.0000 0.09138  0.72040  0.10720  Biso   1.000  C
  H46      1.0000 0.07540  0.71770  0.14680  Biso   1.000  H
  C93      1.0000 0.13098  0.74378  0.11550  Biso   1.000  C
  C94      1.0000 0.15469  0.74739  0.05500  Biso   1.000  C
  H47      1.0000 0.18130  0.76160  0.05870  Biso   1.000  H
  C95      1.0000 0.13664  0.72854  0.98900  Biso   1.000  C
  H48      1.0000 0.15170  0.73230  0.94730  Biso   1.000  H
  C96      1.0000 0.14822  0.76318  0.18430  Biso   1.000  C
  C97      1.0000 0.18130  0.79849  0.18460  Biso   1.000  C
  H49      1.0000 0.19190  0.81040  0.13960  Biso   1.000  H
  C98      1.0000 0.25130  0.87140  0.19010  Biso   1.000  C
  H50      1.0000 0.23960  0.86050  0.14510  Biso   1.000  H
  C99      1.0000 0.28528  0.90578  0.18790  Biso   1.000  C
  H51      1.0000 0.29680  0.91660  0.14280  Biso   1.000  H
  O23      1.0000 0.35221  0.97530  0.18836  Biso   1.000  O
  O24      1.0000 0.00983  0.57917  0.88754  Biso   1.000  O
  O25      1.0000 0.04279  0.55586  0.83408  Biso   1.000  O
  C100     1.0000 0.02256  0.55666  0.88410  Biso   1.000  C
  C101     1.0000 0.00920  0.52580  0.94280  Biso   1.000  C
  C102     1.0000 0.98440  0.52340  0.99240  Biso   1.000  C
  C103     1.0000 0.02450  0.50290  0.94680  Biso   1.000  C
  C104     1.0000 0.19002  0.61545  0.78137  Biso   1.000  C
  H52      1.0000 0.16960  0.59240  0.79840  Biso   1.000  H
  C105     1.0000 0.22702  0.62228  0.78750  Biso   1.000  C
  H53      1.0000 0.23160  0.60390  0.80870  Biso   1.000  H
  C106     1.0000 0.25720  0.65631  0.76230  Biso   1.000  C
  C107     1.0000 0.25040  0.68353  0.73090  Biso   1.000  C
  H54      1.0000 0.27080  0.70650  0.71390  Biso   1.000  H
  C108     1.0000 0.21340  0.67670  0.72479  Biso   1.000  C
  H55      1.0000 0.20880  0.69510  0.70360  Biso   1.000  H
  C109     1.0000 0.29883  0.66180  0.74860  Biso   1.000  C
  C110     1.0000 0.32811  0.69836  0.72940  Biso   1.000  C
  Zn6      1.0000 0.37450  0.39718  0.83504  Biso   1.000  Zn
  O26      1.0000 0.33735  0.38413  0.91119  Biso   1.000  O
  O27      1.0000 0.31049  0.41480  0.85910  Biso   1.000  O
  C111     1.0000 0.31588  0.39797  0.91090  Biso   1.000  C
  C112     1.0000 0.29485  0.39317  0.98340  Biso   1.000  C
  C113     1.0000 0.29883  0.37406  0.04270  Biso   1.000  C
  H56      1.0000 0.31460  0.36330  0.03900  Biso   1.000  H
  C114     1.0000 0.27960  0.37098  0.10720  Biso   1.000  C
  H57      1.0000 0.28230  0.35770  0.14680  Biso   1.000  H
  C115     1.0000 0.25622  0.38720  0.11550  Biso   1.000  C
  C116     1.0000 0.25261  0.40730  0.05500  Biso   1.000  C
  H58      1.0000 0.23840  0.41970  0.05870  Biso   1.000  H
  C117     1.0000 0.27146  0.40810  0.98900  Biso   1.000  C
  H59      1.0000 0.26770  0.41940  0.94730  Biso   1.000  H
  C118     1.0000 0.23682  0.38504  0.18430  Biso   1.000  C
  C119     1.0000 0.20151  0.38281  0.18460  Biso   1.000  C
  H60      1.0000 0.18960  0.38150  0.13960  Biso   1.000  H
  C120     1.0000 0.12860  0.37990  0.19010  Biso   1.000  C
  H61      1.0000 0.13950  0.37910  0.14510  Biso   1.000  H
  C121     1.0000 0.09422  0.37950  0.18790  Biso   1.000  C
  H62      1.0000 0.08340  0.38020  0.14280  Biso   1.000  H
  O28      1.0000 0.02470  0.37691  0.18836  Biso   1.000  O
  O29      1.0000 0.42083  0.43066  0.88754  Biso   1.000  O
  O30      1.0000 0.44414  0.48693  0.83408  Biso   1.000  O
  C122     1.0000 0.44334  0.46590  0.88410  Biso   1.000  C
  C123     1.0000 0.47420  0.48340  0.94280  Biso   1.000  C
  C124     1.0000 0.47660  0.46100  0.99240  Biso   1.000  C
  C125     1.0000 0.49710  0.52160  0.94680  Biso   1.000  C
  C126     1.0000 0.38455  0.57457  0.78137  Biso   1.000  C
  H63      1.0000 0.40760  0.57720  0.79840  Biso   1.000  H
  C127     1.0000 0.37772  0.60474  0.78750  Biso   1.000  C
  H64      1.0000 0.39610  0.62770  0.80870  Biso   1.000  H
  C128     1.0000 0.34369  0.60089  0.76230  Biso   1.000  C
  C129     1.0000 0.31647  0.56687  0.73090  Biso   1.000  C
  H65      1.0000 0.29350  0.56430  0.71390  Biso   1.000  H
  C130     1.0000 0.32330  0.53670  0.72479  Biso   1.000  C
  H66      1.0000 0.30490  0.51370  0.70360  Biso   1.000  H
  C131     1.0000 0.33820  0.63703  0.74860  Biso   1.000  C
  C132     1.0000 0.30164  0.62975  0.72940  Biso   1.000  C
  Zn7      1.0000 0.60282  0.97732  0.66496  Biso   1.000  Zn
  O31      1.0000 0.61587  0.95322  0.58881  Biso   1.000  O
  O32      1.0000 0.58520  0.89569  0.64090  Biso   1.000  O
  C133     1.0000 0.60203  0.91791  0.58910  Biso   1.000  C
  C134     1.0000 0.60683  0.90168  0.51660  Biso   1.000  C
  C135     1.0000 0.62594  0.92477  0.45730  Biso   1.000  C
  H67      1.0000 0.63670  0.95130  0.46100  Biso   1.000  H
  C136     1.0000 0.62902  0.90862  0.39280  Biso   1.000  C
  H68      1.0000 0.64230  0.92460  0.35320  Biso   1.000  H
  C137     1.0000 0.61280  0.86902  0.38450  Biso   1.000  C
  C138     1.0000 0.59270  0.84531  0.44500  Biso   1.000  C
  H69      1.0000 0.58030  0.81870  0.44130  Biso   1.000  H
  C139     1.0000 0.59190  0.86336  0.51100  Biso   1.000  C
  H70      1.0000 0.58060  0.84830  0.55270  Biso   1.000  H
  C140     1.0000 0.61496  0.85178  0.31570  Biso   1.000  C
  C141     1.0000 0.61719  0.81870  0.31540  Biso   1.000  C
  H71      1.0000 0.61850  0.80810  0.36040  Biso   1.000  H
  C142     1.0000 0.62010  0.74870  0.30990  Biso   1.000  C
  H72      1.0000 0.62090  0.76040  0.35490  Biso   1.000  H
  C143     1.0000 0.62050  0.71472  0.31210  Biso   1.000  C
  H73      1.0000 0.61980  0.70320  0.35720  Biso   1.000  H
  O33      1.0000 0.62309  0.64779  0.31164  Biso   1.000  O
  O34      1.0000 0.56934  0.99017  0.61246  Biso   1.000  O
  O35      1.0000 0.51307  0.95721  0.66592  Biso   1.000  O
  C144     1.0000 0.53410  0.97744  0.61590  Biso   1.000  C
  C145     1.0000 0.51660  0.99080  0.55720  Biso   1.000  C
  C146     1.0000 0.53900  0.01560  0.50760  Biso   1.000  C
  C147     1.0000 0.47840  0.97550  0.55320  Biso   1.000  C
  C148     1.0000 0.42543  0.80998  0.71863  Biso   1.000  C
  H74      1.0000 0.42280  0.83040  0.70160  Biso   1.000  H
  C149     1.0000 0.39526  0.77298  0.71250  Biso   1.000  C
  H75      1.0000 0.37230  0.76840  0.69130  Biso   1.000  H
  C150     1.0000 0.39911  0.74280  0.73770  Biso   1.000  C
  C151     1.0000 0.43313  0.74960  0.76910  Biso   1.000  C
  H76      1.0000 0.43570  0.72920  0.78610  Biso   1.000  H
  C152     1.0000 0.46330  0.78660  0.77521  Biso   1.000  C
  H77      1.0000 0.48630  0.79120  0.79640  Biso   1.000  H
  C153     1.0000 0.36297  0.70117  0.75140  Biso   1.000  C
  C154     1.0000 0.37025  0.67189  0.77060  Biso   1.000  C
  Zn8      1.0000 0.02268  0.62550  0.66496  Biso   1.000  Zn
  O36      1.0000 0.04678  0.66265  0.58881  Biso   1.000  O
  O37      1.0000 0.10431  0.68951  0.64090  Biso   1.000  O
  C155     1.0000 0.08209  0.68412  0.58910  Biso   1.000  C
  C156     1.0000 0.09832  0.70515  0.51660  Biso   1.000  C
  C157     1.0000 0.07523  0.70117  0.45730  Biso   1.000  C
  H78      1.0000 0.04870  0.68540  0.46100  Biso   1.000  H
  C158     1.0000 0.09138  0.72040  0.39280  Biso   1.000  C
  H79      1.0000 0.07540  0.71770  0.35320  Biso   1.000  H
  C159     1.0000 0.13098  0.74378  0.38450  Biso   1.000  C
  C160     1.0000 0.15469  0.74739  0.44500  Biso   1.000  C
  H80      1.0000 0.18130  0.76160  0.44130  Biso   1.000  H
  C161     1.0000 0.13664  0.72854  0.51100  Biso   1.000  C
  H81      1.0000 0.15170  0.73230  0.55270  Biso   1.000  H
  C162     1.0000 0.14822  0.76318  0.31570  Biso   1.000  C
  C163     1.0000 0.18130  0.79849  0.31540  Biso   1.000  C
  H82      1.0000 0.19190  0.81040  0.36040  Biso   1.000  H
  C164     1.0000 0.25130  0.87140  0.30990  Biso   1.000  C
  H83      1.0000 0.23960  0.86050  0.35490  Biso   1.000  H
  C165     1.0000 0.28528  0.90578  0.31210  Biso   1.000  C
  H84      1.0000 0.29680  0.91660  0.35720  Biso   1.000  H
  O38      1.0000 0.35221  0.97530  0.31164  Biso   1.000  O
  O39      1.0000 0.00983  0.57917  0.61246  Biso   1.000  O
  O40      1.0000 0.04279  0.55586  0.66592  Biso   1.000  O
  C166     1.0000 0.02256  0.55666  0.61590  Biso   1.000  C
  C167     1.0000 0.00920  0.52580  0.55720  Biso   1.000  C
  C168     1.0000 0.98440  0.52340  0.50760  Biso   1.000  C
  C169     1.0000 0.02450  0.50290  0.55320  Biso   1.000  C
  C170     1.0000 0.19002  0.61545  0.71863  Biso   1.000  C
  H85      1.0000 0.16960  0.59240  0.70160  Biso   1.000  H
  C171     1.0000 0.22702  0.62228  0.71250  Biso   1.000  C
  H86      1.0000 0.23160  0.60390  0.69130  Biso   1.000  H
  C172     1.0000 0.25720  0.65631  0.73770  Biso   1.000  C
  C173     1.0000 0.25040  0.68353  0.76910  Biso   1.000  C
  H87      1.0000 0.27080  0.70650  0.78610  Biso   1.000  H
  C174     1.0000 0.21340  0.67670  0.77521  Biso   1.000  C
  H88      1.0000 0.20880  0.69510  0.79640  Biso   1.000  H
  C175     1.0000 0.29883  0.66180  0.75140  Biso   1.000  C
  C176     1.0000 0.32811  0.69836  0.77060  Biso   1.000  C
  Zn9      1.0000 0.37450  0.39718  0.66496  Biso   1.000  Zn
  O41      1.0000 0.33735  0.38413  0.58881  Biso   1.000  O
  O42      1.0000 0.31049  0.41480  0.64090  Biso   1.000  O
  C177     1.0000 0.31588  0.39797  0.58910  Biso   1.000  C
  C178     1.0000 0.29485  0.39317  0.51660  Biso   1.000  C
  C179     1.0000 0.29883  0.37406  0.45730  Biso   1.000  C
  H89      1.0000 0.31460  0.36330  0.46100  Biso   1.000  H
  C180     1.0000 0.27960  0.37098  0.39280  Biso   1.000  C
  H90      1.0000 0.28230  0.35770  0.35320  Biso   1.000  H
  C181     1.0000 0.25622  0.38720  0.38450  Biso   1.000  C
  C182     1.0000 0.25261  0.40730  0.44500  Biso   1.000  C
  H91      1.0000 0.23840  0.41970  0.44130  Biso   1.000  H
  C183     1.0000 0.27146  0.40810  0.51100  Biso   1.000  C
  H92      1.0000 0.26770  0.41940  0.55270  Biso   1.000  H
  C184     1.0000 0.23682  0.38504  0.31570  Biso   1.000  C
  C185     1.0000 0.20151  0.38281  0.31540  Biso   1.000  C
  H93      1.0000 0.18960  0.38150  0.36040  Biso   1.000  H
  C186     1.0000 0.12860  0.37990  0.30990  Biso   1.000  C
  H94      1.0000 0.13950  0.37910  0.35490  Biso   1.000  H
  C187     1.0000 0.09422  0.37950  0.31210  Biso   1.000  C
  H95      1.0000 0.08340  0.38020  0.35720  Biso   1.000  H
  O43      1.0000 0.02470  0.37691  0.31164  Biso   1.000  O
  O44      1.0000 0.42083  0.43066  0.61246  Biso   1.000  O
  O45      1.0000 0.44414  0.48693  0.66592  Biso   1.000  O
  C188     1.0000 0.44334  0.46590  0.61590  Biso   1.000  C
  C189     1.0000 0.47420  0.48340  0.55720  Biso   1.000  C
  C190     1.0000 0.47660  0.46100  0.50760  Biso   1.000  C
  C191     1.0000 0.49710  0.52160  0.55320  Biso   1.000  C
  C192     1.0000 0.38455  0.57457  0.71863  Biso   1.000  C
  H96      1.0000 0.40760  0.57720  0.70160  Biso   1.000  H
  C193     1.0000 0.37772  0.60474  0.71250  Biso   1.000  C
  H97      1.0000 0.39610  0.62770  0.69130  Biso   1.000  H
  C194     1.0000 0.34369  0.60089  0.73770  Biso   1.000  C
  C195     1.0000 0.31647  0.56687  0.76910  Biso   1.000  C
  H98      1.0000 0.29350  0.56430  0.78610  Biso   1.000  H
  C196     1.0000 0.32330  0.53670  0.77521  Biso   1.000  C
  H99      1.0000 0.30490  0.51370  0.79640  Biso   1.000  H
  C197     1.0000 0.33820  0.63703  0.75140  Biso   1.000  C
  C198     1.0000 0.30164  0.62975  0.77060  Biso   1.000  C
  Zn10     1.0000 0.39718  0.02268  0.16496  Biso   1.000  Zn
  O46      1.0000 0.38413  0.04678  0.08881  Biso   1.000  O
  O47      1.0000 0.41480  0.10431  0.14090  Biso   1.000  O
  C199     1.0000 0.39797  0.08209  0.08910  Biso   1.000  C
  C200     1.0000 0.39317  0.09832  0.01660  Biso   1.000  C
  C201     1.0000 0.37406  0.07523  0.95730  Biso   1.000  C
  H100     1.0000 0.36330  0.04870  0.96100  Biso   1.000  H
  C202     1.0000 0.37098  0.09138  0.89280  Biso   1.000  C
  H101     1.0000 0.35770  0.07540  0.85320  Biso   1.000  H
  C203     1.0000 0.38720  0.13098  0.88450  Biso   1.000  C
  C204     1.0000 0.40730  0.15469  0.94500  Biso   1.000  C
  H102     1.0000 0.41970  0.18130  0.94130  Biso   1.000  H
  C205     1.0000 0.40810  0.13664  0.01100  Biso   1.000  C
  H103     1.0000 0.41940  0.15170  0.05270  Biso   1.000  H
  C206     1.0000 0.38504  0.14822  0.81570  Biso   1.000  C
  C207     1.0000 0.38281  0.18130  0.81540  Biso   1.000  C
  H104     1.0000 0.38150  0.19190  0.86040  Biso   1.000  H
  C208     1.0000 0.37990  0.25130  0.80990  Biso   1.000  C
  H105     1.0000 0.37910  0.23960  0.85490  Biso   1.000  H
  C209     1.0000 0.37950  0.28528  0.81210  Biso   1.000  C
  H106     1.0000 0.38020  0.29680  0.85720  Biso   1.000  H
  O48      1.0000 0.37691  0.35221  0.81164  Biso   1.000  O
  O49      1.0000 0.43066  0.00983  0.11246  Biso   1.000  O
  O50      1.0000 0.48693  0.04279  0.16592  Biso   1.000  O
  C210     1.0000 0.46590  0.02256  0.11590  Biso   1.000  C
  C211     1.0000 0.48340  0.00920  0.05720  Biso   1.000  C
  C212     1.0000 0.46100  0.98440  0.00760  Biso   1.000  C
  C213     1.0000 0.52160  0.02450  0.05320  Biso   1.000  C
  C214     1.0000 0.57457  0.19002  0.21863  Biso   1.000  C
  H107     1.0000 0.57720  0.16960  0.20160  Biso   1.000  H
  C215     1.0000 0.60474  0.22702  0.21250  Biso   1.000  C
  H108     1.0000 0.62770  0.23160  0.19130  Biso   1.000  H
  C216     1.0000 0.60089  0.25720  0.23770  Biso   1.000  C
  C217     1.0000 0.56687  0.25040  0.26910  Biso   1.000  C
  H109     1.0000 0.56430  0.27080  0.28610  Biso   1.000  H
  C218     1.0000 0.53670  0.21340  0.27521  Biso   1.000  C
  H110     1.0000 0.51370  0.20880  0.29640  Biso   1.000  H
  C219     1.0000 0.63703  0.29883  0.25140  Biso   1.000  C
  C220     1.0000 0.62975  0.32811  0.27060  Biso   1.000  C
  Zn11     1.0000 0.97732  0.37450  0.16496  Biso   1.000  Zn
  O51      1.0000 0.95322  0.33735  0.08881  Biso   1.000  O
  O52      1.0000 0.89569  0.31049  0.14090  Biso   1.000  O
  C221     1.0000 0.91791  0.31588  0.08910  Biso   1.000  C
  C222     1.0000 0.90168  0.29485  0.01660  Biso   1.000  C
  C223     1.0000 0.92477  0.29883  0.95730  Biso   1.000  C
  H111     1.0000 0.95130  0.31460  0.96100  Biso   1.000  H
  C224     1.0000 0.90862  0.27960  0.89280  Biso   1.000  C
  H112     1.0000 0.92460  0.28230  0.85320  Biso   1.000  H
  C225     1.0000 0.86902  0.25622  0.88450  Biso   1.000  C
  C226     1.0000 0.84531  0.25261  0.94500  Biso   1.000  C
  H113     1.0000 0.81870  0.23840  0.94130  Biso   1.000  H
  C227     1.0000 0.86336  0.27146  0.01100  Biso   1.000  C
  H114     1.0000 0.84830  0.26770  0.05270  Biso   1.000  H
  C228     1.0000 0.85178  0.23682  0.81570  Biso   1.000  C
  C229     1.0000 0.81870  0.20151  0.81540  Biso   1.000  C
  H115     1.0000 0.80810  0.18960  0.86040  Biso   1.000  H
  C230     1.0000 0.74870  0.12860  0.80990  Biso   1.000  C
  H116     1.0000 0.76040  0.13950  0.85490  Biso   1.000  H
  C231     1.0000 0.71472  0.09422  0.81210  Biso   1.000  C
  H117     1.0000 0.70320  0.08340  0.85720  Biso   1.000  H
  O53      1.0000 0.64779  0.02470  0.81164  Biso   1.000  O
  O54      1.0000 0.99017  0.42083  0.11246  Biso   1.000  O
  O55      1.0000 0.95721  0.44414  0.16592  Biso   1.000  O
  C232     1.0000 0.97744  0.44334  0.11590  Biso   1.000  C
  C233     1.0000 0.99080  0.47420  0.05720  Biso   1.000  C
  C234     1.0000 0.01560  0.47660  0.00760  Biso   1.000  C
  C235     1.0000 0.97550  0.49710  0.05320  Biso   1.000  C
  C236     1.0000 0.80998  0.38455  0.21863  Biso   1.000  C
  H118     1.0000 0.83040  0.40760  0.20160  Biso   1.000  H
  C237     1.0000 0.77298  0.37772  0.21250  Biso   1.000  C
  H119     1.0000 0.76840  0.39610  0.19130  Biso   1.000  H
  C238     1.0000 0.74280  0.34369  0.23770  Biso   1.000  C
  C239     1.0000 0.74960  0.31647  0.26910  Biso   1.000  C
  H120     1.0000 0.72920  0.29350  0.28610  Biso   1.000  H
  C240     1.0000 0.78660  0.32330  0.27521  Biso   1.000  C
  H121     1.0000 0.79120  0.30490  0.29640  Biso   1.000  H
  C241     1.0000 0.70117  0.33820  0.25140  Biso   1.000  C
  C242     1.0000 0.67189  0.30164  0.27060  Biso   1.000  C
  Zn12     1.0000 0.62550  0.60282  0.16496  Biso   1.000  Zn
  O56      1.0000 0.66265  0.61587  0.08881  Biso   1.000  O
  O57      1.0000 0.68951  0.58520  0.14090  Biso   1.000  O
  C243     1.0000 0.68412  0.60203  0.08910  Biso   1.000  C
  C244     1.0000 0.70515  0.60683  0.01660  Biso   1.000  C
  C245     1.0000 0.70117  0.62594  0.95730  Biso   1.000  C
  H122     1.0000 0.68540  0.63670  0.96100  Biso   1.000  H
  C246     1.0000 0.72040  0.62902  0.89280  Biso   1.000  C
  H123     1.0000 0.71770  0.64230  0.85320  Biso   1.000  H
  C247     1.0000 0.74378  0.61280  0.88450  Biso   1.000  C
  C248     1.0000 0.74739  0.59270  0.94500  Biso   1.000  C
  H124     1.0000 0.76160  0.58030  0.94130  Biso   1.000  H
  C249     1.0000 0.72854  0.59190  0.01100  Biso   1.000  C
  H125     1.0000 0.73230  0.58060  0.05270  Biso   1.000  H
  C250     1.0000 0.76318  0.61496  0.81570  Biso   1.000  C
  C251     1.0000 0.79849  0.61719  0.81540  Biso   1.000  C
  H126     1.0000 0.81040  0.61850  0.86040  Biso   1.000  H
  C252     1.0000 0.87140  0.62010  0.80990  Biso   1.000  C
  H127     1.0000 0.86050  0.62090  0.85490  Biso   1.000  H
  C253     1.0000 0.90578  0.62050  0.81210  Biso   1.000  C
  H128     1.0000 0.91660  0.61980  0.85720  Biso   1.000  H
  O58      1.0000 0.97530  0.62309  0.81164  Biso   1.000  O
  O59      1.0000 0.57917  0.56934  0.11246  Biso   1.000  O
  O60      1.0000 0.55586  0.51307  0.16592  Biso   1.000  O
  C254     1.0000 0.55666  0.53410  0.11590  Biso   1.000  C
  C255     1.0000 0.52580  0.51660  0.05720  Biso   1.000  C
  C256     1.0000 0.52340  0.53900  0.00760  Biso   1.000  C
  C257     1.0000 0.50290  0.47840  0.05320  Biso   1.000  C
  C258     1.0000 0.61545  0.42543  0.21863  Biso   1.000  C
  H129     1.0000 0.59240  0.42280  0.20160  Biso   1.000  H
  C259     1.0000 0.62228  0.39526  0.21250  Biso   1.000  C
  H130     1.0000 0.60390  0.37230  0.19130  Biso   1.000  H
  C260     1.0000 0.65631  0.39911  0.23770  Biso   1.000  C
  C261     1.0000 0.68353  0.43313  0.26910  Biso   1.000  C
  H131     1.0000 0.70650  0.43570  0.28610  Biso   1.000  H
  C262     1.0000 0.67670  0.46330  0.27521  Biso   1.000  C
  H132     1.0000 0.69510  0.48630  0.29640  Biso   1.000  H
  C263     1.0000 0.66180  0.36297  0.25140  Biso   1.000  C
  C264     1.0000 0.69836  0.37025  0.27060  Biso   1.000  C
  Zn13     1.0000 0.47461  0.06364  0.25000  Biso   1.000  Zn
  Zn14     1.0000 0.41861  0.09928  0.25000  Biso   1.000  Zn
  O61      1.0000 0.42315  0.05261  0.25000  Biso   1.000  O
  O62      1.0000 0.51280  0.11677  0.25000  Biso   1.000  O
  O63      1.0000 0.47349  0.14009  0.25000  Biso   1.000  O
  C265     1.0000 0.50510  0.14281  0.25000  Biso   1.000  C
  C266     1.0000 0.54055  0.18322  0.25000  Biso   1.000  C
  Zn15     1.0000 0.93636  0.41097  0.25000  Biso   1.000  Zn
  Zn16     1.0000 0.90072  0.31933  0.25000  Biso   1.000  Zn
  O64      1.0000 0.94739  0.37054  0.25000  Biso   1.000  O
  O65      1.0000 0.88323  0.39603  0.25000  Biso   1.000  O
  O66      1.0000 0.85991  0.33340  0.25000  Biso   1.000  O
  C267     1.0000 0.85719  0.36229  0.25000  Biso   1.000  C
  C268     1.0000 0.81678  0.35733  0.25000  Biso   1.000  C
  Zn17     1.0000 0.58903  0.52539  0.25000  Biso   1.000  Zn
  Zn18     1.0000 0.68067  0.58139  0.25000  Biso   1.000  Zn
  O67      1.0000 0.62946  0.57685  0.25000  Biso   1.000  O
  O68      1.0000 0.60397  0.48720  0.25000  Biso   1.000  O
  O69      1.0000 0.66660  0.52651  0.25000  Biso   1.000  O
  C269     1.0000 0.63771  0.49490  0.25000  Biso   1.000  C
  C270     1.0000 0.64267  0.45945  0.25000  Biso   1.000  C
  Zn19     1.0000 0.52539  0.93636  0.75000  Biso   1.000  Zn
  Zn20     1.0000 0.58139  0.90072  0.75000  Biso   1.000  Zn
  O70      1.0000 0.57685  0.94739  0.75000  Biso   1.000  O
  O71      1.0000 0.48720  0.88323  0.75000  Biso   1.000  O
  O72      1.0000 0.52651  0.85991  0.75000  Biso   1.000  O
  C271     1.0000 0.49490  0.85719  0.75000  Biso   1.000  C
  C272     1.0000 0.45945  0.81678  0.75000  Biso   1.000  C
  Zn21     1.0000 0.06364  0.58903  0.75000  Biso   1.000  Zn
  Zn22     1.0000 0.09928  0.68067  0.75000  Biso   1.000  Zn
  O73      1.0000 0.05261  0.62946  0.75000  Biso   1.000  O
  O74      1.0000 0.11677  0.60397  0.75000  Biso   1.000  O
  O75      1.0000 0.14009  0.66660  0.75000  Biso   1.000  O
  C273     1.0000 0.14281  0.63771  0.75000  Biso   1.000  C
  C274     1.0000 0.18322  0.64267  0.75000  Biso   1.000  C
  Zn23     1.0000 0.41097  0.47461  0.75000  Biso   1.000  Zn
  Zn24     1.0000 0.31933  0.41861  0.75000  Biso   1.000  Zn
  O76      1.0000 0.37054  0.42315  0.75000  Biso   1.000  O
  O77      1.0000 0.39603  0.51280  0.75000  Biso   1.000  O
  O78      1.0000 0.33340  0.47349  0.75000  Biso   1.000  O
  C275     1.0000 0.36229  0.50510  0.75000  Biso   1.000  C
  C276     1.0000 0.35733  0.54055  0.75000  Biso   1.000  C
  C277     1.0000 0.38580  0.13120  0.75000  Biso   1.000  C
  H133     1.0000 0.38690  0.10860  0.75000  Biso   1.000  H
  C278     1.0000 0.38250  0.19930  0.75000  Biso   1.000  C
  C279     1.0000 0.38150  0.23460  0.75000  Biso   1.000  C
  C280     1.0000 0.37800  0.30100  0.75000  Biso   1.000  C
  C281     1.0000 0.37800  0.33770  0.75000  Biso   1.000  C
  C282     1.0000 0.86880  0.25460  0.75000  Biso   1.000  C
  H134     1.0000 0.89140  0.27830  0.75000  Biso   1.000  H
  C283     1.0000 0.80070  0.18320  0.75000  Biso   1.000  C
  C284     1.0000 0.76540  0.14690  0.75000  Biso   1.000  C
  C285     1.0000 0.69900  0.07700  0.75000  Biso   1.000  C
  C286     1.0000 0.66230  0.04030  0.75000  Biso   1.000  C
  C287     1.0000 0.74540  0.61420  0.75000  Biso   1.000  C
  H135     1.0000 0.72170  0.61310  0.75000  Biso   1.000  H
  C288     1.0000 0.81680  0.61750  0.75000  Biso   1.000  C
  C289     1.0000 0.85310  0.61850  0.75000  Biso   1.000  C
  C290     1.0000 0.92300  0.62200  0.75000  Biso   1.000  C
  C291     1.0000 0.95970  0.62200  0.75000  Biso   1.000  C
  C292     1.0000 0.61420  0.86880  0.25000  Biso   1.000  C
  H136     1.0000 0.61310  0.89140  0.25000  Biso   1.000  H
  C293     1.0000 0.61750  0.80070  0.25000  Biso   1.000  C
  C294     1.0000 0.61850  0.76540  0.25000  Biso   1.000  C
  C295     1.0000 0.62200  0.69900  0.25000  Biso   1.000  C
  C296     1.0000 0.62200  0.66230  0.25000  Biso   1.000  C
  C297     1.0000 0.13120  0.74540  0.25000  Biso   1.000  C
  H137     1.0000 0.10860  0.72170  0.25000  Biso   1.000  H
  C298     1.0000 0.19930  0.81680  0.25000  Biso   1.000  C
  C299     1.0000 0.23460  0.85310  0.25000  Biso   1.000  C
  C300     1.0000 0.30100  0.92300  0.25000  Biso   1.000  C
  C301     1.0000 0.33770  0.95970  0.25000  Biso   1.000  C
  C302     1.0000 0.25460  0.38580  0.25000  Biso   1.000  C
  H138     1.0000 0.27830  0.38690  0.25000  Biso   1.000  H
  C303     1.0000 0.18320  0.38250  0.25000  Biso   1.000  C
  C304     1.0000 0.14690  0.38150  0.25000  Biso   1.000  C
  C305     1.0000 0.07700  0.37800  0.25000  Biso   1.000  C
  C306     1.0000 0.04030  0.37800  0.25000  Biso   1.000  C
