data_image0
_cell_length_a       24.6059
_cell_length_b       24.6059
_cell_length_c       24.6059
_cell_angle_alpha    90
_cell_angle_beta     90
_cell_angle_gamma    90

_symmetry_space_group_name_H-M    "P 1"
_symmetry_int_tables_number       1

loop_
  _symmetry_equiv_pos_as_xyz
  'x, y, z'

loop_
  _atom_site_label
  _atom_site_occupancy
  _atom_site_fract_x
  _atom_site_fract_y
  _atom_site_fract_z
  _atom_site_thermal_displace_type
  _atom_site_B_iso_or_equiv
  _atom_site_type_symbol
  Ag1      1.0000 0.57277  0.42723  0.57277  Biso   1.000  Ag
  Ag2      1.0000 0.70141  0.29859  0.70141  Biso   1.000  Ag
  C1       1.0000 0.62468  0.37532  0.62468  Biso   1.000  C
  C2       1.0000 0.64974  0.35026  0.64974  Biso   1.000  C
  Ag3      1.0000 0.57277  0.92723  0.07277  Biso   1.000  Ag
  Ag4      1.0000 0.70141  0.79859  0.20141  Biso   1.000  Ag
  C3       1.0000 0.62468  0.87532  0.12468  Biso   1.000  C
  C4       1.0000 0.64974  0.85026  0.14974  Biso   1.000  C
  Ag5      1.0000 0.07277  0.42723  0.07277  Biso   1.000  Ag
  Ag6      1.0000 0.20141  0.29859  0.20141  Biso   1.000  Ag
  C5       1.0000 0.12468  0.37532  0.12468  Biso   1.000  C
  C6       1.0000 0.14974  0.35026  0.14974  Biso   1.000  C
  Ag7      1.0000 0.07277  0.92723  0.57277  Biso   1.000  Ag
  Ag8      1.0000 0.20141  0.79859  0.70141  Biso   1.000  Ag
  C7       1.0000 0.12468  0.87532  0.62468  Biso   1.000  C
  C8       1.0000 0.14974  0.85026  0.64974  Biso   1.000  C
  Ag9      1.0000 0.42723  0.57277  0.57277  Biso   1.000  Ag
  Ag10     1.0000 0.29859  0.70141  0.70141  Biso   1.000  Ag
  C9       1.0000 0.37532  0.62468  0.62468  Biso   1.000  C
  C10      1.0000 0.35026  0.64974  0.64974  Biso   1.000  C
  Ag11     1.0000 0.42723  0.07277  0.07277  Biso   1.000  Ag
  Ag12     1.0000 0.29859  0.20141  0.20141  Biso   1.000  Ag
  C11      1.0000 0.37532  0.12468  0.12468  Biso   1.000  C
  C12      1.0000 0.35026  0.14974  0.14974  Biso   1.000  C
  Ag13     1.0000 0.92723  0.57277  0.07277  Biso   1.000  Ag
  Ag14     1.0000 0.79859  0.70141  0.20141  Biso   1.000  Ag
  C13      1.0000 0.87532  0.62468  0.12468  Biso   1.000  C
  C14      1.0000 0.85026  0.64974  0.14974  Biso   1.000  C
  Ag15     1.0000 0.92723  0.07277  0.57277  Biso   1.000  Ag
  Ag16     1.0000 0.79859  0.20141  0.70141  Biso   1.000  Ag
  C15      1.0000 0.87532  0.12468  0.62468  Biso   1.000  C
  C16      1.0000 0.85026  0.14974  0.64974  Biso   1.000  C
  Ag17     1.0000 0.42723  0.42723  0.42723  Biso   1.000  Ag
  Ag18     1.0000 0.29859  0.29859  0.29859  Biso   1.000  Ag
  C17      1.0000 0.37532  0.37532  0.37532  Biso   1.000  C
  C18      1.0000 0.35026  0.35026  0.35026  Biso   1.000  C
  Ag19     1.0000 0.42723  0.92723  0.92723  Biso   1.000  Ag
  Ag20     1.0000 0.29859  0.79859  0.79859  Biso   1.000  Ag
  C19      1.0000 0.37532  0.87532  0.87532  Biso   1.000  C
  C20      1.0000 0.35026  0.85026  0.85026  Biso   1.000  C
  Ag21     1.0000 0.92723  0.42723  0.92723  Biso   1.000  Ag
  Ag22     1.0000 0.79859  0.29859  0.79859  Biso   1.000  Ag
  C21      1.0000 0.87532  0.37532  0.87532  Biso   1.000  C
  C22      1.0000 0.85026  0.35026  0.85026  Biso   1.000  C
  Ag23     1.0000 0.92723  0.92723  0.42723  Biso   1.000  Ag
  Ag24     1.0000 0.79859  0.79859  0.29859  Biso   1.000  Ag
  C23      1.0000 0.87532  0.87532  0.37532  Biso   1.000  C
  C24      1.0000 0.85026  0.85026  0.35026  Biso   1.000  C
  Ag25     1.0000 0.57277  0.57277  0.42723  Biso   1.000  Ag
  Ag26     1.0000 0.70141  0.70141  0.29859  Biso   1.000  Ag
  C25      1.0000 0.62468  0.62468  0.37532  Biso   1.000  C
  C26      1.0000 0.64974  0.64974  0.35026  Biso   1.000  C
  Ag27     1.0000 0.57277  0.07277  0.92723  Biso   1.000  Ag
  Ag28     1.0000 0.70141  0.20141  0.79859  Biso   1.000  Ag
  C27      1.0000 0.62468  0.12468  0.87532  Biso   1.000  C
  C28      1.0000 0.64974  0.14974  0.85026  Biso   1.000  C
  Ag29     1.0000 0.07277  0.57277  0.92723  Biso   1.000  Ag
  Ag30     1.0000 0.20141  0.70141  0.79859  Biso   1.000  Ag
  C29      1.0000 0.12468  0.62468  0.87532  Biso   1.000  C
  C30      1.0000 0.14974  0.64974  0.85026  Biso   1.000  C
  Ag31     1.0000 0.07277  0.07277  0.42723  Biso   1.000  Ag
  Ag32     1.0000 0.20141  0.20141  0.29859  Biso   1.000  Ag
  C31      1.0000 0.12468  0.12468  0.37532  Biso   1.000  C
  C32      1.0000 0.14974  0.14974  0.35026  Biso   1.000  C
  Ag33     1.0000 0.42723  0.57277  0.42723  Biso   1.000  Ag
  Ag34     1.0000 0.29859  0.70141  0.29859  Biso   1.000  Ag
  C33      1.0000 0.37532  0.62468  0.37532  Biso   1.000  C
  C34      1.0000 0.35026  0.64974  0.35026  Biso   1.000  C
  Ag35     1.0000 0.42723  0.07277  0.92723  Biso   1.000  Ag
  Ag36     1.0000 0.29859  0.20141  0.79859  Biso   1.000  Ag
  C35      1.0000 0.37532  0.12468  0.87532  Biso   1.000  C
  C36      1.0000 0.35026  0.14974  0.85026  Biso   1.000  C
  Ag37     1.0000 0.92723  0.57277  0.92723  Biso   1.000  Ag
  Ag38     1.0000 0.79859  0.70141  0.79859  Biso   1.000  Ag
  C37      1.0000 0.87532  0.62468  0.87532  Biso   1.000  C
  C38      1.0000 0.85026  0.64974  0.85026  Biso   1.000  C
  Ag39     1.0000 0.92723  0.07277  0.42723  Biso   1.000  Ag
  Ag40     1.0000 0.79859  0.20141  0.29859  Biso   1.000  Ag
  C39      1.0000 0.87532  0.12468  0.37532  Biso   1.000  C
  C40      1.0000 0.85026  0.14974  0.35026  Biso   1.000  C
  Ag41     1.0000 0.57277  0.42723  0.42723  Biso   1.000  Ag
  Ag42     1.0000 0.70141  0.29859  0.29859  Biso   1.000  Ag
  C41      1.0000 0.62468  0.37532  0.37532  Biso   1.000  C
  C42      1.0000 0.64974  0.35026  0.35026  Biso   1.000  C
  Ag43     1.0000 0.57277  0.92723  0.92723  Biso   1.000  Ag
  Ag44     1.0000 0.70141  0.79859  0.79859  Biso   1.000  Ag
  C43      1.0000 0.62468  0.87532  0.87532  Biso   1.000  C
  C44      1.0000 0.64974  0.85026  0.85026  Biso   1.000  C
  Ag45     1.0000 0.07277  0.42723  0.92723  Biso   1.000  Ag
  Ag46     1.0000 0.20141  0.29859  0.79859  Biso   1.000  Ag
  C45      1.0000 0.12468  0.37532  0.87532  Biso   1.000  C
  C46      1.0000 0.14974  0.35026  0.85026  Biso   1.000  C
  Ag47     1.0000 0.07277  0.92723  0.42723  Biso   1.000  Ag
  Ag48     1.0000 0.20141  0.79859  0.29859  Biso   1.000  Ag
  C47      1.0000 0.12468  0.87532  0.37532  Biso   1.000  C
  C48      1.0000 0.14974  0.85026  0.35026  Biso   1.000  C
  Ag49     1.0000 0.42723  0.42723  0.57277  Biso   1.000  Ag
  Ag50     1.0000 0.29859  0.29859  0.70141  Biso   1.000  Ag
  C49      1.0000 0.37532  0.37532  0.62468  Biso   1.000  C
  C50      1.0000 0.35026  0.35026  0.64974  Biso   1.000  C
  Ag51     1.0000 0.42723  0.92723  0.07277  Biso   1.000  Ag
  Ag52     1.0000 0.29859  0.79859  0.20141  Biso   1.000  Ag
  C51      1.0000 0.37532  0.87532  0.12468  Biso   1.000  C
  C52      1.0000 0.35026  0.85026  0.14974  Biso   1.000  C
  Ag53     1.0000 0.92723  0.42723  0.07277  Biso   1.000  Ag
  Ag54     1.0000 0.79859  0.29859  0.20141  Biso   1.000  Ag
  C53      1.0000 0.87532  0.37532  0.12468  Biso   1.000  C
  C54      1.0000 0.85026  0.35026  0.14974  Biso   1.000  C
  Ag55     1.0000 0.92723  0.92723  0.57277  Biso   1.000  Ag
  Ag56     1.0000 0.79859  0.79859  0.70141  Biso   1.000  Ag
  C55      1.0000 0.87532  0.87532  0.62468  Biso   1.000  C
  C56      1.0000 0.85026  0.85026  0.64974  Biso   1.000  C
  Ag57     1.0000 0.57277  0.57277  0.57277  Biso   1.000  Ag
  Ag58     1.0000 0.70141  0.70141  0.70141  Biso   1.000  Ag
  C57      1.0000 0.62468  0.62468  0.62468  Biso   1.000  C
  C58      1.0000 0.64974  0.64974  0.64974  Biso   1.000  C
  Ag59     1.0000 0.57277  0.07277  0.07277  Biso   1.000  Ag
  Ag60     1.0000 0.70141  0.20141  0.20141  Biso   1.000  Ag
  C59      1.0000 0.62468  0.12468  0.12468  Biso   1.000  C
  C60      1.0000 0.64974  0.14974  0.14974  Biso   1.000  C
  Ag61     1.0000 0.07277  0.57277  0.07277  Biso   1.000  Ag
  Ag62     1.0000 0.20141  0.70141  0.20141  Biso   1.000  Ag
  C61      1.0000 0.12468  0.62468  0.12468  Biso   1.000  C
  C62      1.0000 0.14974  0.64974  0.14974  Biso   1.000  C
  Ag63     1.0000 0.07277  0.07277  0.57277  Biso   1.000  Ag
  Ag64     1.0000 0.20141  0.20141  0.70141  Biso   1.000  Ag
  C63      1.0000 0.12468  0.12468  0.62468  Biso   1.000  C
  C64      1.0000 0.14974  0.14974  0.64974  Biso   1.000  C
  I1       1.0000 0.50000  0.50000  0.63138  Biso   1.000  I
  I2       1.0000 0.50000  0.00000  0.13138  Biso   1.000  I
  I3       1.0000 0.00000  0.50000  0.13138  Biso   1.000  I
  I4       1.0000 0.00000  0.00000  0.63138  Biso   1.000  I
  I5       1.0000 0.50000  0.50000  0.36862  Biso   1.000  I
  I6       1.0000 0.50000  0.00000  0.86862  Biso   1.000  I
  I7       1.0000 0.00000  0.50000  0.86862  Biso   1.000  I
  I8       1.0000 0.00000  0.00000  0.36862  Biso   1.000  I
  I9       1.0000 0.63138  0.50000  0.50000  Biso   1.000  I
  I10      1.0000 0.63138  0.00000  0.00000  Biso   1.000  I
  I11      1.0000 0.13138  0.50000  0.00000  Biso   1.000  I
  I12      1.0000 0.13138  0.00000  0.50000  Biso   1.000  I
  I13      1.0000 0.36862  0.50000  0.50000  Biso   1.000  I
  I14      1.0000 0.36862  0.00000  0.00000  Biso   1.000  I
  I15      1.0000 0.86862  0.50000  0.00000  Biso   1.000  I
  I16      1.0000 0.86862  0.00000  0.50000  Biso   1.000  I
  I17      1.0000 0.50000  0.63138  0.50000  Biso   1.000  I
  I18      1.0000 0.50000  0.13138  0.00000  Biso   1.000  I
  I19      1.0000 0.00000  0.63138  0.00000  Biso   1.000  I
  I20      1.0000 0.00000  0.13138  0.50000  Biso   1.000  I
  I21      1.0000 0.50000  0.36862  0.50000  Biso   1.000  I
  I22      1.0000 0.50000  0.86862  0.00000  Biso   1.000  I
  I23      1.0000 0.00000  0.36862  0.00000  Biso   1.000  I
  I24      1.0000 0.00000  0.86862  0.50000  Biso   1.000  I
  I25      1.0000 0.68360  0.31640  0.81640  Biso   1.000  I
  I26      1.0000 0.31640  0.68360  0.81640  Biso   1.000  I
  I27      1.0000 0.31640  0.31640  0.18360  Biso   1.000  I
  I28      1.0000 0.68360  0.68360  0.18360  Biso   1.000  I
  I29      1.0000 0.81640  0.68360  0.31640  Biso   1.000  I
  I30      1.0000 0.81640  0.18360  0.81640  Biso   1.000  I
  I31      1.0000 0.81640  0.31640  0.68360  Biso   1.000  I
  I32      1.0000 0.81640  0.81640  0.18360  Biso   1.000  I
  I33      1.0000 0.18360  0.31640  0.31640  Biso   1.000  I
  I34      1.0000 0.18360  0.81640  0.81640  Biso   1.000  I
  I35      1.0000 0.18360  0.68360  0.68360  Biso   1.000  I
  I36      1.0000 0.18360  0.18360  0.18360  Biso   1.000  I
  I37      1.0000 0.31640  0.81640  0.68360  Biso   1.000  I
  I38      1.0000 0.68360  0.81640  0.31640  Biso   1.000  I
  I39      1.0000 0.31640  0.18360  0.31640  Biso   1.000  I
  I40      1.0000 0.68360  0.18360  0.68360  Biso   1.000  I
  I41      1.0000 0.31640  0.68360  0.18360  Biso   1.000  I
  I42      1.0000 0.68360  0.31640  0.18360  Biso   1.000  I
  I43      1.0000 0.31640  0.31640  0.81640  Biso   1.000  I
  I44      1.0000 0.68360  0.68360  0.81640  Biso   1.000  I
  I45      1.0000 0.68360  0.81640  0.68360  Biso   1.000  I
  I46      1.0000 0.31640  0.81640  0.31640  Biso   1.000  I
  I47      1.0000 0.31640  0.18360  0.68360  Biso   1.000  I
  I48      1.0000 0.68360  0.18360  0.31640  Biso   1.000  I
  I49      1.0000 0.81640  0.31640  0.31640  Biso   1.000  I
  I50      1.0000 0.81640  0.81640  0.81640  Biso   1.000  I
  I51      1.0000 0.81640  0.68360  0.68360  Biso   1.000  I
  I52      1.0000 0.81640  0.18360  0.18360  Biso   1.000  I
  I53      1.0000 0.18360  0.31640  0.68360  Biso   1.000  I
  I54      1.0000 0.18360  0.81640  0.18360  Biso   1.000  I
  I55      1.0000 0.18360  0.68360  0.31640  Biso   1.000  I
  I56      1.0000 0.18360  0.18360  0.81640  Biso   1.000  I
