data_image0
_cell_length_a       41.09
_cell_length_b       41.09
_cell_length_c       17.747
_cell_angle_alpha    90
_cell_angle_beta     90
_cell_angle_gamma    120

_symmetry_space_group_name_H-M    "P 1"
_symmetry_int_tables_number       1

loop_
  _symmetry_equiv_pos_as_xyz
  'x, y, z'

loop_
  _atom_site_label
  _atom_site_occupancy
  _atom_site_fract_x
  _atom_site_fract_y
  _atom_site_fract_z
  _atom_site_thermal_displace_type
  _atom_site_B_iso_or_equiv
  _atom_site_type_symbol
  Zn1      1.0000 0.39958  0.37280  0.16187  Biso   1.000  Zn
  O1       1.0000 0.38500  0.33390  0.09340  Biso   1.000  O
  O2       1.0000 0.40980  0.30050  0.15440  Biso   1.000  O
  C1       1.0000 0.39630  0.30860  0.09750  Biso   1.000  C
  C2       1.0000 0.39030  0.28540  0.02120  Biso   1.000  C
  C3       1.0000 0.36890  0.29090  0.96490  Biso   1.000  C
  C4       1.0000 0.36530  0.27050  0.89480  Biso   1.000  C
  H1       1.0000 0.35350  0.27370  0.85230  Biso   1.000  H
  C5       1.0000 0.37990  0.24610  0.89240  Biso   1.000  C
  C6       1.0000 0.40420  0.24550  0.95240  Biso   1.000  C
  H2       1.0000 0.41960  0.23500  0.94310  Biso   1.000  H
  C7       1.0000 0.40450  0.26090  0.02600  Biso   1.000  C
  H3       1.0000 0.41300  0.25520  0.07060  Biso   1.000  H
  C8       1.0000 0.37690  0.22620  0.81310  Biso   1.000  C
  C9       1.0000 0.37770  0.19250  0.81800  Biso   1.000  C
  H4       1.0000 0.37900  0.18240  0.86460  Biso   1.000  H
  C10      1.0000 0.37080  0.11950  0.80960  Biso   1.000  C
  H5       1.0000 0.36060  0.12550  0.85100  Biso   1.000  H
  C11      1.0000 0.37910  0.08840  0.81720  Biso   1.000  C
  H6       1.0000 0.38780  0.08200  0.86050  Biso   1.000  H
  O3       1.0000 0.37190  0.01720  0.81270  Biso   1.000  O
  O4       1.0000 0.43340  0.41500  0.10230  Biso   1.000  O
  O5       1.0000 0.48880  0.44430  0.16440  Biso   1.000  O
  C12      1.0000 0.46700  0.43850  0.11230  Biso   1.000  C
  C13      1.0000 0.48180  0.46470  0.03950  Biso   1.000  C
  C14      1.0000 0.51940  0.49180  0.04820  Biso   1.000  C
  C15      1.0000 0.46200  0.48220  0.00860  Biso   1.000  C
  C16      1.0000 0.48100  0.48320  0.07420  Biso   1.000  C
  C17      1.0000 0.51860  0.51030  0.08300  Biso   1.000  C
  C18      1.0000 0.46280  0.46370  0.97390  Biso   1.000  C
  Zn2      1.0000 0.62720  0.02678  0.16187  Biso   1.000  Zn
  O6       1.0000 0.66610  0.05110  0.09340  Biso   1.000  O
  O7       1.0000 0.69950  0.10930  0.15440  Biso   1.000  O
  C19      1.0000 0.69140  0.08770  0.09750  Biso   1.000  C
  C20      1.0000 0.71460  0.10490  0.02120  Biso   1.000  C
  C21      1.0000 0.70910  0.07800  0.96490  Biso   1.000  C
  C22      1.0000 0.72950  0.09480  0.89480  Biso   1.000  C
  H7       1.0000 0.72630  0.07980  0.85230  Biso   1.000  H
  C23      1.0000 0.75390  0.13380  0.89240  Biso   1.000  C
  C24      1.0000 0.75450  0.15870  0.95240  Biso   1.000  C
  H8       1.0000 0.76500  0.18460  0.94310  Biso   1.000  H
  C25      1.0000 0.73910  0.14360  0.02600  Biso   1.000  C
  H9       1.0000 0.74480  0.15780  0.07060  Biso   1.000  H
  C26      1.0000 0.77380  0.15070  0.81310  Biso   1.000  C
  C27      1.0000 0.80750  0.18520  0.81800  Biso   1.000  C
  H10      1.0000 0.81760  0.19660  0.86460  Biso   1.000  H
  C28      1.0000 0.88050  0.25130  0.80960  Biso   1.000  C
  H11      1.0000 0.87450  0.23510  0.85100  Biso   1.000  H
  C29      1.0000 0.91160  0.29070  0.81720  Biso   1.000  C
  H12      1.0000 0.91800  0.30580  0.86050  Biso   1.000  H
  O8       1.0000 0.98280  0.35470  0.81270  Biso   1.000  O
  O9       1.0000 0.58500  0.01840  0.10230  Biso   1.000  O
  O10      1.0000 0.55570  0.04450  0.16440  Biso   1.000  O
  C30      1.0000 0.56150  0.02850  0.11230  Biso   1.000  C
  C31      1.0000 0.53530  0.01710  0.03950  Biso   1.000  C
  C32      1.0000 0.50820  0.02760  0.04820  Biso   1.000  C
  C33      1.0000 0.51780  0.97980  0.00860  Biso   1.000  C
  C34      1.0000 0.51680  0.99780  0.07420  Biso   1.000  C
  C35      1.0000 0.48970  0.00830  0.08300  Biso   1.000  C
  C36      1.0000 0.53630  0.99910  0.97390  Biso   1.000  C
  Zn3      1.0000 0.97322  0.60042  0.16187  Biso   1.000  Zn
  O11      1.0000 0.94890  0.61500  0.09340  Biso   1.000  O
  O12      1.0000 0.89070  0.59020  0.15440  Biso   1.000  O
  C37      1.0000 0.91230  0.60370  0.09750  Biso   1.000  C
  C38      1.0000 0.89510  0.60970  0.02120  Biso   1.000  C
  C39      1.0000 0.92200  0.63110  0.96490  Biso   1.000  C
  C40      1.0000 0.90520  0.63470  0.89480  Biso   1.000  C
  H13      1.0000 0.92020  0.64650  0.85230  Biso   1.000  H
  C41      1.0000 0.86620  0.62010  0.89240  Biso   1.000  C
  C42      1.0000 0.84130  0.59580  0.95240  Biso   1.000  C
  H14      1.0000 0.81540  0.58040  0.94310  Biso   1.000  H
  C43      1.0000 0.85640  0.59550  0.02600  Biso   1.000  C
  H15      1.0000 0.84220  0.58700  0.07060  Biso   1.000  H
  C44      1.0000 0.84930  0.62310  0.81310  Biso   1.000  C
  C45      1.0000 0.81480  0.62230  0.81800  Biso   1.000  C
  H16      1.0000 0.80340  0.62100  0.86460  Biso   1.000  H
  C46      1.0000 0.74870  0.62920  0.80960  Biso   1.000  C
  H17      1.0000 0.76490  0.63940  0.85100  Biso   1.000  H
  C47      1.0000 0.70930  0.62090  0.81720  Biso   1.000  C
  H18      1.0000 0.69420  0.61220  0.86050  Biso   1.000  H
  O13      1.0000 0.64530  0.62810  0.81270  Biso   1.000  O
  O14      1.0000 0.98160  0.56660  0.10230  Biso   1.000  O
  O15      1.0000 0.95550  0.51120  0.16440  Biso   1.000  O
  C48      1.0000 0.97150  0.53300  0.11230  Biso   1.000  C
  C49      1.0000 0.98290  0.51820  0.03950  Biso   1.000  C
  C50      1.0000 0.97240  0.48060  0.04820  Biso   1.000  C
  C51      1.0000 0.02020  0.53800  0.00860  Biso   1.000  C
  C52      1.0000 0.00220  0.51900  0.07420  Biso   1.000  C
  C53      1.0000 0.99170  0.48140  0.08300  Biso   1.000  C
  C54      1.0000 0.00090  0.53720  0.97390  Biso   1.000  C
  Zn4      1.0000 0.60042  0.62720  0.66187  Biso   1.000  Zn
  O16      1.0000 0.61500  0.66610  0.59340  Biso   1.000  O
  O17      1.0000 0.59020  0.69950  0.65440  Biso   1.000  O
  C55      1.0000 0.60370  0.69140  0.59750  Biso   1.000  C
  C56      1.0000 0.60970  0.71460  0.52120  Biso   1.000  C
  C57      1.0000 0.63110  0.70910  0.46490  Biso   1.000  C
  C58      1.0000 0.63470  0.72950  0.39480  Biso   1.000  C
  H19      1.0000 0.64650  0.72630  0.35230  Biso   1.000  H
  C59      1.0000 0.62010  0.75390  0.39240  Biso   1.000  C
  C60      1.0000 0.59580  0.75450  0.45240  Biso   1.000  C
  H20      1.0000 0.58040  0.76500  0.44310  Biso   1.000  H
  C61      1.0000 0.59550  0.73910  0.52600  Biso   1.000  C
  H21      1.0000 0.58700  0.74480  0.57060  Biso   1.000  H
  C62      1.0000 0.62310  0.77380  0.31310  Biso   1.000  C
  C63      1.0000 0.62230  0.80750  0.31800  Biso   1.000  C
  H22      1.0000 0.62100  0.81760  0.36460  Biso   1.000  H
  C64      1.0000 0.62920  0.88050  0.30960  Biso   1.000  C
  H23      1.0000 0.63940  0.87450  0.35100  Biso   1.000  H
  C65      1.0000 0.62090  0.91160  0.31720  Biso   1.000  C
  H24      1.0000 0.61220  0.91800  0.36050  Biso   1.000  H
  O18      1.0000 0.62810  0.98280  0.31270  Biso   1.000  O
  O19      1.0000 0.56660  0.58500  0.60230  Biso   1.000  O
  O20      1.0000 0.51120  0.55570  0.66440  Biso   1.000  O
  C66      1.0000 0.53300  0.56150  0.61230  Biso   1.000  C
  C67      1.0000 0.51820  0.53530  0.53950  Biso   1.000  C
  C68      1.0000 0.48060  0.50820  0.54820  Biso   1.000  C
  C69      1.0000 0.53800  0.51780  0.50860  Biso   1.000  C
  C70      1.0000 0.51900  0.51680  0.57420  Biso   1.000  C
  C71      1.0000 0.48140  0.48970  0.58300  Biso   1.000  C
  C72      1.0000 0.53720  0.53630  0.47390  Biso   1.000  C
  Zn5      1.0000 0.37280  0.97322  0.66187  Biso   1.000  Zn
  O21      1.0000 0.33390  0.94890  0.59340  Biso   1.000  O
  O22      1.0000 0.30050  0.89070  0.65440  Biso   1.000  O
  C73      1.0000 0.30860  0.91230  0.59750  Biso   1.000  C
  C74      1.0000 0.28540  0.89510  0.52120  Biso   1.000  C
  C75      1.0000 0.29090  0.92200  0.46490  Biso   1.000  C
  C76      1.0000 0.27050  0.90520  0.39480  Biso   1.000  C
  H25      1.0000 0.27370  0.92020  0.35230  Biso   1.000  H
  C77      1.0000 0.24610  0.86620  0.39240  Biso   1.000  C
  C78      1.0000 0.24550  0.84130  0.45240  Biso   1.000  C
  H26      1.0000 0.23500  0.81540  0.44310  Biso   1.000  H
  C79      1.0000 0.26090  0.85640  0.52600  Biso   1.000  C
  H27      1.0000 0.25520  0.84220  0.57060  Biso   1.000  H
  C80      1.0000 0.22620  0.84930  0.31310  Biso   1.000  C
  C81      1.0000 0.19250  0.81480  0.31800  Biso   1.000  C
  H28      1.0000 0.18240  0.80340  0.36460  Biso   1.000  H
  C82      1.0000 0.11950  0.74870  0.30960  Biso   1.000  C
  H29      1.0000 0.12550  0.76490  0.35100  Biso   1.000  H
  C83      1.0000 0.08840  0.70930  0.31720  Biso   1.000  C
  H30      1.0000 0.08200  0.69420  0.36050  Biso   1.000  H
  O23      1.0000 0.01720  0.64530  0.31270  Biso   1.000  O
  O24      1.0000 0.41500  0.98160  0.60230  Biso   1.000  O
  O25      1.0000 0.44430  0.95550  0.66440  Biso   1.000  O
  C84      1.0000 0.43850  0.97150  0.61230  Biso   1.000  C
  C85      1.0000 0.46470  0.98290  0.53950  Biso   1.000  C
  C86      1.0000 0.49180  0.97240  0.54820  Biso   1.000  C
  C87      1.0000 0.48220  0.02020  0.50860  Biso   1.000  C
  C88      1.0000 0.48320  0.00220  0.57420  Biso   1.000  C
  C89      1.0000 0.51030  0.99170  0.58300  Biso   1.000  C
  C90      1.0000 0.46370  0.00090  0.47390  Biso   1.000  C
  Zn6      1.0000 0.02678  0.39958  0.66187  Biso   1.000  Zn
  O26      1.0000 0.05110  0.38500  0.59340  Biso   1.000  O
  O27      1.0000 0.10930  0.40980  0.65440  Biso   1.000  O
  C91      1.0000 0.08770  0.39630  0.59750  Biso   1.000  C
  C92      1.0000 0.10490  0.39030  0.52120  Biso   1.000  C
  C93      1.0000 0.07800  0.36890  0.46490  Biso   1.000  C
  C94      1.0000 0.09480  0.36530  0.39480  Biso   1.000  C
  H31      1.0000 0.07980  0.35350  0.35230  Biso   1.000  H
  C95      1.0000 0.13380  0.37990  0.39240  Biso   1.000  C
  C96      1.0000 0.15870  0.40420  0.45240  Biso   1.000  C
  H32      1.0000 0.18460  0.41960  0.44310  Biso   1.000  H
  C97      1.0000 0.14360  0.40450  0.52600  Biso   1.000  C
  H33      1.0000 0.15780  0.41300  0.57060  Biso   1.000  H
  C98      1.0000 0.15070  0.37690  0.31310  Biso   1.000  C
  C99      1.0000 0.18520  0.37770  0.31800  Biso   1.000  C
  H34      1.0000 0.19660  0.37900  0.36460  Biso   1.000  H
  C100     1.0000 0.25130  0.37080  0.30960  Biso   1.000  C
  H35      1.0000 0.23510  0.36060  0.35100  Biso   1.000  H
  C101     1.0000 0.29070  0.37910  0.31720  Biso   1.000  C
  H36      1.0000 0.30580  0.38780  0.36050  Biso   1.000  H
  O28      1.0000 0.35470  0.37190  0.31270  Biso   1.000  O
  O29      1.0000 0.01840  0.43340  0.60230  Biso   1.000  O
  O30      1.0000 0.04450  0.48880  0.66440  Biso   1.000  O
  C102     1.0000 0.02850  0.46700  0.61230  Biso   1.000  C
  C103     1.0000 0.01710  0.48180  0.53950  Biso   1.000  C
  C104     1.0000 0.02760  0.51940  0.54820  Biso   1.000  C
  C105     1.0000 0.97980  0.46200  0.50860  Biso   1.000  C
  C106     1.0000 0.99780  0.48100  0.57420  Biso   1.000  C
  C107     1.0000 0.00830  0.51860  0.58300  Biso   1.000  C
  C108     1.0000 0.99910  0.46280  0.47390  Biso   1.000  C
  Zn7      1.0000 0.60042  0.62720  0.83813  Biso   1.000  Zn
  O31      1.0000 0.61500  0.66610  0.90660  Biso   1.000  O
  O32      1.0000 0.59020  0.69950  0.84560  Biso   1.000  O
  C109     1.0000 0.60370  0.69140  0.90250  Biso   1.000  C
  C110     1.0000 0.60970  0.71460  0.97880  Biso   1.000  C
  C111     1.0000 0.63110  0.70910  0.03510  Biso   1.000  C
  C112     1.0000 0.63470  0.72950  0.10520  Biso   1.000  C
  H37      1.0000 0.64650  0.72630  0.14770  Biso   1.000  H
  C113     1.0000 0.62010  0.75390  0.10760  Biso   1.000  C
  C114     1.0000 0.59580  0.75450  0.04760  Biso   1.000  C
  H38      1.0000 0.58040  0.76500  0.05690  Biso   1.000  H
  C115     1.0000 0.59550  0.73910  0.97400  Biso   1.000  C
  H39      1.0000 0.58700  0.74480  0.92940  Biso   1.000  H
  C116     1.0000 0.62310  0.77380  0.18690  Biso   1.000  C
  C117     1.0000 0.62230  0.80750  0.18200  Biso   1.000  C
  H40      1.0000 0.62100  0.81760  0.13540  Biso   1.000  H
  C118     1.0000 0.62920  0.88050  0.19040  Biso   1.000  C
  H41      1.0000 0.63940  0.87450  0.14900  Biso   1.000  H
  C119     1.0000 0.62090  0.91160  0.18280  Biso   1.000  C
  H42      1.0000 0.61220  0.91800  0.13950  Biso   1.000  H
  O33      1.0000 0.62810  0.98280  0.18730  Biso   1.000  O
  O34      1.0000 0.56660  0.58500  0.89770  Biso   1.000  O
  O35      1.0000 0.51120  0.55570  0.83560  Biso   1.000  O
  C120     1.0000 0.53300  0.56150  0.88770  Biso   1.000  C
  C121     1.0000 0.51820  0.53530  0.96050  Biso   1.000  C
  C122     1.0000 0.48060  0.50820  0.95180  Biso   1.000  C
  C123     1.0000 0.53800  0.51780  0.99140  Biso   1.000  C
  C124     1.0000 0.51900  0.51680  0.92580  Biso   1.000  C
  C125     1.0000 0.48140  0.48970  0.91700  Biso   1.000  C
  C126     1.0000 0.53720  0.53630  0.02610  Biso   1.000  C
  Zn8      1.0000 0.37280  0.97322  0.83813  Biso   1.000  Zn
  O36      1.0000 0.33390  0.94890  0.90660  Biso   1.000  O
  O37      1.0000 0.30050  0.89070  0.84560  Biso   1.000  O
  C127     1.0000 0.30860  0.91230  0.90250  Biso   1.000  C
  C128     1.0000 0.28540  0.89510  0.97880  Biso   1.000  C
  C129     1.0000 0.29090  0.92200  0.03510  Biso   1.000  C
  C130     1.0000 0.27050  0.90520  0.10520  Biso   1.000  C
  H43      1.0000 0.27370  0.92020  0.14770  Biso   1.000  H
  C131     1.0000 0.24610  0.86620  0.10760  Biso   1.000  C
  C132     1.0000 0.24550  0.84130  0.04760  Biso   1.000  C
  H44      1.0000 0.23500  0.81540  0.05690  Biso   1.000  H
  C133     1.0000 0.26090  0.85640  0.97400  Biso   1.000  C
  H45      1.0000 0.25520  0.84220  0.92940  Biso   1.000  H
  C134     1.0000 0.22620  0.84930  0.18690  Biso   1.000  C
  C135     1.0000 0.19250  0.81480  0.18200  Biso   1.000  C
  H46      1.0000 0.18240  0.80340  0.13540  Biso   1.000  H
  C136     1.0000 0.11950  0.74870  0.19040  Biso   1.000  C
  H47      1.0000 0.12550  0.76490  0.14900  Biso   1.000  H
  C137     1.0000 0.08840  0.70930  0.18280  Biso   1.000  C
  H48      1.0000 0.08200  0.69420  0.13950  Biso   1.000  H
  O38      1.0000 0.01720  0.64530  0.18730  Biso   1.000  O
  O39      1.0000 0.41500  0.98160  0.89770  Biso   1.000  O
  O40      1.0000 0.44430  0.95550  0.83560  Biso   1.000  O
  C138     1.0000 0.43850  0.97150  0.88770  Biso   1.000  C
  C139     1.0000 0.46470  0.98290  0.96050  Biso   1.000  C
  C140     1.0000 0.49180  0.97240  0.95180  Biso   1.000  C
  C141     1.0000 0.48220  0.02020  0.99140  Biso   1.000  C
  C142     1.0000 0.48320  0.00220  0.92580  Biso   1.000  C
  C143     1.0000 0.51030  0.99170  0.91700  Biso   1.000  C
  C144     1.0000 0.46370  0.00090  0.02610  Biso   1.000  C
  Zn9      1.0000 0.02678  0.39958  0.83813  Biso   1.000  Zn
  O41      1.0000 0.05110  0.38500  0.90660  Biso   1.000  O
  O42      1.0000 0.10930  0.40980  0.84560  Biso   1.000  O
  C145     1.0000 0.08770  0.39630  0.90250  Biso   1.000  C
  C146     1.0000 0.10490  0.39030  0.97880  Biso   1.000  C
  C147     1.0000 0.07800  0.36890  0.03510  Biso   1.000  C
  C148     1.0000 0.09480  0.36530  0.10520  Biso   1.000  C
  H49      1.0000 0.07980  0.35350  0.14770  Biso   1.000  H
  C149     1.0000 0.13380  0.37990  0.10760  Biso   1.000  C
  C150     1.0000 0.15870  0.40420  0.04760  Biso   1.000  C
  H50      1.0000 0.18460  0.41960  0.05690  Biso   1.000  H
  C151     1.0000 0.14360  0.40450  0.97400  Biso   1.000  C
  H51      1.0000 0.15780  0.41300  0.92940  Biso   1.000  H
  C152     1.0000 0.15070  0.37690  0.18690  Biso   1.000  C
  C153     1.0000 0.18520  0.37770  0.18200  Biso   1.000  C
  H52      1.0000 0.19660  0.37900  0.13540  Biso   1.000  H
  C154     1.0000 0.25130  0.37080  0.19040  Biso   1.000  C
  H53      1.0000 0.23510  0.36060  0.14900  Biso   1.000  H
  C155     1.0000 0.29070  0.37910  0.18280  Biso   1.000  C
  H54      1.0000 0.30580  0.38780  0.13950  Biso   1.000  H
  O43      1.0000 0.35470  0.37190  0.18730  Biso   1.000  O
  O44      1.0000 0.01840  0.43340  0.89770  Biso   1.000  O
  O45      1.0000 0.04450  0.48880  0.83560  Biso   1.000  O
  C156     1.0000 0.02850  0.46700  0.88770  Biso   1.000  C
  C157     1.0000 0.01710  0.48180  0.96050  Biso   1.000  C
  C158     1.0000 0.02760  0.51940  0.95180  Biso   1.000  C
  C159     1.0000 0.97980  0.46200  0.99140  Biso   1.000  C
  C160     1.0000 0.99780  0.48100  0.92580  Biso   1.000  C
  C161     1.0000 0.00830  0.51860  0.91700  Biso   1.000  C
  C162     1.0000 0.99910  0.46280  0.02610  Biso   1.000  C
  Zn10     1.0000 0.39958  0.37280  0.33813  Biso   1.000  Zn
  O46      1.0000 0.38500  0.33390  0.40660  Biso   1.000  O
  O47      1.0000 0.40980  0.30050  0.34560  Biso   1.000  O
  C163     1.0000 0.39630  0.30860  0.40250  Biso   1.000  C
  C164     1.0000 0.39030  0.28540  0.47880  Biso   1.000  C
  C165     1.0000 0.36890  0.29090  0.53510  Biso   1.000  C
  C166     1.0000 0.36530  0.27050  0.60520  Biso   1.000  C
  H55      1.0000 0.35350  0.27370  0.64770  Biso   1.000  H
  C167     1.0000 0.37990  0.24610  0.60760  Biso   1.000  C
  C168     1.0000 0.40420  0.24550  0.54760  Biso   1.000  C
  H56      1.0000 0.41960  0.23500  0.55690  Biso   1.000  H
  C169     1.0000 0.40450  0.26090  0.47400  Biso   1.000  C
  H57      1.0000 0.41300  0.25520  0.42940  Biso   1.000  H
  C170     1.0000 0.37690  0.22620  0.68690  Biso   1.000  C
  C171     1.0000 0.37770  0.19250  0.68200  Biso   1.000  C
  H58      1.0000 0.37900  0.18240  0.63540  Biso   1.000  H
  C172     1.0000 0.37080  0.11950  0.69040  Biso   1.000  C
  H59      1.0000 0.36060  0.12550  0.64900  Biso   1.000  H
  C173     1.0000 0.37910  0.08840  0.68280  Biso   1.000  C
  H60      1.0000 0.38780  0.08200  0.63950  Biso   1.000  H
  O48      1.0000 0.37190  0.01720  0.68730  Biso   1.000  O
  O49      1.0000 0.43340  0.41500  0.39770  Biso   1.000  O
  O50      1.0000 0.48880  0.44430  0.33560  Biso   1.000  O
  C174     1.0000 0.46700  0.43850  0.38770  Biso   1.000  C
  C175     1.0000 0.48180  0.46470  0.46050  Biso   1.000  C
  C176     1.0000 0.51940  0.49180  0.45180  Biso   1.000  C
  C177     1.0000 0.46200  0.48220  0.49140  Biso   1.000  C
  C178     1.0000 0.48100  0.48320  0.42580  Biso   1.000  C
  C179     1.0000 0.51860  0.51030  0.41700  Biso   1.000  C
  C180     1.0000 0.46280  0.46370  0.52610  Biso   1.000  C
  Zn11     1.0000 0.62720  0.02678  0.33813  Biso   1.000  Zn
  O51      1.0000 0.66610  0.05110  0.40660  Biso   1.000  O
  O52      1.0000 0.69950  0.10930  0.34560  Biso   1.000  O
  C181     1.0000 0.69140  0.08770  0.40250  Biso   1.000  C
  C182     1.0000 0.71460  0.10490  0.47880  Biso   1.000  C
  C183     1.0000 0.70910  0.07800  0.53510  Biso   1.000  C
  C184     1.0000 0.72950  0.09480  0.60520  Biso   1.000  C
  H61      1.0000 0.72630  0.07980  0.64770  Biso   1.000  H
  C185     1.0000 0.75390  0.13380  0.60760  Biso   1.000  C
  C186     1.0000 0.75450  0.15870  0.54760  Biso   1.000  C
  H62      1.0000 0.76500  0.18460  0.55690  Biso   1.000  H
  C187     1.0000 0.73910  0.14360  0.47400  Biso   1.000  C
  H63      1.0000 0.74480  0.15780  0.42940  Biso   1.000  H
  C188     1.0000 0.77380  0.15070  0.68690  Biso   1.000  C
  C189     1.0000 0.80750  0.18520  0.68200  Biso   1.000  C
  H64      1.0000 0.81760  0.19660  0.63540  Biso   1.000  H
  C190     1.0000 0.88050  0.25130  0.69040  Biso   1.000  C
  H65      1.0000 0.87450  0.23510  0.64900  Biso   1.000  H
  C191     1.0000 0.91160  0.29070  0.68280  Biso   1.000  C
  H66      1.0000 0.91800  0.30580  0.63950  Biso   1.000  H
  O53      1.0000 0.98280  0.35470  0.68730  Biso   1.000  O
  O54      1.0000 0.58500  0.01840  0.39770  Biso   1.000  O
  O55      1.0000 0.55570  0.04450  0.33560  Biso   1.000  O
  C192     1.0000 0.56150  0.02850  0.38770  Biso   1.000  C
  C193     1.0000 0.53530  0.01710  0.46050  Biso   1.000  C
  C194     1.0000 0.50820  0.02760  0.45180  Biso   1.000  C
  C195     1.0000 0.51780  0.97980  0.49140  Biso   1.000  C
  C196     1.0000 0.51680  0.99780  0.42580  Biso   1.000  C
  C197     1.0000 0.48970  0.00830  0.41700  Biso   1.000  C
  C198     1.0000 0.53630  0.99910  0.52610  Biso   1.000  C
  Zn12     1.0000 0.97322  0.60042  0.33813  Biso   1.000  Zn
  O56      1.0000 0.94890  0.61500  0.40660  Biso   1.000  O
  O57      1.0000 0.89070  0.59020  0.34560  Biso   1.000  O
  C199     1.0000 0.91230  0.60370  0.40250  Biso   1.000  C
  C200     1.0000 0.89510  0.60970  0.47880  Biso   1.000  C
  C201     1.0000 0.92200  0.63110  0.53510  Biso   1.000  C
  C202     1.0000 0.90520  0.63470  0.60520  Biso   1.000  C
  H67      1.0000 0.92020  0.64650  0.64770  Biso   1.000  H
  C203     1.0000 0.86620  0.62010  0.60760  Biso   1.000  C
  C204     1.0000 0.84130  0.59580  0.54760  Biso   1.000  C
  H68      1.0000 0.81540  0.58040  0.55690  Biso   1.000  H
  C205     1.0000 0.85640  0.59550  0.47400  Biso   1.000  C
  H69      1.0000 0.84220  0.58700  0.42940  Biso   1.000  H
  C206     1.0000 0.84930  0.62310  0.68690  Biso   1.000  C
  C207     1.0000 0.81480  0.62230  0.68200  Biso   1.000  C
  H70      1.0000 0.80340  0.62100  0.63540  Biso   1.000  H
  C208     1.0000 0.74870  0.62920  0.69040  Biso   1.000  C
  H71      1.0000 0.76490  0.63940  0.64900  Biso   1.000  H
  C209     1.0000 0.70930  0.62090  0.68280  Biso   1.000  C
  H72      1.0000 0.69420  0.61220  0.63950  Biso   1.000  H
  O58      1.0000 0.64530  0.62810  0.68730  Biso   1.000  O
  O59      1.0000 0.98160  0.56660  0.39770  Biso   1.000  O
  O60      1.0000 0.95550  0.51120  0.33560  Biso   1.000  O
  C210     1.0000 0.97150  0.53300  0.38770  Biso   1.000  C
  C211     1.0000 0.98290  0.51820  0.46050  Biso   1.000  C
  C212     1.0000 0.97240  0.48060  0.45180  Biso   1.000  C
  C213     1.0000 0.02020  0.53800  0.49140  Biso   1.000  C
  C214     1.0000 0.00220  0.51900  0.42580  Biso   1.000  C
  C215     1.0000 0.99170  0.48140  0.41700  Biso   1.000  C
  C216     1.0000 0.00090  0.53720  0.52610  Biso   1.000  C
  Zn13     1.0000 0.42228  0.31999  0.25000  Biso   1.000  Zn
  Zn14     1.0000 0.47598  0.40932  0.25000  Biso   1.000  Zn
  O61      1.0000 0.42320  0.36870  0.25000  Biso   1.000  O
  O62      1.0000 0.51220  0.39330  0.25000  Biso   1.000  O
  O63      1.0000 0.47640  0.33600  0.25000  Biso   1.000  O
  C217     1.0000 0.50820  0.35890  0.25000  Biso   1.000  C
  C218     1.0000 0.54250  0.35690  0.25000  Biso   1.000  C
  C219     1.0000 0.57940  0.38650  0.25000  Biso   1.000  C
  H73      1.0000 0.58430  0.41150  0.25000  Biso   1.000  H
  C220     1.0000 0.60900  0.37930  0.25000  Biso   1.000  C
  H74      1.0000 0.63390  0.39930  0.25000  Biso   1.000  H
  C221     1.0000 0.60170  0.34240  0.25000  Biso   1.000  C
  C222     1.0000 0.56490  0.31280  0.25000  Biso   1.000  C
  H75      1.0000 0.56000  0.28790  0.25000  Biso   1.000  H
  C223     1.0000 0.53530  0.32010  0.25000  Biso   1.000  C
  H76      1.0000 0.51030  0.30000  0.25000  Biso   1.000  H
  C224     1.0000 0.63640  0.33580  0.25000  Biso   1.000  C
  C225     1.0000 0.66990  0.36890  0.25000  Biso   1.000  C
  Zn15     1.0000 0.68001  0.10229  0.25000  Biso   1.000  Zn
  Zn16     1.0000 0.59068  0.06666  0.25000  Biso   1.000  Zn
  O64      1.0000 0.63130  0.05450  0.25000  Biso   1.000  O
  O65      1.0000 0.60670  0.11890  0.25000  Biso   1.000  O
  O66      1.0000 0.66400  0.14040  0.25000  Biso   1.000  O
  C226     1.0000 0.64110  0.14930  0.25000  Biso   1.000  C
  C227     1.0000 0.64310  0.18560  0.25000  Biso   1.000  C
  C228     1.0000 0.61350  0.19290  0.25000  Biso   1.000  C
  H77      1.0000 0.58850  0.17280  0.25000  Biso   1.000  H
  C229     1.0000 0.62070  0.22970  0.25000  Biso   1.000  C
  H78      1.0000 0.60070  0.23460  0.25000  Biso   1.000  H
  C230     1.0000 0.65760  0.25930  0.25000  Biso   1.000  C
  C231     1.0000 0.68720  0.25210  0.25000  Biso   1.000  C
  H79      1.0000 0.71210  0.27210  0.25000  Biso   1.000  H
  C232     1.0000 0.67990  0.21520  0.25000  Biso   1.000  C
  H80      1.0000 0.70000  0.21030  0.25000  Biso   1.000  H
  C233     1.0000 0.66420  0.30060  0.25000  Biso   1.000  C
  C234     1.0000 0.63110  0.30100  0.25000  Biso   1.000  C
  Zn17     1.0000 0.89771  0.57772  0.25000  Biso   1.000  Zn
  Zn18     1.0000 0.93334  0.52402  0.25000  Biso   1.000  Zn
  O67      1.0000 0.94550  0.57680  0.25000  Biso   1.000  O
  O68      1.0000 0.88110  0.48780  0.25000  Biso   1.000  O
  O69      1.0000 0.85960  0.52360  0.25000  Biso   1.000  O
  C235     1.0000 0.85070  0.49180  0.25000  Biso   1.000  C
  C236     1.0000 0.81440  0.45750  0.25000  Biso   1.000  C
  C237     1.0000 0.80710  0.42060  0.25000  Biso   1.000  C
  H81      1.0000 0.82720  0.41570  0.25000  Biso   1.000  H
  C238     1.0000 0.77030  0.39100  0.25000  Biso   1.000  C
  H82      1.0000 0.76540  0.36610  0.25000  Biso   1.000  H
  C239     1.0000 0.74070  0.39830  0.25000  Biso   1.000  C
  C240     1.0000 0.74790  0.43510  0.25000  Biso   1.000  C
  H83      1.0000 0.72790  0.44000  0.25000  Biso   1.000  H
  C241     1.0000 0.78480  0.46470  0.25000  Biso   1.000  C
  H84      1.0000 0.78970  0.48970  0.25000  Biso   1.000  H
  C242     1.0000 0.69940  0.36360  0.25000  Biso   1.000  C
  C243     1.0000 0.69900  0.33010  0.25000  Biso   1.000  C
  Zn19     1.0000 0.57772  0.68001  0.75000  Biso   1.000  Zn
  Zn20     1.0000 0.52402  0.59068  0.75000  Biso   1.000  Zn
  O70      1.0000 0.57680  0.63130  0.75000  Biso   1.000  O
  O71      1.0000 0.48780  0.60670  0.75000  Biso   1.000  O
  O72      1.0000 0.52360  0.66400  0.75000  Biso   1.000  O
  C244     1.0000 0.49180  0.64110  0.75000  Biso   1.000  C
  C245     1.0000 0.45750  0.64310  0.75000  Biso   1.000  C
  C246     1.0000 0.42060  0.61350  0.75000  Biso   1.000  C
  H85      1.0000 0.41570  0.58850  0.75000  Biso   1.000  H
  C247     1.0000 0.39100  0.62070  0.75000  Biso   1.000  C
  H86      1.0000 0.36610  0.60070  0.75000  Biso   1.000  H
  C248     1.0000 0.39830  0.65760  0.75000  Biso   1.000  C
  C249     1.0000 0.43510  0.68720  0.75000  Biso   1.000  C
  H87      1.0000 0.44000  0.71210  0.75000  Biso   1.000  H
  C250     1.0000 0.46470  0.67990  0.75000  Biso   1.000  C
  H88      1.0000 0.48970  0.70000  0.75000  Biso   1.000  H
  C251     1.0000 0.36360  0.66420  0.75000  Biso   1.000  C
  C252     1.0000 0.33010  0.63110  0.75000  Biso   1.000  C
  Zn21     1.0000 0.31999  0.89771  0.75000  Biso   1.000  Zn
  Zn22     1.0000 0.40932  0.93334  0.75000  Biso   1.000  Zn
  O73      1.0000 0.36870  0.94550  0.75000  Biso   1.000  O
  O74      1.0000 0.39330  0.88110  0.75000  Biso   1.000  O
  O75      1.0000 0.33600  0.85960  0.75000  Biso   1.000  O
  C253     1.0000 0.35890  0.85070  0.75000  Biso   1.000  C
  C254     1.0000 0.35690  0.81440  0.75000  Biso   1.000  C
  C255     1.0000 0.38650  0.80710  0.75000  Biso   1.000  C
  H89      1.0000 0.41150  0.82720  0.75000  Biso   1.000  H
  C256     1.0000 0.37930  0.77030  0.75000  Biso   1.000  C
  H90      1.0000 0.39930  0.76540  0.75000  Biso   1.000  H
  C257     1.0000 0.34240  0.74070  0.75000  Biso   1.000  C
  C258     1.0000 0.31280  0.74790  0.75000  Biso   1.000  C
  H91      1.0000 0.28790  0.72790  0.75000  Biso   1.000  H
  C259     1.0000 0.32010  0.78480  0.75000  Biso   1.000  C
  H92      1.0000 0.30000  0.78970  0.75000  Biso   1.000  H
  C260     1.0000 0.33580  0.69940  0.75000  Biso   1.000  C
  C261     1.0000 0.36890  0.69900  0.75000  Biso   1.000  C
  Zn23     1.0000 0.10229  0.42228  0.75000  Biso   1.000  Zn
  Zn24     1.0000 0.06666  0.47598  0.75000  Biso   1.000  Zn
  O76      1.0000 0.05450  0.42320  0.75000  Biso   1.000  O
  O77      1.0000 0.11890  0.51220  0.75000  Biso   1.000  O
  O78      1.0000 0.14040  0.47640  0.75000  Biso   1.000  O
  C262     1.0000 0.14930  0.50820  0.75000  Biso   1.000  C
  C263     1.0000 0.18560  0.54250  0.75000  Biso   1.000  C
  C264     1.0000 0.19290  0.57940  0.75000  Biso   1.000  C
  H93      1.0000 0.17280  0.58430  0.75000  Biso   1.000  H
  C265     1.0000 0.22970  0.60900  0.75000  Biso   1.000  C
  H94      1.0000 0.23460  0.63390  0.75000  Biso   1.000  H
  C266     1.0000 0.25930  0.60170  0.75000  Biso   1.000  C
  C267     1.0000 0.25210  0.56490  0.75000  Biso   1.000  C
  H95      1.0000 0.27210  0.56000  0.75000  Biso   1.000  H
  C268     1.0000 0.21520  0.53530  0.75000  Biso   1.000  C
  H96      1.0000 0.21030  0.51030  0.75000  Biso   1.000  H
  C269     1.0000 0.30060  0.63640  0.75000  Biso   1.000  C
  C270     1.0000 0.30100  0.66990  0.75000  Biso   1.000  C
  C271     1.0000 0.37580  0.24530  0.75000  Biso   1.000  C
  H97      1.0000 0.37460  0.26760  0.75000  Biso   1.000  H
  C272     1.0000 0.37640  0.17470  0.75000  Biso   1.000  C
  C273     1.0000 0.37700  0.13790  0.75000  Biso   1.000  C
  C274     1.0000 0.37150  0.07120  0.75000  Biso   1.000  C
  C275     1.0000 0.37680  0.03420  0.75000  Biso   1.000  C
  C276     1.0000 0.75470  0.13050  0.75000  Biso   1.000  C
  H98      1.0000 0.73240  0.10700  0.75000  Biso   1.000  H
  C277     1.0000 0.82530  0.20170  0.75000  Biso   1.000  C
  C278     1.0000 0.86210  0.23910  0.75000  Biso   1.000  C
  C279     1.0000 0.92880  0.30030  0.75000  Biso   1.000  C
  C280     1.0000 0.96580  0.34260  0.75000  Biso   1.000  C
  C281     1.0000 0.86950  0.62420  0.75000  Biso   1.000  C
  H99      1.0000 0.89300  0.62540  0.75000  Biso   1.000  H
  C282     1.0000 0.79830  0.62360  0.75000  Biso   1.000  C
  C283     1.0000 0.76090  0.62300  0.75000  Biso   1.000  C
  C284     1.0000 0.69970  0.62850  0.75000  Biso   1.000  C
  C285     1.0000 0.65740  0.62320  0.75000  Biso   1.000  C
  C286     1.0000 0.62420  0.75470  0.25000  Biso   1.000  C
  H100     1.0000 0.62540  0.73240  0.25000  Biso   1.000  H
  C287     1.0000 0.62360  0.82530  0.25000  Biso   1.000  C
  C288     1.0000 0.62300  0.86210  0.25000  Biso   1.000  C
  C289     1.0000 0.62850  0.92880  0.25000  Biso   1.000  C
  C290     1.0000 0.62320  0.96580  0.25000  Biso   1.000  C
  C291     1.0000 0.24530  0.86950  0.25000  Biso   1.000  C
  H101     1.0000 0.26760  0.89300  0.25000  Biso   1.000  H
  C292     1.0000 0.17470  0.79830  0.25000  Biso   1.000  C
  C293     1.0000 0.13790  0.76090  0.25000  Biso   1.000  C
  C294     1.0000 0.07120  0.69970  0.25000  Biso   1.000  C
  C295     1.0000 0.03420  0.65740  0.25000  Biso   1.000  C
  C296     1.0000 0.13050  0.37580  0.25000  Biso   1.000  C
  H102     1.0000 0.10700  0.37460  0.25000  Biso   1.000  H
  C297     1.0000 0.20170  0.37640  0.25000  Biso   1.000  C
  C298     1.0000 0.23910  0.37700  0.25000  Biso   1.000  C
  C299     1.0000 0.30030  0.37150  0.25000  Biso   1.000  C
  C300     1.0000 0.34260  0.37680  0.25000  Biso   1.000  C
