data_image0
_cell_length_a       14.9658
_cell_length_b       18.5746
_cell_length_c       32.5237
_cell_angle_alpha    81.3686
_cell_angle_beta     89.5249
_cell_angle_gamma    68.9668

_symmetry_space_group_name_H-M    "P 1"
_symmetry_int_tables_number       1

loop_
  _symmetry_equiv_pos_as_xyz
  'x, y, z'

loop_
  _atom_site_label
  _atom_site_occupancy
  _atom_site_fract_x
  _atom_site_fract_y
  _atom_site_fract_z
  _atom_site_thermal_displace_type
  _atom_site_B_iso_or_equiv
  _atom_site_type_symbol
  C1       1.0000 0.99010  0.43740  0.04620  Biso   1.000  C
  H1       1.0000 0.98830  0.47900  0.06040  Biso   1.000  H
  C2       1.0000 0.91020  0.44520  0.02180  Biso   1.000  C
  H2       1.0000 0.85430  0.49120  0.01950  Biso   1.000  H
  C3       1.0000 0.91390  0.38470  0.00090  Biso   1.000  C
  C4       1.0000 0.99460  0.31850  0.00530  Biso   1.000  C
  H3       1.0000 0.99780  0.27610  0.99150  Biso   1.000  H
  C5       1.0000 0.07110  0.31440  0.02990  Biso   1.000  C
  H4       1.0000 0.12710  0.26850  0.03280  Biso   1.000  H
  C6       1.0000 0.83240  0.39100  0.97280  Biso   1.000  C
  C7       1.0000 0.55650  0.08570  0.78280  Biso   1.000  C
  C8       1.0000 0.77750  0.35220  0.91920  Biso   1.000  C
  C9       1.0000 0.81860  0.14630  0.26590  Biso   1.000  C
  C10      1.0000 0.68080  0.45500  0.94630  Biso   1.000  C
  C11      1.0000 0.08100  0.20130  0.20180  Biso   1.000  C
  C12      1.0000 0.58910  0.52270  0.94440  Biso   1.000  C
  C13      1.0000 0.56130  0.56280  0.97750  Biso   1.000  C
  H5       1.0000 0.59980  0.54690  0.00270  Biso   1.000  H
  C14      1.0000 0.47590  0.62660  0.97350  Biso   1.000  C
  H6       1.0000 0.45620  0.65370  0.99650  Biso   1.000  H
  C15      1.0000 0.44850  0.61320  0.90630  Biso   1.000  C
  H7       1.0000 0.40970  0.63120  0.88110  Biso   1.000  H
  C16      1.0000 0.53130  0.54850  0.90830  Biso   1.000  C
  H8       1.0000 0.54860  0.52170  0.88510  Biso   1.000  H
  C17      1.0000 0.25460  0.87110  0.85820  Biso   1.000  C
  H9       1.0000 0.19430  0.86490  0.85740  Biso   1.000  H
  C18      1.0000 0.26920  0.92870  0.82970  Biso   1.000  C
  H10      1.0000 0.22030  0.96120  0.80950  Biso   1.000  H
  C19      1.0000 0.35760  0.93740  0.83140  Biso   1.000  C
  C20      1.0000 0.42590  0.88890  0.86020  Biso   1.000  C
  H11      1.0000 0.48680  0.89380  0.86190  Biso   1.000  H
  C21      1.0000 0.40610  0.83230  0.88700  Biso   1.000  C
  H12      1.0000 0.45510  0.79770  0.90660  Biso   1.000  H
  C22      1.0000 0.37470  0.00050  0.80160  Biso   1.000  C
  C23      1.0000 0.32760  0.09320  0.74510  Biso   1.000  C
  C24      1.0000 0.25860  0.13640  0.70910  Biso   1.000  C
  C25      1.0000 0.27930  0.18890  0.67930  Biso   1.000  C
  H13      1.0000 0.33780  0.19750  0.68120  Biso   1.000  H
  C26      1.0000 0.21410  0.22820  0.64680  Biso   1.000  C
  H14      1.0000 0.22920  0.26410  0.62660  Biso   1.000  H
  C27      1.0000 0.11250  0.16640  0.67020  Biso   1.000  C
  H15      1.0000 0.05490  0.15700  0.66660  Biso   1.000  H
  C28      1.0000 0.17260  0.12500  0.70410  Biso   1.000  C
  H16      1.0000 0.15590  0.08920  0.72370  Biso   1.000  H
  C29      1.0000 0.46610  0.07020  0.78050  Biso   1.000  C
  C30      1.0000 0.63090  0.03900  0.81120  Biso   1.000  C
  H17      1.0000 0.62350  0.99850  0.83090  Biso   1.000  H
  C31      1.0000 0.71660  0.05270  0.81040  Biso   1.000  C
  H18      1.0000 0.76820  0.02040  0.82950  Biso   1.000  H
  C32      1.0000 0.65630  0.15520  0.75640  Biso   1.000  C
  H19      1.0000 0.66550  0.19570  0.73740  Biso   1.000  H
  C33      1.0000 0.56900  0.14570  0.75490  Biso   1.000  C
  H20      1.0000 0.51910  0.17900  0.73540  Biso   1.000  H
  C34      1.0000 0.74890  0.26310  0.82590  Biso   1.000  C
  H21      1.0000 0.70390  0.27370  0.80320  Biso   1.000  H
  C35      1.0000 0.72890  0.31260  0.85520  Biso   1.000  C
  H22      1.0000 0.66980  0.35560  0.85310  Biso   1.000  H
  C36      1.0000 0.79510  0.29970  0.88770  Biso   1.000  C
  C37      1.0000 0.87930  0.23570  0.88970  Biso   1.000  C
  H23      1.0000 0.92700  0.22560  0.91110  Biso   1.000  H
  C38      1.0000 0.89330  0.18670  0.86060  Biso   1.000  C
  H24      1.0000 0.94990  0.14130  0.86310  Biso   1.000  H
  C39      1.0000 0.08860  0.41060  0.54780  Biso   1.000  C
  H25      1.0000 0.04730  0.44450  0.56480  Biso   1.000  H
  C40      1.0000 0.15970  0.28860  0.53140  Biso   1.000  C
  H26      1.0000 0.16940  0.23460  0.53670  Biso   1.000  H
  C41      1.0000 0.20780  0.31490  0.49970  Biso   1.000  C
  H27      1.0000 0.25020  0.27970  0.48370  Biso   1.000  H
  C42      1.0000 0.19280  0.39400  0.49190  Biso   1.000  C
  C43      1.0000 0.13430  0.44200  0.51660  Biso   1.000  C
  H28      1.0000 0.12490  0.49600  0.51260  Biso   1.000  H
  C44      1.0000 0.24300  0.42360  0.45740  Biso   1.000  C
  C45      1.0000 0.29810  0.51490  0.42650  Biso   1.000  C
  C46      1.0000 0.31960  0.40680  0.39790  Biso   1.000  C
  C47      1.0000 0.35790  0.35800  0.36510  Biso   1.000  C
  C48      1.0000 0.39080  0.38620  0.32880  Biso   1.000  C
  H29      1.0000 0.38890  0.43840  0.32390  Biso   1.000  H
  C49      1.0000 0.42630  0.33770  0.29990  Biso   1.000  C
  H30      1.0000 0.44820  0.35780  0.27480  Biso   1.000  H
  C50      1.0000 0.40090  0.23550  0.34140  Biso   1.000  C
  H31      1.0000 0.40630  0.18230  0.34620  Biso   1.000  H
  C51      1.0000 0.36320  0.28020  0.37080  Biso   1.000  C
  H32      1.0000 0.34040  0.25910  0.39530  Biso   1.000  H
  C52      1.0000 0.68520  0.11030  0.28690  Biso   1.000  C
  H33      1.0000 0.66090  0.07510  0.30320  Biso   1.000  H
  C53      1.0000 0.78180  0.09590  0.29030  Biso   1.000  C
  H34      1.0000 0.82290  0.05220  0.30890  Biso   1.000  H
  C54      1.0000 0.75490  0.20980  0.24040  Biso   1.000  C
  H35      1.0000 0.77770  0.24550  0.22370  Biso   1.000  H
  C55      1.0000 0.65880  0.22180  0.23870  Biso   1.000  C
  H36      1.0000 0.61630  0.26610  0.22100  Biso   1.000  H
  C56      1.0000 0.92310  0.13100  0.26640  Biso   1.000  C
  C57      1.0000 0.04540  0.15580  0.23500  Biso   1.000  C
  C58      1.0000 0.07450  0.06010  0.29010  Biso   1.000  C
  C59      1.0000 0.01880  0.27020  0.18000  Biso   1.000  C
  H37      1.0000 0.95330  0.28990  0.18650  Biso   1.000  H
  C60      1.0000 0.05310  0.31040  0.14830  Biso   1.000  C
  H38      1.0000 0.01010  0.35810  0.13330  Biso   1.000  H
  C61      1.0000 0.20540  0.21780  0.15980  Biso   1.000  C
  H39      1.0000 0.27060  0.19950  0.15270  Biso   1.000  H
  C62      1.0000 0.17690  0.17440  0.19210  Biso   1.000  C
  H40      1.0000 0.22160  0.12770  0.20710  Biso   1.000  H
  C63      1.0000 0.14510  0.00070  0.32050  Biso   1.000  C
  C64      1.0000 0.24210  0.98480  0.31690  Biso   1.000  C
  H41      1.0000 0.26400  0.01020  0.29360  Biso   1.000  H
  C65      1.0000 0.30730  0.93240  0.34670  Biso   1.000  C
  H42      1.0000 0.37380  0.92140  0.34350  Biso   1.000  H
  C66      1.0000 0.11690  0.96140  0.35460  Biso   1.000  C
  H43      1.0000 0.05100  0.96910  0.35760  Biso   1.000  H
  C67      1.0000 0.18510  0.91080  0.38400  Biso   1.000  C
  H44      1.0000 0.16480  0.88520  0.40760  Biso   1.000  H
  C68      1.0000 0.30370  0.69770  0.45910  Biso   1.000  C
  H45      1.0000 0.28520  0.72490  0.48220  Biso   1.000  H
  C69      1.0000 0.28550  0.62970  0.45910  Biso   1.000  C
  H46      1.0000 0.25380  0.61150  0.48140  Biso   1.000  H
  C70      1.0000 0.31370  0.58910  0.42650  Biso   1.000  C
  C71      1.0000 0.35820  0.61830  0.39430  Biso   1.000  C
  H47      1.0000 0.37790  0.59190  0.37110  Biso   1.000  H
  C72      1.0000 0.37330  0.68630  0.39650  Biso   1.000  C
  H48      1.0000 0.40470  0.70570  0.37440  Biso   1.000  H
  I1       1.0000 0.33428  0.26725  0.05966  Biso   1.000  I
  I2       1.0000 0.44371  0.07104  0.28353  Biso   1.000  I
  I3       1.0000 0.16649  0.70610  0.90003  Biso   1.000  I
  I4       1.0000 0.16132  0.47519  0.12244  Biso   1.000  I
  I5       1.0000 0.26733  0.80418  0.99893  Biso   1.000  I
  I6       1.0000 0.86324  0.20351  0.71203  Biso   1.000  I
  I7       1.0000 0.40768  0.28288  0.19027  Biso   1.000  I
  I8       1.0000 0.54289  0.81172  0.41267  Biso   1.000  I
  I9       1.0000 0.29824  0.88314  0.49428  Biso   1.000  I
  I10      1.0000 0.91937  0.39913  0.63397  Biso   1.000  I
  N1       1.0000 0.69240  0.40890  0.91785  Biso   1.000  N
  N2       1.0000 0.85010  0.34050  0.94604  Biso   1.000  N
  N3       1.0000 0.74750  0.44900  0.97572  Biso   1.000  N
  N4       1.0000 0.42080  0.65140  0.93868  Biso   1.000  N
  N5       1.0000 0.06960  0.37300  0.05026  Biso   1.000  N
  N6       1.0000 0.83000  0.20070  0.82850  Biso   1.000  N
  N7       1.0000 0.11110  0.09720  0.25985  Biso   1.000  N
  N8       1.0000 0.95110  0.17700  0.23742  Biso   1.000  N
  N9       1.0000 0.98140  0.07280  0.29389  Biso   1.000  N
  N10      1.0000 0.27890  0.89640  0.38051  Biso   1.000  N
  N11      1.0000 0.62330  0.17220  0.26165  Biso   1.000  N
  N12      1.0000 0.14480  0.28440  0.13804  Biso   1.000  N
  N13      1.0000 0.40370  0.11340  0.74882  Biso   1.000  N
  N14      1.0000 0.30960  0.03620  0.77012  Biso   1.000  N
  N15      1.0000 0.45360  0.01510  0.80845  Biso   1.000  N
  N16      1.0000 0.72790  0.11030  0.78335  Biso   1.000  N
  N17      1.0000 0.32160  0.82390  0.88675  Biso   1.000  N
  N18      1.0000 0.12990  0.21900  0.64190  Biso   1.000  N
  N19      1.0000 0.25260  0.49170  0.45830  Biso   1.000  N
  N20      1.0000 0.33240  0.47500  0.39536  Biso   1.000  N
  N21      1.0000 0.27590  0.37810  0.42849  Biso   1.000  N
  N22      1.0000 0.09990  0.33610  0.55490  Biso   1.000  N
  N23      1.0000 0.43140  0.26300  0.30535  Biso   1.000  N
  N24      1.0000 0.34610  0.72680  0.42810  Biso   1.000  N
  Zn1      1.0000 0.18473  0.35343  0.09111  Biso   1.000  Zn
  Zn2      1.0000 0.29307  0.74498  0.93217  Biso   1.000  Zn
  Zn3      1.0000 0.85671  0.12913  0.78341  Biso   1.000  Zn
  Zn4      1.0000 0.37117  0.82829  0.42928  Biso   1.000  Zn
  Zn5      1.0000 0.47778  0.19579  0.25879  Biso   1.000  Zn
  Zn6      1.0000 0.02543  0.28900  0.59819  Biso   1.000  Zn
  I11      1.0000 0.97540  0.19590  0.55802  Biso   1.000  I
  I12      1.0000 0.99790  0.00163  0.81154  Biso   1.000  I
  I13      1.0000 0.95760  0.21270  0.56460  Biso   1.000  I
  I14      1.0000 0.97140  0.00720  0.81170  Biso   1.000  I
  C73      1.0000 0.00990  0.56260  0.95380  Biso   1.000  C
  H49      1.0000 0.01170  0.52100  0.93960  Biso   1.000  H
  C74      1.0000 0.08980  0.55480  0.97820  Biso   1.000  C
  H50      1.0000 0.14570  0.50880  0.98050  Biso   1.000  H
  C75      1.0000 0.08610  0.61530  0.99910  Biso   1.000  C
  C76      1.0000 0.00540  0.68150  0.99470  Biso   1.000  C
  H51      1.0000 0.00220  0.72390  0.00850  Biso   1.000  H
  C77      1.0000 0.92890  0.68560  0.97010  Biso   1.000  C
  H52      1.0000 0.87290  0.73150  0.96720  Biso   1.000  H
  C78      1.0000 0.16760  0.60900  0.02720  Biso   1.000  C
  C79      1.0000 0.44350  0.91430  0.21720  Biso   1.000  C
  C80      1.0000 0.22250  0.64780  0.08080  Biso   1.000  C
  C81      1.0000 0.18140  0.85370  0.73410  Biso   1.000  C
  C82      1.0000 0.31920  0.54500  0.05370  Biso   1.000  C
  C83      1.0000 0.91900  0.79870  0.79820  Biso   1.000  C
  C84      1.0000 0.41090  0.47730  0.05560  Biso   1.000  C
  C85      1.0000 0.43870  0.43720  0.02250  Biso   1.000  C
  H53      1.0000 0.40020  0.45310  0.99730  Biso   1.000  H
  C86      1.0000 0.52410  0.37340  0.02650  Biso   1.000  C
  H54      1.0000 0.54380  0.34630  0.00350  Biso   1.000  H
  C87      1.0000 0.55150  0.38680  0.09370  Biso   1.000  C
  H55      1.0000 0.59030  0.36880  0.11890  Biso   1.000  H
  C88      1.0000 0.46870  0.45150  0.09170  Biso   1.000  C
  H56      1.0000 0.45140  0.47830  0.11490  Biso   1.000  H
  C89      1.0000 0.74540  0.12890  0.14180  Biso   1.000  C
  H57      1.0000 0.80570  0.13510  0.14260  Biso   1.000  H
  C90      1.0000 0.73080  0.07130  0.17030  Biso   1.000  C
  H58      1.0000 0.77970  0.03880  0.19050  Biso   1.000  H
  C91      1.0000 0.64240  0.06260  0.16860  Biso   1.000  C
  C92      1.0000 0.57410  0.11110  0.13980  Biso   1.000  C
  H59      1.0000 0.51320  0.10620  0.13810  Biso   1.000  H
  C93      1.0000 0.59390  0.16770  0.11300  Biso   1.000  C
  H60      1.0000 0.54490  0.20230  0.09340  Biso   1.000  H
  C94      1.0000 0.62530  0.99950  0.19840  Biso   1.000  C
  C95      1.0000 0.67240  0.90680  0.25490  Biso   1.000  C
  C96      1.0000 0.74140  0.86360  0.29090  Biso   1.000  C
  C97      1.0000 0.72070  0.81110  0.32070  Biso   1.000  C
  H61      1.0000 0.66220  0.80250  0.31880  Biso   1.000  H
  C98      1.0000 0.78590  0.77180  0.35320  Biso   1.000  C
  H62      1.0000 0.77080  0.73590  0.37340  Biso   1.000  H
  C99      1.0000 0.88750  0.83360  0.32980  Biso   1.000  C
  H63      1.0000 0.94510  0.84300  0.33340  Biso   1.000  H
  C100     1.0000 0.82740  0.87500  0.29590  Biso   1.000  C
  H64      1.0000 0.84410  0.91080  0.27630  Biso   1.000  H
  C101     1.0000 0.53390  0.92980  0.21950  Biso   1.000  C
  C102     1.0000 0.36910  0.96100  0.18880  Biso   1.000  C
  H65      1.0000 0.37650  0.00150  0.16910  Biso   1.000  H
  C103     1.0000 0.28340  0.94730  0.18960  Biso   1.000  C
  H66      1.0000 0.23180  0.97960  0.17050  Biso   1.000  H
  C104     1.0000 0.34370  0.84480  0.24360  Biso   1.000  C
  H67      1.0000 0.33450  0.80430  0.26260  Biso   1.000  H
  C105     1.0000 0.43100  0.85430  0.24510  Biso   1.000  C
  H68      1.0000 0.48090  0.82100  0.26460  Biso   1.000  H
  C106     1.0000 0.25110  0.73690  0.17410  Biso   1.000  C
  H69      1.0000 0.29610  0.72630  0.19680  Biso   1.000  H
  C107     1.0000 0.27110  0.68740  0.14480  Biso   1.000  C
  H70      1.0000 0.33020  0.64440  0.14690  Biso   1.000  H
  C108     1.0000 0.20490  0.70030  0.11230  Biso   1.000  C
  C109     1.0000 0.12070  0.76430  0.11030  Biso   1.000  C
  H71      1.0000 0.07300  0.77440  0.08890  Biso   1.000  H
  C110     1.0000 0.10670  0.81330  0.13940  Biso   1.000  C
  H72      1.0000 0.05010  0.85870  0.13690  Biso   1.000  H
  C111     1.0000 0.91140  0.58940  0.45220  Biso   1.000  C
  H73      1.0000 0.95270  0.55550  0.43520  Biso   1.000  H
  C112     1.0000 0.84030  0.71140  0.46860  Biso   1.000  C
  H74      1.0000 0.83060  0.76540  0.46330  Biso   1.000  H
  C113     1.0000 0.79220  0.68510  0.50030  Biso   1.000  C
  H75      1.0000 0.74980  0.72030  0.51630  Biso   1.000  H
  C114     1.0000 0.80720  0.60600  0.50810  Biso   1.000  C
  C115     1.0000 0.86570  0.55800  0.48340  Biso   1.000  C
  H76      1.0000 0.87510  0.50400  0.48740  Biso   1.000  H
  C116     1.0000 0.75700  0.57640  0.54260  Biso   1.000  C
  C117     1.0000 0.70190  0.48510  0.57350  Biso   1.000  C
  C118     1.0000 0.68040  0.59320  0.60210  Biso   1.000  C
  C119     1.0000 0.64210  0.64200  0.63490  Biso   1.000  C
  C120     1.0000 0.60920  0.61380  0.67120  Biso   1.000  C
  H77      1.0000 0.61110  0.56160  0.67610  Biso   1.000  H
  C121     1.0000 0.57370  0.66230  0.70010  Biso   1.000  C
  H78      1.0000 0.55180  0.64220  0.72520  Biso   1.000  H
  C122     1.0000 0.59910  0.76450  0.65860  Biso   1.000  C
  H79      1.0000 0.59370  0.81770  0.65380  Biso   1.000  H
  C123     1.0000 0.63680  0.71980  0.62920  Biso   1.000  C
  H80      1.0000 0.65960  0.74090  0.60470  Biso   1.000  H
  C124     1.0000 0.31480  0.88970  0.71310  Biso   1.000  C
  H81      1.0000 0.33910  0.92490  0.69680  Biso   1.000  H
  C125     1.0000 0.21820  0.90410  0.70970  Biso   1.000  C
  H82      1.0000 0.17710  0.94780  0.69110  Biso   1.000  H
  C126     1.0000 0.24510  0.79020  0.75960  Biso   1.000  C
  H83      1.0000 0.22230  0.75450  0.77630  Biso   1.000  H
  C127     1.0000 0.34120  0.77820  0.76130  Biso   1.000  C
  H84      1.0000 0.38370  0.73390  0.77900  Biso   1.000  H
  C128     1.0000 0.07690  0.86900  0.73360  Biso   1.000  C
  C129     1.0000 0.95460  0.84420  0.76500  Biso   1.000  C
  C130     1.0000 0.92550  0.93990  0.70990  Biso   1.000  C
  C131     1.0000 0.98120  0.72980  0.82000  Biso   1.000  C
  H85      1.0000 0.04670  0.71010  0.81350  Biso   1.000  H
  C132     1.0000 0.94690  0.68960  0.85170  Biso   1.000  C
  H86      1.0000 0.98990  0.64190  0.86670  Biso   1.000  H
  C133     1.0000 0.79460  0.78220  0.84020  Biso   1.000  C
  H87      1.0000 0.72940  0.80050  0.84730  Biso   1.000  H
  C134     1.0000 0.82310  0.82560  0.80790  Biso   1.000  C
  H88      1.0000 0.77840  0.87230  0.79290  Biso   1.000  H
  C135     1.0000 0.85490  0.99930  0.67950  Biso   1.000  C
  C136     1.0000 0.75790  0.01520  0.68310  Biso   1.000  C
  H89      1.0000 0.73600  0.98980  0.70640  Biso   1.000  H
  C137     1.0000 0.69270  0.06760  0.65330  Biso   1.000  C
  H90      1.0000 0.62620  0.07860  0.65650  Biso   1.000  H
  C138     1.0000 0.88310  0.03860  0.64540  Biso   1.000  C
  H91      1.0000 0.94900  0.03090  0.64240  Biso   1.000  H
  C139     1.0000 0.81490  0.08920  0.61600  Biso   1.000  C
  H92      1.0000 0.83520  0.11480  0.59240  Biso   1.000  H
  C140     1.0000 0.69630  0.30230  0.54090  Biso   1.000  C
  H93      1.0000 0.71480  0.27510  0.51780  Biso   1.000  H
  C141     1.0000 0.71450  0.37030  0.54090  Biso   1.000  C
  H94      1.0000 0.74620  0.38850  0.51860  Biso   1.000  H
  C142     1.0000 0.68630  0.41090  0.57350  Biso   1.000  C
  C143     1.0000 0.64180  0.38170  0.60570  Biso   1.000  C
  H95      1.0000 0.62210  0.40810  0.62890  Biso   1.000  H
  C144     1.0000 0.62670  0.31370  0.60350  Biso   1.000  C
  H96      1.0000 0.59530  0.29430  0.62560  Biso   1.000  H
  I15      1.0000 0.66572  0.73275  0.94034  Biso   1.000  I
  I16      1.0000 0.55629  0.92896  0.71647  Biso   1.000  I
  I17      1.0000 0.83351  0.29390  0.09997  Biso   1.000  I
  I18      1.0000 0.83868  0.52481  0.87756  Biso   1.000  I
  I19      1.0000 0.73267  0.19582  0.00107  Biso   1.000  I
  I20      1.0000 0.13676  0.79649  0.28797  Biso   1.000  I
  I21      1.0000 0.59232  0.71712  0.80973  Biso   1.000  I
  I22      1.0000 0.45711  0.18828  0.58733  Biso   1.000  I
  I23      1.0000 0.70176  0.11686  0.50572  Biso   1.000  I
  I24      1.0000 0.08063  0.60087  0.36603  Biso   1.000  I
  N25      1.0000 0.30760  0.59110  0.08215  Biso   1.000  N
  N26      1.0000 0.14990  0.65950  0.05396  Biso   1.000  N
  N27      1.0000 0.25250  0.55100  0.02428  Biso   1.000  N
  N28      1.0000 0.57920  0.34860  0.06132  Biso   1.000  N
  N29      1.0000 0.93040  0.62700  0.94974  Biso   1.000  N
  N30      1.0000 0.17000  0.79930  0.17150  Biso   1.000  N
  N31      1.0000 0.88890  0.90280  0.74015  Biso   1.000  N
  N32      1.0000 0.04890  0.82300  0.76258  Biso   1.000  N
  N33      1.0000 0.01860  0.92720  0.70611  Biso   1.000  N
  N34      1.0000 0.72110  0.10360  0.61949  Biso   1.000  N
  N35      1.0000 0.37670  0.82780  0.73835  Biso   1.000  N
  N36      1.0000 0.85520  0.71560  0.86196  Biso   1.000  N
  N37      1.0000 0.59630  0.88660  0.25118  Biso   1.000  N
  N38      1.0000 0.69040  0.96380  0.22988  Biso   1.000  N
  N39      1.0000 0.54640  0.98490  0.19155  Biso   1.000  N
  N40      1.0000 0.27210  0.88970  0.21665  Biso   1.000  N
  N41      1.0000 0.67840  0.17610  0.11325  Biso   1.000  N
  N42      1.0000 0.87010  0.78100  0.35810  Biso   1.000  N
  N43      1.0000 0.74740  0.50830  0.54170  Biso   1.000  N
  N44      1.0000 0.66760  0.52500  0.60464  Biso   1.000  N
  N45      1.0000 0.72410  0.62190  0.57151  Biso   1.000  N
  N46      1.0000 0.90010  0.66390  0.44510  Biso   1.000  N
  N47      1.0000 0.56860  0.73700  0.69465  Biso   1.000  N
  N48      1.0000 0.65390  0.27320  0.57190  Biso   1.000  N
  Zn7      1.0000 0.81527  0.64657  0.90889  Biso   1.000  Zn
  Zn8      1.0000 0.70693  0.25502  0.06783  Biso   1.000  Zn
  Zn9      1.0000 0.14329  0.87087  0.21659  Biso   1.000  Zn
  Zn10     1.0000 0.62883  0.17171  0.57072  Biso   1.000  Zn
  Zn11     1.0000 0.52222  0.80421  0.74121  Biso   1.000  Zn
  Zn12     1.0000 0.97457  0.71100  0.40181  Biso   1.000  Zn
  I25      1.0000 0.02460  0.80410  0.44198  Biso   1.000  I
  I26      1.0000 0.00210  0.99837  0.18846  Biso   1.000  I
  I27      1.0000 0.04240  0.78730  0.43540  Biso   1.000  I
  I28      1.0000 0.02860  0.99280  0.18830  Biso   1.000  I
