data_image0
_cell_length_a       21.866
_cell_length_b       7.6101
_cell_length_c       19.646
_cell_angle_alpha    90
_cell_angle_beta     90
_cell_angle_gamma    90

_symmetry_space_group_name_H-M    "P 1"
_symmetry_int_tables_number       1

loop_
  _symmetry_equiv_pos_as_xyz
  'x, y, z'

loop_
  _atom_site_label
  _atom_site_occupancy
  _atom_site_fract_x
  _atom_site_fract_y
  _atom_site_fract_z
  _atom_site_thermal_displace_type
  _atom_site_B_iso_or_equiv
  _atom_site_type_symbol
  O1       1.0000 0.73898  0.19330  0.12004  Biso   1.000  O
  O2       1.0000 0.63991  0.72420  0.07140  Biso   1.000  O
  O3       1.0000 0.68206  0.99890  0.17106  Biso   1.000  O
  C1       1.0000 0.62970  0.56310  0.06580  Biso   1.000  C
  C2       1.0000 0.70970  0.29680  0.43670  Biso   1.000  C
  C3       1.0000 0.56360  0.50670  0.06910  Biso   1.000  C
  H1       1.0000 0.56130  0.38510  0.08370  Biso   1.000  H
  H2       1.0000 0.54210  0.57800  0.10230  Biso   1.000  H
  C4       1.0000 0.53333  0.52620  0.00000  Biso   1.000  C
  H3       1.0000 0.55510  0.45430  0.96720  Biso   1.000  H
  H4       1.0000 0.53670  0.64760  0.98540  Biso   1.000  H
  C5       1.0000 0.69600  0.43480  0.38370  Biso   1.000  C
  H5       1.0000 0.68310  0.54080  0.40700  Biso   1.000  H
  H6       1.0000 0.73370  0.46200  0.35990  Biso   1.000  H
  C6       1.0000 0.70310  0.15040  0.16890  Biso   1.000  C
  C7       1.0000 0.64830  0.38960  0.33150  Biso   1.000  C
  H7       1.0000 0.63040  0.49300  0.31060  Biso   1.000  H
  H8       1.0000 0.61640  0.31440  0.34960  Biso   1.000  H
  O4       1.0000 0.68082  0.15750  0.43896  Biso   1.000  O
  C8       1.0000 0.69690  0.28000  0.27740  Biso   1.000  C
  C9       1.0000 0.70300  0.28400  0.23280  Biso   1.000  C
  C10      1.0000 0.65380  0.23480  0.28100  Biso   1.000  C
  C11      1.0000 0.67830  0.29200  0.21440  Biso   1.000  C
  Tb1      1.0000 0.71955  0.92517  0.05315  Biso   1.000  Tb
  O5       1.0000 0.66934  0.44640  0.05362  Biso   1.000  O
  O6       1.0000 0.75168  0.32850  0.48062  Biso   1.000  O
  O7       1.0000 0.76102  0.30670  0.62004  Biso   1.000  O
  O8       1.0000 0.86009  0.77580  0.57140  Biso   1.000  O
  O9       1.0000 0.81794  0.50110  0.67106  Biso   1.000  O
  C12      1.0000 0.87030  0.93690  0.56580  Biso   1.000  C
  C13      1.0000 0.79030  0.20320  0.93670  Biso   1.000  C
  C14      1.0000 0.93640  0.99330  0.56910  Biso   1.000  C
  H9       1.0000 0.93870  0.11490  0.58370  Biso   1.000  H
  H10      1.0000 0.95790  0.92200  0.60230  Biso   1.000  H
  C15      1.0000 0.96667  0.97380  0.50000  Biso   1.000  C
  H11      1.0000 0.94490  0.04570  0.46720  Biso   1.000  H
  H12      1.0000 0.96330  0.85240  0.48540  Biso   1.000  H
  C16      1.0000 0.80400  0.06520  0.88370  Biso   1.000  C
  H13      1.0000 0.81690  0.95920  0.90700  Biso   1.000  H
  H14      1.0000 0.76630  0.03800  0.85990  Biso   1.000  H
  C17      1.0000 0.79690  0.34960  0.66890  Biso   1.000  C
  C18      1.0000 0.85170  0.11040  0.83150  Biso   1.000  C
  H15      1.0000 0.86960  0.00700  0.81060  Biso   1.000  H
  H16      1.0000 0.88360  0.18560  0.84960  Biso   1.000  H
  O10      1.0000 0.81918  0.34250  0.93896  Biso   1.000  O
  C19      1.0000 0.80310  0.22000  0.77740  Biso   1.000  C
  C20      1.0000 0.79700  0.21600  0.73280  Biso   1.000  C
  C21      1.0000 0.84620  0.26520  0.78100  Biso   1.000  C
  C22      1.0000 0.82170  0.20800  0.71440  Biso   1.000  C
  Tb2      1.0000 0.78045  0.57483  0.55315  Biso   1.000  Tb
  O11      1.0000 0.83066  0.05360  0.55362  Biso   1.000  O
  O12      1.0000 0.74832  0.17150  0.98062  Biso   1.000  O
  O13      1.0000 0.26102  0.19330  0.37996  Biso   1.000  O
  O14      1.0000 0.36009  0.72420  0.42860  Biso   1.000  O
  O15      1.0000 0.31794  0.99890  0.32894  Biso   1.000  O
  C23      1.0000 0.37030  0.56310  0.43420  Biso   1.000  C
  C24      1.0000 0.29030  0.29680  0.06330  Biso   1.000  C
  C25      1.0000 0.43640  0.50670  0.43090  Biso   1.000  C
  H17      1.0000 0.43870  0.38510  0.41630  Biso   1.000  H
  H18      1.0000 0.45790  0.57800  0.39770  Biso   1.000  H
  C26      1.0000 0.46667  0.52620  0.50000  Biso   1.000  C
  H19      1.0000 0.44490  0.45430  0.53280  Biso   1.000  H
  H20      1.0000 0.46330  0.64760  0.51460  Biso   1.000  H
  C27      1.0000 0.30400  0.43480  0.11630  Biso   1.000  C
  H21      1.0000 0.31690  0.54080  0.09300  Biso   1.000  H
  H22      1.0000 0.26630  0.46200  0.14010  Biso   1.000  H
  C28      1.0000 0.29690  0.15040  0.33110  Biso   1.000  C
  C29      1.0000 0.35170  0.38960  0.16850  Biso   1.000  C
  H23      1.0000 0.36960  0.49300  0.18940  Biso   1.000  H
  H24      1.0000 0.38360  0.31440  0.15040  Biso   1.000  H
  O16      1.0000 0.31918  0.15750  0.06104  Biso   1.000  O
  C30      1.0000 0.30310  0.28000  0.22260  Biso   1.000  C
  C31      1.0000 0.29700  0.28400  0.26720  Biso   1.000  C
  C32      1.0000 0.34620  0.23480  0.21900  Biso   1.000  C
  C33      1.0000 0.32170  0.29200  0.28560  Biso   1.000  C
  Tb3      1.0000 0.28045  0.92517  0.44685  Biso   1.000  Tb
  O17      1.0000 0.33066  0.44640  0.44638  Biso   1.000  O
  O18      1.0000 0.24832  0.32850  0.01938  Biso   1.000  O
  O19      1.0000 0.23898  0.30670  0.87996  Biso   1.000  O
  O20      1.0000 0.13991  0.77580  0.92860  Biso   1.000  O
  O21      1.0000 0.18206  0.50110  0.82894  Biso   1.000  O
  C34      1.0000 0.12970  0.93690  0.93420  Biso   1.000  C
  C35      1.0000 0.20970  0.20320  0.56330  Biso   1.000  C
  C36      1.0000 0.06360  0.99330  0.93090  Biso   1.000  C
  H25      1.0000 0.06130  0.11490  0.91630  Biso   1.000  H
  H26      1.0000 0.04210  0.92200  0.89770  Biso   1.000  H
  C37      1.0000 0.03333  0.97380  0.00000  Biso   1.000  C
  H27      1.0000 0.05510  0.04570  0.03280  Biso   1.000  H
  H28      1.0000 0.03670  0.85240  0.01460  Biso   1.000  H
  C38      1.0000 0.19600  0.06520  0.61630  Biso   1.000  C
  H29      1.0000 0.18310  0.95920  0.59300  Biso   1.000  H
  H30      1.0000 0.23370  0.03800  0.64010  Biso   1.000  H
  C39      1.0000 0.20310  0.34960  0.83110  Biso   1.000  C
  C40      1.0000 0.14830  0.11040  0.66850  Biso   1.000  C
  H31      1.0000 0.13040  0.00700  0.68940  Biso   1.000  H
  H32      1.0000 0.11640  0.18560  0.65040  Biso   1.000  H
  O22      1.0000 0.18082  0.34250  0.56104  Biso   1.000  O
  C41      1.0000 0.19690  0.22000  0.72260  Biso   1.000  C
  C42      1.0000 0.20300  0.21600  0.76720  Biso   1.000  C
  C43      1.0000 0.15380  0.26520  0.71900  Biso   1.000  C
  C44      1.0000 0.17830  0.20800  0.78560  Biso   1.000  C
  Tb4      1.0000 0.21955  0.57483  0.94685  Biso   1.000  Tb
  O23      1.0000 0.16934  0.05360  0.94638  Biso   1.000  O
  O24      1.0000 0.25168  0.17150  0.51938  Biso   1.000  O
  O25      1.0000 0.26102  0.80670  0.87996  Biso   1.000  O
  O26      1.0000 0.36009  0.27580  0.92860  Biso   1.000  O
  O27      1.0000 0.31794  0.00110  0.82894  Biso   1.000  O
  C45      1.0000 0.37030  0.43690  0.93420  Biso   1.000  C
  C46      1.0000 0.29030  0.70320  0.56330  Biso   1.000  C
  C47      1.0000 0.43640  0.49330  0.93090  Biso   1.000  C
  H33      1.0000 0.43870  0.61490  0.91630  Biso   1.000  H
  H34      1.0000 0.45790  0.42200  0.89770  Biso   1.000  H
  C48      1.0000 0.46667  0.47380  0.00000  Biso   1.000  C
  H35      1.0000 0.44490  0.54570  0.03280  Biso   1.000  H
  H36      1.0000 0.46330  0.35240  0.01460  Biso   1.000  H
  C49      1.0000 0.30400  0.56520  0.61630  Biso   1.000  C
  H37      1.0000 0.31690  0.45920  0.59300  Biso   1.000  H
  H38      1.0000 0.26630  0.53800  0.64010  Biso   1.000  H
  C50      1.0000 0.29690  0.84960  0.83110  Biso   1.000  C
  C51      1.0000 0.35170  0.61040  0.66850  Biso   1.000  C
  H39      1.0000 0.36960  0.50700  0.68940  Biso   1.000  H
  H40      1.0000 0.38360  0.68560  0.65040  Biso   1.000  H
  O28      1.0000 0.31918  0.84250  0.56104  Biso   1.000  O
  C52      1.0000 0.30310  0.72000  0.72260  Biso   1.000  C
  C53      1.0000 0.29700  0.71600  0.76720  Biso   1.000  C
  C54      1.0000 0.34620  0.76520  0.71900  Biso   1.000  C
  C55      1.0000 0.32170  0.70800  0.78560  Biso   1.000  C
  Tb5      1.0000 0.28045  0.07483  0.94685  Biso   1.000  Tb
  O29      1.0000 0.33066  0.55360  0.94638  Biso   1.000  O
  O30      1.0000 0.24832  0.67150  0.51938  Biso   1.000  O
  O31      1.0000 0.23898  0.69330  0.37996  Biso   1.000  O
  O32      1.0000 0.13991  0.22420  0.42860  Biso   1.000  O
  O33      1.0000 0.18206  0.49890  0.32894  Biso   1.000  O
  C56      1.0000 0.12970  0.06310  0.43420  Biso   1.000  C
  C57      1.0000 0.20970  0.79680  0.06330  Biso   1.000  C
  C58      1.0000 0.06360  0.00670  0.43090  Biso   1.000  C
  H41      1.0000 0.06130  0.88510  0.41630  Biso   1.000  H
  H42      1.0000 0.04210  0.07800  0.39770  Biso   1.000  H
  C59      1.0000 0.03333  0.02620  0.50000  Biso   1.000  C
  H43      1.0000 0.05510  0.95430  0.53280  Biso   1.000  H
  H44      1.0000 0.03670  0.14760  0.51460  Biso   1.000  H
  C60      1.0000 0.19600  0.93480  0.11630  Biso   1.000  C
  H45      1.0000 0.18310  0.04080  0.09300  Biso   1.000  H
  H46      1.0000 0.23370  0.96200  0.14010  Biso   1.000  H
  C61      1.0000 0.20310  0.65040  0.33110  Biso   1.000  C
  C62      1.0000 0.14830  0.88960  0.16850  Biso   1.000  C
  H47      1.0000 0.13040  0.99300  0.18940  Biso   1.000  H
  H48      1.0000 0.11640  0.81440  0.15040  Biso   1.000  H
  O34      1.0000 0.18082  0.65750  0.06104  Biso   1.000  O
  C63      1.0000 0.19690  0.78000  0.22260  Biso   1.000  C
  C64      1.0000 0.20300  0.78400  0.26720  Biso   1.000  C
  C65      1.0000 0.15380  0.73480  0.21900  Biso   1.000  C
  C66      1.0000 0.17830  0.79200  0.28560  Biso   1.000  C
  Tb6      1.0000 0.21955  0.42517  0.44685  Biso   1.000  Tb
  O35      1.0000 0.16934  0.94640  0.44638  Biso   1.000  O
  O36      1.0000 0.25168  0.82850  0.01938  Biso   1.000  O
  O37      1.0000 0.73898  0.80670  0.62004  Biso   1.000  O
  O38      1.0000 0.63991  0.27580  0.57140  Biso   1.000  O
  O39      1.0000 0.68206  0.00110  0.67106  Biso   1.000  O
  C67      1.0000 0.62970  0.43690  0.56580  Biso   1.000  C
  C68      1.0000 0.70970  0.70320  0.93670  Biso   1.000  C
  C69      1.0000 0.56360  0.49330  0.56910  Biso   1.000  C
  H49      1.0000 0.56130  0.61490  0.58370  Biso   1.000  H
  H50      1.0000 0.54210  0.42200  0.60230  Biso   1.000  H
  C70      1.0000 0.53333  0.47380  0.50000  Biso   1.000  C
  H51      1.0000 0.55510  0.54570  0.46720  Biso   1.000  H
  H52      1.0000 0.53670  0.35240  0.48540  Biso   1.000  H
  C71      1.0000 0.69600  0.56520  0.88370  Biso   1.000  C
  H53      1.0000 0.68310  0.45920  0.90700  Biso   1.000  H
  H54      1.0000 0.73370  0.53800  0.85990  Biso   1.000  H
  C72      1.0000 0.70310  0.84960  0.66890  Biso   1.000  C
  C73      1.0000 0.64830  0.61040  0.83150  Biso   1.000  C
  H55      1.0000 0.63040  0.50700  0.81060  Biso   1.000  H
  H56      1.0000 0.61640  0.68560  0.84960  Biso   1.000  H
  O40      1.0000 0.68082  0.84250  0.93896  Biso   1.000  O
  C74      1.0000 0.69690  0.72000  0.77740  Biso   1.000  C
  C75      1.0000 0.70300  0.71600  0.73280  Biso   1.000  C
  C76      1.0000 0.65380  0.76520  0.78100  Biso   1.000  C
  C77      1.0000 0.67830  0.70800  0.71440  Biso   1.000  C
  Tb7      1.0000 0.71955  0.07483  0.55315  Biso   1.000  Tb
  O41      1.0000 0.66934  0.55360  0.55362  Biso   1.000  O
  O42      1.0000 0.75168  0.67150  0.98062  Biso   1.000  O
  O43      1.0000 0.76102  0.69330  0.12004  Biso   1.000  O
  O44      1.0000 0.86009  0.22420  0.07140  Biso   1.000  O
  O45      1.0000 0.81794  0.49890  0.17106  Biso   1.000  O
  C78      1.0000 0.87030  0.06310  0.06580  Biso   1.000  C
  C79      1.0000 0.79030  0.79680  0.43670  Biso   1.000  C
  C80      1.0000 0.93640  0.00670  0.06910  Biso   1.000  C
  H57      1.0000 0.93870  0.88510  0.08370  Biso   1.000  H
  H58      1.0000 0.95790  0.07800  0.10230  Biso   1.000  H
  C81      1.0000 0.96667  0.02620  0.00000  Biso   1.000  C
  H59      1.0000 0.94490  0.95430  0.96720  Biso   1.000  H
  H60      1.0000 0.96330  0.14760  0.98540  Biso   1.000  H
  C82      1.0000 0.80400  0.93480  0.38370  Biso   1.000  C
  H61      1.0000 0.81690  0.04080  0.40700  Biso   1.000  H
  H62      1.0000 0.76630  0.96200  0.35990  Biso   1.000  H
  C83      1.0000 0.79690  0.65040  0.16890  Biso   1.000  C
  C84      1.0000 0.85170  0.88960  0.33150  Biso   1.000  C
  H63      1.0000 0.86960  0.99300  0.31060  Biso   1.000  H
  H64      1.0000 0.88360  0.81440  0.34960  Biso   1.000  H
  O46      1.0000 0.81918  0.65750  0.43896  Biso   1.000  O
  C85      1.0000 0.80310  0.78000  0.27740  Biso   1.000  C
  C86      1.0000 0.79700  0.78400  0.23280  Biso   1.000  C
  C87      1.0000 0.84620  0.73480  0.28100  Biso   1.000  C
  C88      1.0000 0.82170  0.79200  0.21440  Biso   1.000  C
  Tb8      1.0000 0.78045  0.42517  0.05315  Biso   1.000  Tb
  O47      1.0000 0.83066  0.94640  0.05362  Biso   1.000  O
  O48      1.0000 0.74832  0.82850  0.48062  Biso   1.000  O
