data_image0
_cell_length_a       27.294
_cell_length_b       27.294
_cell_length_c       6.9565
_cell_angle_alpha    90
_cell_angle_beta     90
_cell_angle_gamma    120

_symmetry_space_group_name_H-M    "P 1"
_symmetry_int_tables_number       1

loop_
  _symmetry_equiv_pos_as_xyz
  'x, y, z'

loop_
  _atom_site_label
  _atom_site_occupancy
  _atom_site_fract_x
  _atom_site_fract_y
  _atom_site_fract_z
  _atom_site_thermal_displace_type
  _atom_site_B_iso_or_equiv
  _atom_site_type_symbol
  Er1      1.0000 0.74726  0.34170  0.11645  Biso   1.000  Er
  O1       1.0000 0.78788  0.39840  0.84140  Biso   1.000  O
  O2       1.0000 0.84571  0.39787  0.17850  Biso   1.000  O
  O3       1.0000 0.93860  0.44940  0.16730  Biso   1.000  O
  O4       1.0000 0.75692  0.34114  0.44570  Biso   1.000  O
  H1       1.0000 0.78830  0.34580  0.47930  Biso   1.000  H
  N1       1.0000 0.84315  0.45870  0.61470  Biso   1.000  N
  N2       1.0000 0.93850  0.48740  0.82270  Biso   1.000  N
  C1       1.0000 0.83780  0.43420  0.78970  Biso   1.000  C
  C2       1.0000 0.88800  0.45070  0.89690  Biso   1.000  C
  C3       1.0000 0.94200  0.50950  0.65000  Biso   1.000  C
  H2       1.0000 0.97710  0.53480  0.59830  Biso   1.000  H
  C4       1.0000 0.89340  0.49470  0.54700  Biso   1.000  C
  H3       1.0000 0.89630  0.51070  0.42660  Biso   1.000  H
  C5       1.0000 0.88960  0.43050  0.09540  Biso   1.000  C
  Er2      1.0000 0.41393  0.67504  0.44978  Biso   1.000  Er
  O5       1.0000 0.45455  0.73173  0.17473  Biso   1.000  O
  O6       1.0000 0.51238  0.73120  0.51183  Biso   1.000  O
  O7       1.0000 0.60527  0.78273  0.50063  Biso   1.000  O
  O8       1.0000 0.42359  0.67447  0.77903  Biso   1.000  O
  H4       1.0000 0.45497  0.67913  0.81263  Biso   1.000  H
  N3       1.0000 0.50982  0.79203  0.94803  Biso   1.000  N
  N4       1.0000 0.60517  0.82073  0.15603  Biso   1.000  N
  C6       1.0000 0.50447  0.76753  0.12303  Biso   1.000  C
  C7       1.0000 0.55467  0.78403  0.23023  Biso   1.000  C
  C8       1.0000 0.60867  0.84283  0.98333  Biso   1.000  C
  H5       1.0000 0.64377  0.86813  0.93163  Biso   1.000  H
  C9       1.0000 0.56007  0.82803  0.88033  Biso   1.000  C
  H6       1.0000 0.56297  0.84403  0.75993  Biso   1.000  H
  C10      1.0000 0.55627  0.76383  0.42873  Biso   1.000  C
  Er3      1.0000 0.08060  0.00837  0.78312  Biso   1.000  Er
  O9       1.0000 0.12121  0.06507  0.50807  Biso   1.000  O
  O10      1.0000 0.17904  0.06454  0.84517  Biso   1.000  O
  O11      1.0000 0.27193  0.11607  0.83397  Biso   1.000  O
  O12      1.0000 0.09025  0.00781  0.11237  Biso   1.000  O
  H7       1.0000 0.12163  0.01247  0.14597  Biso   1.000  H
  N5       1.0000 0.17648  0.12537  0.28137  Biso   1.000  N
  N6       1.0000 0.27183  0.15407  0.48937  Biso   1.000  N
  C11      1.0000 0.17113  0.10087  0.45637  Biso   1.000  C
  C12      1.0000 0.22133  0.11737  0.56357  Biso   1.000  C
  C13      1.0000 0.27533  0.17617  0.31667  Biso   1.000  C
  H8       1.0000 0.31043  0.20147  0.26497  Biso   1.000  H
  C14      1.0000 0.22673  0.16137  0.21367  Biso   1.000  C
  H9       1.0000 0.22963  0.17737  0.09327  Biso   1.000  H
  C15      1.0000 0.22293  0.09717  0.76207  Biso   1.000  C
  Er4      1.0000 0.65830  0.40556  0.11645  Biso   1.000  Er
  O13      1.0000 0.60160  0.38948  0.84140  Biso   1.000  O
  O14      1.0000 0.60213  0.44784  0.17850  Biso   1.000  O
  O15      1.0000 0.55060  0.48920  0.16730  Biso   1.000  O
  O16      1.0000 0.65886  0.41578  0.44570  Biso   1.000  O
  H10      1.0000 0.65420  0.44250  0.47930  Biso   1.000  H
  N7       1.0000 0.54130  0.38445  0.61470  Biso   1.000  N
  N8       1.0000 0.51260  0.45110  0.82270  Biso   1.000  N
  C16      1.0000 0.56580  0.40360  0.78970  Biso   1.000  C
  C17      1.0000 0.54930  0.43730  0.89690  Biso   1.000  C
  C18      1.0000 0.49050  0.43250  0.65000  Biso   1.000  C
  H11      1.0000 0.46520  0.44230  0.59830  Biso   1.000  H
  C19      1.0000 0.50530  0.39870  0.54700  Biso   1.000  C
  H12      1.0000 0.48930  0.38560  0.42660  Biso   1.000  H
  C20      1.0000 0.56950  0.45910  0.09540  Biso   1.000  C
  Er5      1.0000 0.32496  0.73889  0.44978  Biso   1.000  Er
  O17      1.0000 0.26827  0.72281  0.17473  Biso   1.000  O
  O18      1.0000 0.26880  0.78117  0.51183  Biso   1.000  O
  O19      1.0000 0.21727  0.82253  0.50063  Biso   1.000  O
  O20      1.0000 0.32553  0.74911  0.77903  Biso   1.000  O
  H13      1.0000 0.32087  0.77583  0.81263  Biso   1.000  H
  N9       1.0000 0.20797  0.71778  0.94803  Biso   1.000  N
  N10      1.0000 0.17927  0.78443  0.15603  Biso   1.000  N
  C21      1.0000 0.23247  0.73693  0.12303  Biso   1.000  C
  C22      1.0000 0.21597  0.77063  0.23023  Biso   1.000  C
  C23      1.0000 0.15717  0.76583  0.98333  Biso   1.000  C
  H14      1.0000 0.13187  0.77563  0.93163  Biso   1.000  H
  C24      1.0000 0.17197  0.73203  0.88033  Biso   1.000  C
  H15      1.0000 0.15597  0.71893  0.75993  Biso   1.000  H
  C25      1.0000 0.23617  0.79243  0.42873  Biso   1.000  C
  Er6      1.0000 0.99163  0.07223  0.78312  Biso   1.000  Er
  O21      1.0000 0.93493  0.05615  0.50807  Biso   1.000  O
  O22      1.0000 0.93546  0.11451  0.84517  Biso   1.000  O
  O23      1.0000 0.88393  0.15587  0.83397  Biso   1.000  O
  O24      1.0000 0.99219  0.08245  0.11237  Biso   1.000  O
  H16      1.0000 0.98753  0.10917  0.14597  Biso   1.000  H
  N11      1.0000 0.87463  0.05112  0.28137  Biso   1.000  N
  N12      1.0000 0.84593  0.11777  0.48937  Biso   1.000  N
  C26      1.0000 0.89913  0.07027  0.45637  Biso   1.000  C
  C27      1.0000 0.88263  0.10397  0.56357  Biso   1.000  C
  C28      1.0000 0.82383  0.09917  0.31667  Biso   1.000  C
  H17      1.0000 0.79853  0.10897  0.26497  Biso   1.000  H
  C29      1.0000 0.83863  0.06537  0.21367  Biso   1.000  C
  H18      1.0000 0.82263  0.05227  0.09327  Biso   1.000  H
  C30      1.0000 0.90283  0.12577  0.76207  Biso   1.000  C
  Er7      1.0000 0.59444  0.25274  0.11645  Biso   1.000  Er
  O25      1.0000 0.61052  0.21212  0.84140  Biso   1.000  O
  O26      1.0000 0.55216  0.15429  0.17850  Biso   1.000  O
  O27      1.0000 0.51080  0.06140  0.16730  Biso   1.000  O
  O28      1.0000 0.58422  0.24308  0.44570  Biso   1.000  O
  H19      1.0000 0.55750  0.21170  0.47930  Biso   1.000  H
  N13      1.0000 0.61555  0.15685  0.61470  Biso   1.000  N
  N14      1.0000 0.54890  0.06150  0.82270  Biso   1.000  N
  C31      1.0000 0.59640  0.16220  0.78970  Biso   1.000  C
  C32      1.0000 0.56270  0.11200  0.89690  Biso   1.000  C
  C33      1.0000 0.56750  0.05800  0.65000  Biso   1.000  C
  H20      1.0000 0.55770  0.02290  0.59830  Biso   1.000  H
  C34      1.0000 0.60130  0.10660  0.54700  Biso   1.000  C
  H21      1.0000 0.61440  0.10370  0.42660  Biso   1.000  H
  C35      1.0000 0.54090  0.11040  0.09540  Biso   1.000  C
  Er8      1.0000 0.26111  0.58607  0.44978  Biso   1.000  Er
  O29      1.0000 0.27719  0.54545  0.17473  Biso   1.000  O
  O30      1.0000 0.21883  0.48762  0.51183  Biso   1.000  O
  O31      1.0000 0.17747  0.39473  0.50063  Biso   1.000  O
  O32      1.0000 0.25089  0.57641  0.77903  Biso   1.000  O
  H22      1.0000 0.22417  0.54503  0.81263  Biso   1.000  H
  N15      1.0000 0.28222  0.49018  0.94803  Biso   1.000  N
  N16      1.0000 0.21557  0.39483  0.15603  Biso   1.000  N
  C36      1.0000 0.26307  0.49553  0.12303  Biso   1.000  C
  C37      1.0000 0.22937  0.44533  0.23023  Biso   1.000  C
  C38      1.0000 0.23417  0.39133  0.98333  Biso   1.000  C
  H23      1.0000 0.22437  0.35623  0.93163  Biso   1.000  H
  C39      1.0000 0.26797  0.43993  0.88033  Biso   1.000  C
  H24      1.0000 0.28107  0.43703  0.75993  Biso   1.000  H
  C40      1.0000 0.20757  0.44373  0.42873  Biso   1.000  C
  Er9      1.0000 0.92777  0.91940  0.78312  Biso   1.000  Er
  O33      1.0000 0.94385  0.87879  0.50807  Biso   1.000  O
  O34      1.0000 0.88549  0.82096  0.84517  Biso   1.000  O
  O35      1.0000 0.84413  0.72807  0.83397  Biso   1.000  O
  O36      1.0000 0.91755  0.90975  0.11237  Biso   1.000  O
  H25      1.0000 0.89083  0.87837  0.14597  Biso   1.000  H
  N17      1.0000 0.94888  0.82352  0.28137  Biso   1.000  N
  N18      1.0000 0.88223  0.72817  0.48937  Biso   1.000  N
  C41      1.0000 0.92973  0.82887  0.45637  Biso   1.000  C
  C42      1.0000 0.89603  0.77867  0.56357  Biso   1.000  C
  C43      1.0000 0.90083  0.72467  0.31667  Biso   1.000  C
  H26      1.0000 0.89103  0.68957  0.26497  Biso   1.000  H
  C44      1.0000 0.93463  0.77327  0.21367  Biso   1.000  C
  H27      1.0000 0.94773  0.77037  0.09327  Biso   1.000  H
  C45      1.0000 0.87423  0.77707  0.76207  Biso   1.000  C
  Er10     1.0000 0.25274  0.65830  0.88355  Biso   1.000  Er
  O37      1.0000 0.21212  0.60160  0.15860  Biso   1.000  O
  O38      1.0000 0.15429  0.60213  0.82150  Biso   1.000  O
  O39      1.0000 0.06140  0.55060  0.83270  Biso   1.000  O
  O40      1.0000 0.24308  0.65886  0.55430  Biso   1.000  O
  H28      1.0000 0.21170  0.65420  0.52070  Biso   1.000  H
  N19      1.0000 0.15685  0.54130  0.38530  Biso   1.000  N
  N20      1.0000 0.06150  0.51260  0.17730  Biso   1.000  N
  C46      1.0000 0.16220  0.56580  0.21030  Biso   1.000  C
  C47      1.0000 0.11200  0.54930  0.10310  Biso   1.000  C
  C48      1.0000 0.05800  0.49050  0.35000  Biso   1.000  C
  H29      1.0000 0.02290  0.46520  0.40170  Biso   1.000  H
  C49      1.0000 0.10660  0.50530  0.45300  Biso   1.000  C
  H30      1.0000 0.10370  0.48930  0.57340  Biso   1.000  H
  C50      1.0000 0.11040  0.56950  0.90460  Biso   1.000  C
  Er11     1.0000 0.91940  0.99163  0.21688  Biso   1.000  Er
  O41      1.0000 0.87879  0.93493  0.49193  Biso   1.000  O
  O42      1.0000 0.82096  0.93546  0.15483  Biso   1.000  O
  O43      1.0000 0.72807  0.88393  0.16603  Biso   1.000  O
  O44      1.0000 0.90975  0.99219  0.88763  Biso   1.000  O
  H31      1.0000 0.87837  0.98753  0.85403  Biso   1.000  H
  N21      1.0000 0.82352  0.87463  0.71863  Biso   1.000  N
  N22      1.0000 0.72817  0.84593  0.51063  Biso   1.000  N
  C51      1.0000 0.82887  0.89913  0.54363  Biso   1.000  C
  C52      1.0000 0.77867  0.88263  0.43643  Biso   1.000  C
  C53      1.0000 0.72467  0.82383  0.68333  Biso   1.000  C
  H32      1.0000 0.68957  0.79853  0.73503  Biso   1.000  H
  C54      1.0000 0.77327  0.83863  0.78633  Biso   1.000  C
  H33      1.0000 0.77037  0.82263  0.90673  Biso   1.000  H
  C55      1.0000 0.77707  0.90283  0.23793  Biso   1.000  C
  Er12     1.0000 0.58607  0.32496  0.55022  Biso   1.000  Er
  O45      1.0000 0.54545  0.26827  0.82527  Biso   1.000  O
  O46      1.0000 0.48762  0.26880  0.48817  Biso   1.000  O
  O47      1.0000 0.39473  0.21727  0.49937  Biso   1.000  O
  O48      1.0000 0.57641  0.32553  0.22097  Biso   1.000  O
  H34      1.0000 0.54503  0.32087  0.18737  Biso   1.000  H
  N23      1.0000 0.49018  0.20797  0.05197  Biso   1.000  N
  N24      1.0000 0.39483  0.17927  0.84397  Biso   1.000  N
  C56      1.0000 0.49553  0.23247  0.87697  Biso   1.000  C
  C57      1.0000 0.44533  0.21597  0.76977  Biso   1.000  C
  C58      1.0000 0.39133  0.15717  0.01667  Biso   1.000  C
  H35      1.0000 0.35623  0.13187  0.06837  Biso   1.000  H
  C59      1.0000 0.43993  0.17197  0.11967  Biso   1.000  C
  H36      1.0000 0.43703  0.15597  0.24007  Biso   1.000  H
  C60      1.0000 0.44373  0.23617  0.57127  Biso   1.000  C
  Er13     1.0000 0.34170  0.59444  0.88355  Biso   1.000  Er
  O49      1.0000 0.39840  0.61052  0.15860  Biso   1.000  O
  O50      1.0000 0.39787  0.55216  0.82150  Biso   1.000  O
  O51      1.0000 0.44940  0.51080  0.83270  Biso   1.000  O
  O52      1.0000 0.34114  0.58422  0.55430  Biso   1.000  O
  H37      1.0000 0.34580  0.55750  0.52070  Biso   1.000  H
  N25      1.0000 0.45870  0.61555  0.38530  Biso   1.000  N
  N26      1.0000 0.48740  0.54890  0.17730  Biso   1.000  N
  C61      1.0000 0.43420  0.59640  0.21030  Biso   1.000  C
  C62      1.0000 0.45070  0.56270  0.10310  Biso   1.000  C
  C63      1.0000 0.50950  0.56750  0.35000  Biso   1.000  C
  H38      1.0000 0.53480  0.55770  0.40170  Biso   1.000  H
  C64      1.0000 0.49470  0.60130  0.45300  Biso   1.000  C
  H39      1.0000 0.51070  0.61440  0.57340  Biso   1.000  H
  C65      1.0000 0.43050  0.54090  0.90460  Biso   1.000  C
  Er14     1.0000 0.00837  0.92777  0.21688  Biso   1.000  Er
  O53      1.0000 0.06507  0.94385  0.49193  Biso   1.000  O
  O54      1.0000 0.06454  0.88549  0.15483  Biso   1.000  O
  O55      1.0000 0.11607  0.84413  0.16603  Biso   1.000  O
  O56      1.0000 0.00781  0.91755  0.88763  Biso   1.000  O
  H40      1.0000 0.01247  0.89083  0.85403  Biso   1.000  H
  N27      1.0000 0.12537  0.94888  0.71863  Biso   1.000  N
  N28      1.0000 0.15407  0.88223  0.51063  Biso   1.000  N
  C66      1.0000 0.10087  0.92973  0.54363  Biso   1.000  C
  C67      1.0000 0.11737  0.89603  0.43643  Biso   1.000  C
  C68      1.0000 0.17617  0.90083  0.68333  Biso   1.000  C
  H41      1.0000 0.20147  0.89103  0.73503  Biso   1.000  H
  C69      1.0000 0.16137  0.93463  0.78633  Biso   1.000  C
  H42      1.0000 0.17737  0.94773  0.90673  Biso   1.000  H
  C70      1.0000 0.09717  0.87423  0.23793  Biso   1.000  C
  Er15     1.0000 0.67504  0.26111  0.55022  Biso   1.000  Er
  O57      1.0000 0.73173  0.27719  0.82527  Biso   1.000  O
  O58      1.0000 0.73120  0.21883  0.48817  Biso   1.000  O
  O59      1.0000 0.78273  0.17747  0.49937  Biso   1.000  O
  O60      1.0000 0.67447  0.25089  0.22097  Biso   1.000  O
  H43      1.0000 0.67913  0.22417  0.18737  Biso   1.000  H
  N29      1.0000 0.79203  0.28222  0.05197  Biso   1.000  N
  N30      1.0000 0.82073  0.21557  0.84397  Biso   1.000  N
  C71      1.0000 0.76753  0.26307  0.87697  Biso   1.000  C
  C72      1.0000 0.78403  0.22937  0.76977  Biso   1.000  C
  C73      1.0000 0.84283  0.23417  0.01667  Biso   1.000  C
  H44      1.0000 0.86813  0.22437  0.06837  Biso   1.000  H
  C74      1.0000 0.82803  0.26797  0.11967  Biso   1.000  C
  H45      1.0000 0.84403  0.28107  0.24007  Biso   1.000  H
  C75      1.0000 0.76383  0.20757  0.57127  Biso   1.000  C
  Er16     1.0000 0.40556  0.74726  0.88355  Biso   1.000  Er
  O61      1.0000 0.38948  0.78788  0.15860  Biso   1.000  O
  O62      1.0000 0.44784  0.84571  0.82150  Biso   1.000  O
  O63      1.0000 0.48920  0.93860  0.83270  Biso   1.000  O
  O64      1.0000 0.41578  0.75692  0.55430  Biso   1.000  O
  H46      1.0000 0.44250  0.78830  0.52070  Biso   1.000  H
  N31      1.0000 0.38445  0.84315  0.38530  Biso   1.000  N
  N32      1.0000 0.45110  0.93850  0.17730  Biso   1.000  N
  C76      1.0000 0.40360  0.83780  0.21030  Biso   1.000  C
  C77      1.0000 0.43730  0.88800  0.10310  Biso   1.000  C
  C78      1.0000 0.43250  0.94200  0.35000  Biso   1.000  C
  H47      1.0000 0.44230  0.97710  0.40170  Biso   1.000  H
  C79      1.0000 0.39870  0.89340  0.45300  Biso   1.000  C
  H48      1.0000 0.38560  0.89630  0.57340  Biso   1.000  H
  C80      1.0000 0.45910  0.88960  0.90460  Biso   1.000  C
  Er17     1.0000 0.07223  0.08060  0.21688  Biso   1.000  Er
  O65      1.0000 0.05615  0.12121  0.49193  Biso   1.000  O
  O66      1.0000 0.11451  0.17904  0.15483  Biso   1.000  O
  O67      1.0000 0.15587  0.27193  0.16603  Biso   1.000  O
  O68      1.0000 0.08245  0.09025  0.88763  Biso   1.000  O
  H49      1.0000 0.10917  0.12163  0.85403  Biso   1.000  H
  N33      1.0000 0.05112  0.17648  0.71863  Biso   1.000  N
  N34      1.0000 0.11777  0.27183  0.51063  Biso   1.000  N
  C81      1.0000 0.07027  0.17113  0.54363  Biso   1.000  C
  C82      1.0000 0.10397  0.22133  0.43643  Biso   1.000  C
  C83      1.0000 0.09917  0.27533  0.68333  Biso   1.000  C
  H50      1.0000 0.10897  0.31043  0.73503  Biso   1.000  H
  C84      1.0000 0.06537  0.22673  0.78633  Biso   1.000  C
  H51      1.0000 0.05227  0.22963  0.90673  Biso   1.000  H
  C85      1.0000 0.12577  0.22293  0.23793  Biso   1.000  C
  Er18     1.0000 0.73889  0.41393  0.55022  Biso   1.000  Er
  O69      1.0000 0.72281  0.45455  0.82527  Biso   1.000  O
  O70      1.0000 0.78117  0.51238  0.48817  Biso   1.000  O
  O71      1.0000 0.82253  0.60527  0.49937  Biso   1.000  O
  O72      1.0000 0.74911  0.42359  0.22097  Biso   1.000  O
  H52      1.0000 0.77583  0.45497  0.18737  Biso   1.000  H
  N35      1.0000 0.71778  0.50982  0.05197  Biso   1.000  N
  N36      1.0000 0.78443  0.60517  0.84397  Biso   1.000  N
  C86      1.0000 0.73693  0.50447  0.87697  Biso   1.000  C
  C87      1.0000 0.77063  0.55467  0.76977  Biso   1.000  C
  C88      1.0000 0.76583  0.60867  0.01667  Biso   1.000  C
  H53      1.0000 0.77563  0.64377  0.06837  Biso   1.000  H
  C89      1.0000 0.73203  0.56007  0.11967  Biso   1.000  C
  H54      1.0000 0.71893  0.56297  0.24007  Biso   1.000  H
  C90      1.0000 0.79243  0.55627  0.57127  Biso   1.000  C
  Cu1      1.0000 0.00000  0.50000  0.00000  Biso   1.000  Cu
  Cu2      1.0000 0.66667  0.83333  0.33333  Biso   1.000  Cu
  Cu3      1.0000 0.33333  0.16667  0.66667  Biso   1.000  Cu
  Cu4      1.0000 0.50000  0.50000  0.00000  Biso   1.000  Cu
  Cu5      1.0000 0.16667  0.83333  0.33333  Biso   1.000  Cu
  Cu6      1.0000 0.83333  0.16667  0.66667  Biso   1.000  Cu
  Cu7      1.0000 0.50000  0.00000  0.00000  Biso   1.000  Cu
  Cu8      1.0000 0.16667  0.33333  0.33333  Biso   1.000  Cu
  Cu9      1.0000 0.83333  0.66667  0.66667  Biso   1.000  Cu
  O73      1.0000 0.66667  0.33333  0.33333  Biso   1.000  O
  O74      1.0000 0.33333  0.66667  0.66667  Biso   1.000  O
  O75      1.0000 0.00000  0.00000  0.00000  Biso   1.000  O
  O76      1.0000 0.66667  0.33333  0.01590  Biso   1.000  O
  H55      1.0000 0.66667  0.33333  0.89370  Biso   1.000  H
  O77      1.0000 0.33333  0.66667  0.34923  Biso   1.000  O
  H56      1.0000 0.33333  0.66667  0.22703  Biso   1.000  H
  O78      1.0000 0.00000  0.00000  0.68257  Biso   1.000  O
  H57      1.0000 0.00000  0.00000  0.56037  Biso   1.000  H
  O79      1.0000 0.33333  0.66667  0.98410  Biso   1.000  O
  H58      1.0000 0.33333  0.66667  0.10630  Biso   1.000  H
  O80      1.0000 0.00000  0.00000  0.31743  Biso   1.000  O
  H59      1.0000 0.00000  0.00000  0.43963  Biso   1.000  H
  O81      1.0000 0.66667  0.33333  0.65077  Biso   1.000  O
  H60      1.0000 0.66667  0.33333  0.77297  Biso   1.000  H
