data_image0
_cell_length_a       22.11
_cell_length_b       13.6595
_cell_length_c       15.0436
_cell_angle_alpha    90
_cell_angle_beta     116.019
_cell_angle_gamma    90

_symmetry_space_group_name_H-M    "P 1"
_symmetry_int_tables_number       1

loop_
  _symmetry_equiv_pos_as_xyz
  'x, y, z'

loop_
  _atom_site_label
  _atom_site_occupancy
  _atom_site_fract_x
  _atom_site_fract_y
  _atom_site_fract_z
  _atom_site_thermal_displace_type
  _atom_site_B_iso_or_equiv
  _atom_site_type_symbol
  Se1      1.0000 0.24531  0.10289  0.93130  Biso   1.000  Se
  C1       1.0000 0.22730  0.97520  0.93990  Biso   1.000  C
  N1       1.0000 0.17540  0.68530  0.85900  Biso   1.000  N
  N2       1.0000 0.32260  0.75270  0.93450  Biso   1.000  N
  N3       1.0000 0.21860  0.89180  0.94340  Biso   1.000  N
  C2       1.0000 0.19540  0.60810  0.82410  Biso   1.000  C
  H1       1.0000 0.23990  0.58410  0.86100  Biso   1.000  H
  C3       1.0000 0.15460  0.56190  0.73700  Biso   1.000  C
  H2       1.0000 0.17070  0.50750  0.71430  Biso   1.000  H
  C4       1.0000 0.07020  0.67810  0.71440  Biso   1.000  C
  H3       1.0000 0.02720  0.70670  0.67690  Biso   1.000  H
  C5       1.0000 0.11480  0.72110  0.80390  Biso   1.000  C
  H4       1.0000 0.10080  0.77830  0.82580  Biso   1.000  H
  C6       1.0000 0.08770  0.59720  0.68130  Biso   1.000  C
  C7       1.0000 0.04260  0.54770  0.58790  Biso   1.000  C
  C8       1.0000 0.06730  0.51560  0.52140  Biso   1.000  C
  H5       1.0000 0.11290  0.52780  0.53550  Biso   1.000  H
  C9       1.0000 0.97400  0.53370  0.56490  Biso   1.000  C
  H6       1.0000 0.95620  0.55780  0.60790  Biso   1.000  H
  C10      1.0000 0.43130  0.76040  0.69370  Biso   1.000  C
  H7       1.0000 0.38410  0.76100  0.65360  Biso   1.000  H
  C11      1.0000 0.52490  0.76160  0.85040  Biso   1.000  C
  H8       1.0000 0.54310  0.76450  0.92050  Biso   1.000  H
  C12      1.0000 0.45650  0.75860  0.79590  Biso   1.000  C
  C13      1.0000 0.30400  0.79710  0.84420  Biso   1.000  C
  H9       1.0000 0.26110  0.82750  0.81290  Biso   1.000  H
  C14      1.0000 0.34580  0.79890  0.79730  Biso   1.000  C
  H10      1.0000 0.33080  0.82850  0.73400  Biso   1.000  H
  C15      1.0000 0.42710  0.71610  0.93440  Biso   1.000  C
  H11      1.0000 0.47040  0.68800  0.96950  Biso   1.000  H
  C16      1.0000 0.38270  0.71500  0.97590  Biso   1.000  C
  H12      1.0000 0.39680  0.68490  0.03870  Biso   1.000  H
  C17      1.0000 0.40990  0.75710  0.84330  Biso   1.000  C
  C18      1.0000 0.14540  0.59440  0.85770  Biso   1.000  C
  H13      1.0000 0.15550  0.56230  0.91860  Biso   1.000  H
  C19      1.0000 0.10220  0.55090  0.77150  Biso   1.000  C
  H14      1.0000 0.08200  0.48980  0.77270  Biso   1.000  H
  C20      1.0000 0.11860  0.68200  0.68820  Biso   1.000  C
  H15      1.0000 0.11010  0.71640  0.62890  Biso   1.000  H
  C21      1.0000 0.16090  0.72200  0.77390  Biso   1.000  C
  H16      1.0000 0.18190  0.78200  0.77160  Biso   1.000  H
  C22      1.0000 0.37420  0.81100  0.95800  Biso   1.000  C
  H17      1.0000 0.38320  0.85530  0.01070  Biso   1.000  H
  C23      1.0000 0.41620  0.81400  0.91400  Biso   1.000  C
  H18      1.0000 0.45160  0.86120  0.93610  Biso   1.000  H
  C24      1.0000 0.37400  0.66700  0.83600  Biso   1.000  C
  H19      1.0000 0.38050  0.60980  0.80510  Biso   1.000  H
  C25      1.0000 0.32680  0.66900  0.88100  Biso   1.000  C
  H20      1.0000 0.29870  0.61390  0.87370  Biso   1.000  H
  C26      1.0000 0.21580  0.96350  0.90330  Biso   1.000  C
  Se2      1.0000 0.21290  0.07820  0.84820  Biso   1.000  Se
  Se3      1.0000 0.74531  0.60289  0.93130  Biso   1.000  Se
  C27      1.0000 0.72730  0.47520  0.93990  Biso   1.000  C
  N4       1.0000 0.67540  0.18530  0.85900  Biso   1.000  N
  N5       1.0000 0.82260  0.25270  0.93450  Biso   1.000  N
  N6       1.0000 0.71860  0.39180  0.94340  Biso   1.000  N
  C28      1.0000 0.69540  0.10810  0.82410  Biso   1.000  C
  H21      1.0000 0.73990  0.08410  0.86100  Biso   1.000  H
  C29      1.0000 0.65460  0.06190  0.73700  Biso   1.000  C
  H22      1.0000 0.67070  0.00750  0.71430  Biso   1.000  H
  C30      1.0000 0.57020  0.17810  0.71440  Biso   1.000  C
  H23      1.0000 0.52720  0.20670  0.67690  Biso   1.000  H
  C31      1.0000 0.61480  0.22110  0.80390  Biso   1.000  C
  H24      1.0000 0.60080  0.27830  0.82580  Biso   1.000  H
  C32      1.0000 0.58770  0.09720  0.68130  Biso   1.000  C
  C33      1.0000 0.54260  0.04770  0.58790  Biso   1.000  C
  C34      1.0000 0.56730  0.01560  0.52140  Biso   1.000  C
  H25      1.0000 0.61290  0.02780  0.53550  Biso   1.000  H
  C35      1.0000 0.47400  0.03370  0.56490  Biso   1.000  C
  H26      1.0000 0.45620  0.05780  0.60790  Biso   1.000  H
  C36      1.0000 0.93130  0.26040  0.69370  Biso   1.000  C
  H27      1.0000 0.88410  0.26100  0.65360  Biso   1.000  H
  C37      1.0000 0.02490  0.26160  0.85040  Biso   1.000  C
  H28      1.0000 0.04310  0.26450  0.92050  Biso   1.000  H
  C38      1.0000 0.95650  0.25860  0.79590  Biso   1.000  C
  C39      1.0000 0.80400  0.29710  0.84420  Biso   1.000  C
  H29      1.0000 0.76110  0.32750  0.81290  Biso   1.000  H
  C40      1.0000 0.84580  0.29890  0.79730  Biso   1.000  C
  H30      1.0000 0.83080  0.32850  0.73400  Biso   1.000  H
  C41      1.0000 0.92710  0.21610  0.93440  Biso   1.000  C
  H31      1.0000 0.97040  0.18800  0.96950  Biso   1.000  H
  C42      1.0000 0.88270  0.21500  0.97590  Biso   1.000  C
  H32      1.0000 0.89680  0.18490  0.03870  Biso   1.000  H
  C43      1.0000 0.90990  0.25710  0.84330  Biso   1.000  C
  C44      1.0000 0.64540  0.09440  0.85770  Biso   1.000  C
  H33      1.0000 0.65550  0.06230  0.91860  Biso   1.000  H
  C45      1.0000 0.60220  0.05090  0.77150  Biso   1.000  C
  H34      1.0000 0.58200  0.98980  0.77270  Biso   1.000  H
  C46      1.0000 0.61860  0.18200  0.68820  Biso   1.000  C
  H35      1.0000 0.61010  0.21640  0.62890  Biso   1.000  H
  C47      1.0000 0.66090  0.22200  0.77390  Biso   1.000  C
  H36      1.0000 0.68190  0.28200  0.77160  Biso   1.000  H
  C48      1.0000 0.87420  0.31100  0.95800  Biso   1.000  C
  H37      1.0000 0.88320  0.35530  0.01070  Biso   1.000  H
  C49      1.0000 0.91620  0.31400  0.91400  Biso   1.000  C
  H38      1.0000 0.95160  0.36120  0.93610  Biso   1.000  H
  C50      1.0000 0.87400  0.16700  0.83600  Biso   1.000  C
  H39      1.0000 0.88050  0.10980  0.80510  Biso   1.000  H
  C51      1.0000 0.82680  0.16900  0.88100  Biso   1.000  C
  H40      1.0000 0.79870  0.11390  0.87370  Biso   1.000  H
  C52      1.0000 0.71580  0.46350  0.90330  Biso   1.000  C
  Se4      1.0000 0.71290  0.57820  0.84820  Biso   1.000  Se
  Se5      1.0000 0.75469  0.10289  0.56870  Biso   1.000  Se
  C53      1.0000 0.77270  0.97520  0.56010  Biso   1.000  C
  N7       1.0000 0.82460  0.68530  0.64100  Biso   1.000  N
  N8       1.0000 0.67740  0.75270  0.56550  Biso   1.000  N
  N9       1.0000 0.78140  0.89180  0.55660  Biso   1.000  N
  C54      1.0000 0.80460  0.60810  0.67590  Biso   1.000  C
  H41      1.0000 0.76010  0.58410  0.63900  Biso   1.000  H
  C55      1.0000 0.84540  0.56190  0.76300  Biso   1.000  C
  H42      1.0000 0.82930  0.50750  0.78570  Biso   1.000  H
  C56      1.0000 0.92980  0.67810  0.78560  Biso   1.000  C
  H43      1.0000 0.97280  0.70670  0.82310  Biso   1.000  H
  C57      1.0000 0.88520  0.72110  0.69610  Biso   1.000  C
  H44      1.0000 0.89920  0.77830  0.67420  Biso   1.000  H
  C58      1.0000 0.91230  0.59720  0.81870  Biso   1.000  C
  C59      1.0000 0.95740  0.54770  0.91210  Biso   1.000  C
  C60      1.0000 0.93270  0.51560  0.97860  Biso   1.000  C
  H45      1.0000 0.88710  0.52780  0.96450  Biso   1.000  H
  C61      1.0000 0.02600  0.53370  0.93510  Biso   1.000  C
  H46      1.0000 0.04380  0.55780  0.89210  Biso   1.000  H
  C62      1.0000 0.56870  0.76040  0.80630  Biso   1.000  C
  H47      1.0000 0.61590  0.76100  0.84640  Biso   1.000  H
  C63      1.0000 0.47510  0.76160  0.64960  Biso   1.000  C
  H48      1.0000 0.45690  0.76450  0.57950  Biso   1.000  H
  C64      1.0000 0.54350  0.75860  0.70410  Biso   1.000  C
  C65      1.0000 0.69600  0.79710  0.65580  Biso   1.000  C
  H49      1.0000 0.73890  0.82750  0.68710  Biso   1.000  H
  C66      1.0000 0.65420  0.79890  0.70270  Biso   1.000  C
  H50      1.0000 0.66920  0.82850  0.76600  Biso   1.000  H
  C67      1.0000 0.57290  0.71610  0.56560  Biso   1.000  C
  H51      1.0000 0.52960  0.68800  0.53050  Biso   1.000  H
  C68      1.0000 0.61730  0.71500  0.52410  Biso   1.000  C
  H52      1.0000 0.60320  0.68490  0.46130  Biso   1.000  H
  C69      1.0000 0.59010  0.75710  0.65670  Biso   1.000  C
  C70      1.0000 0.85460  0.59440  0.64230  Biso   1.000  C
  H53      1.0000 0.84450  0.56230  0.58140  Biso   1.000  H
  C71      1.0000 0.89780  0.55090  0.72850  Biso   1.000  C
  H54      1.0000 0.91800  0.48980  0.72730  Biso   1.000  H
  C72      1.0000 0.88140  0.68200  0.81180  Biso   1.000  C
  H55      1.0000 0.88990  0.71640  0.87110  Biso   1.000  H
  C73      1.0000 0.83910  0.72200  0.72610  Biso   1.000  C
  H56      1.0000 0.81810  0.78200  0.72840  Biso   1.000  H
  C74      1.0000 0.62580  0.81100  0.54200  Biso   1.000  C
  H57      1.0000 0.61680  0.85530  0.48930  Biso   1.000  H
  C75      1.0000 0.58380  0.81400  0.58600  Biso   1.000  C
  H58      1.0000 0.54840  0.86120  0.56390  Biso   1.000  H
  C76      1.0000 0.62600  0.66700  0.66400  Biso   1.000  C
  H59      1.0000 0.61950  0.60980  0.69490  Biso   1.000  H
  C77      1.0000 0.67320  0.66900  0.61900  Biso   1.000  C
  H60      1.0000 0.70130  0.61390  0.62630  Biso   1.000  H
  C78      1.0000 0.78420  0.96350  0.59670  Biso   1.000  C
  Se6      1.0000 0.78710  0.07820  0.65180  Biso   1.000  Se
  Se7      1.0000 0.25469  0.60289  0.56870  Biso   1.000  Se
  C79      1.0000 0.27270  0.47520  0.56010  Biso   1.000  C
  N10      1.0000 0.32460  0.18530  0.64100  Biso   1.000  N
  N11      1.0000 0.17740  0.25270  0.56550  Biso   1.000  N
  N12      1.0000 0.28140  0.39180  0.55660  Biso   1.000  N
  C80      1.0000 0.30460  0.10810  0.67590  Biso   1.000  C
  H61      1.0000 0.26010  0.08410  0.63900  Biso   1.000  H
  C81      1.0000 0.34540  0.06190  0.76300  Biso   1.000  C
  H62      1.0000 0.32930  0.00750  0.78570  Biso   1.000  H
  C82      1.0000 0.42980  0.17810  0.78560  Biso   1.000  C
  H63      1.0000 0.47280  0.20670  0.82310  Biso   1.000  H
  C83      1.0000 0.38520  0.22110  0.69610  Biso   1.000  C
  H64      1.0000 0.39920  0.27830  0.67420  Biso   1.000  H
  C84      1.0000 0.41230  0.09720  0.81870  Biso   1.000  C
  C85      1.0000 0.45740  0.04770  0.91210  Biso   1.000  C
  C86      1.0000 0.43270  0.01560  0.97860  Biso   1.000  C
  H65      1.0000 0.38710  0.02780  0.96450  Biso   1.000  H
  C87      1.0000 0.52600  0.03370  0.93510  Biso   1.000  C
  H66      1.0000 0.54380  0.05780  0.89210  Biso   1.000  H
  C88      1.0000 0.06870  0.26040  0.80630  Biso   1.000  C
  H67      1.0000 0.11590  0.26100  0.84640  Biso   1.000  H
  C89      1.0000 0.97510  0.26160  0.64960  Biso   1.000  C
  H68      1.0000 0.95690  0.26450  0.57950  Biso   1.000  H
  C90      1.0000 0.04350  0.25860  0.70410  Biso   1.000  C
  C91      1.0000 0.19600  0.29710  0.65580  Biso   1.000  C
  H69      1.0000 0.23890  0.32750  0.68710  Biso   1.000  H
  C92      1.0000 0.15420  0.29890  0.70270  Biso   1.000  C
  H70      1.0000 0.16920  0.32850  0.76600  Biso   1.000  H
  C93      1.0000 0.07290  0.21610  0.56560  Biso   1.000  C
  H71      1.0000 0.02960  0.18800  0.53050  Biso   1.000  H
  C94      1.0000 0.11730  0.21500  0.52410  Biso   1.000  C
  H72      1.0000 0.10320  0.18490  0.46130  Biso   1.000  H
  C95      1.0000 0.09010  0.25710  0.65670  Biso   1.000  C
  C96      1.0000 0.35460  0.09440  0.64230  Biso   1.000  C
  H73      1.0000 0.34450  0.06230  0.58140  Biso   1.000  H
  C97      1.0000 0.39780  0.05090  0.72850  Biso   1.000  C
  H74      1.0000 0.41800  0.98980  0.72730  Biso   1.000  H
  C98      1.0000 0.38140  0.18200  0.81180  Biso   1.000  C
  H75      1.0000 0.38990  0.21640  0.87110  Biso   1.000  H
  C99      1.0000 0.33910  0.22200  0.72610  Biso   1.000  C
  H76      1.0000 0.31810  0.28200  0.72840  Biso   1.000  H
  C100     1.0000 0.12580  0.31100  0.54200  Biso   1.000  C
  H77      1.0000 0.11680  0.35530  0.48930  Biso   1.000  H
  C101     1.0000 0.08380  0.31400  0.58600  Biso   1.000  C
  H78      1.0000 0.04840  0.36120  0.56390  Biso   1.000  H
  C102     1.0000 0.12600  0.16700  0.66400  Biso   1.000  C
  H79      1.0000 0.11950  0.10980  0.69490  Biso   1.000  H
  C103     1.0000 0.17320  0.16900  0.61900  Biso   1.000  C
  H80      1.0000 0.20130  0.11390  0.62630  Biso   1.000  H
  C104     1.0000 0.28420  0.46350  0.59670  Biso   1.000  C
  Se8      1.0000 0.28710  0.57820  0.65180  Biso   1.000  Se
  Se9      1.0000 0.75469  0.89711  0.06870  Biso   1.000  Se
  C105     1.0000 0.77270  0.02480  0.06010  Biso   1.000  C
  N13      1.0000 0.82460  0.31470  0.14100  Biso   1.000  N
  N14      1.0000 0.67740  0.24730  0.06550  Biso   1.000  N
  N15      1.0000 0.78140  0.10820  0.05660  Biso   1.000  N
  C106     1.0000 0.80460  0.39190  0.17590  Biso   1.000  C
  H81      1.0000 0.76010  0.41590  0.13900  Biso   1.000  H
  C107     1.0000 0.84540  0.43810  0.26300  Biso   1.000  C
  H82      1.0000 0.82930  0.49250  0.28570  Biso   1.000  H
  C108     1.0000 0.92980  0.32190  0.28560  Biso   1.000  C
  H83      1.0000 0.97280  0.29330  0.32310  Biso   1.000  H
  C109     1.0000 0.88520  0.27890  0.19610  Biso   1.000  C
  H84      1.0000 0.89920  0.22170  0.17420  Biso   1.000  H
  C110     1.0000 0.91230  0.40280  0.31870  Biso   1.000  C
  C111     1.0000 0.95740  0.45230  0.41210  Biso   1.000  C
  C112     1.0000 0.93270  0.48440  0.47860  Biso   1.000  C
  H85      1.0000 0.88710  0.47220  0.46450  Biso   1.000  H
  C113     1.0000 0.02600  0.46630  0.43510  Biso   1.000  C
  H86      1.0000 0.04380  0.44220  0.39210  Biso   1.000  H
  C114     1.0000 0.56870  0.23960  0.30630  Biso   1.000  C
  H87      1.0000 0.61590  0.23900  0.34640  Biso   1.000  H
  C115     1.0000 0.47510  0.23840  0.14960  Biso   1.000  C
  H88      1.0000 0.45690  0.23550  0.07950  Biso   1.000  H
  C116     1.0000 0.54350  0.24140  0.20410  Biso   1.000  C
  C117     1.0000 0.69600  0.20290  0.15580  Biso   1.000  C
  H89      1.0000 0.73890  0.17250  0.18710  Biso   1.000  H
  C118     1.0000 0.65420  0.20110  0.20270  Biso   1.000  C
  H90      1.0000 0.66920  0.17150  0.26600  Biso   1.000  H
  C119     1.0000 0.57290  0.28390  0.06560  Biso   1.000  C
  H91      1.0000 0.52960  0.31200  0.03050  Biso   1.000  H
  C120     1.0000 0.61730  0.28500  0.02410  Biso   1.000  C
  H92      1.0000 0.60320  0.31510  0.96130  Biso   1.000  H
  C121     1.0000 0.59010  0.24290  0.15670  Biso   1.000  C
  C122     1.0000 0.85460  0.40560  0.14230  Biso   1.000  C
  H93      1.0000 0.84450  0.43770  0.08140  Biso   1.000  H
  C123     1.0000 0.89780  0.44910  0.22850  Biso   1.000  C
  H94      1.0000 0.91800  0.51020  0.22730  Biso   1.000  H
  C124     1.0000 0.88140  0.31800  0.31180  Biso   1.000  C
  H95      1.0000 0.88990  0.28360  0.37110  Biso   1.000  H
  C125     1.0000 0.83910  0.27800  0.22610  Biso   1.000  C
  H96      1.0000 0.81810  0.21800  0.22840  Biso   1.000  H
  C126     1.0000 0.62580  0.18900  0.04200  Biso   1.000  C
  H97      1.0000 0.61680  0.14470  0.98930  Biso   1.000  H
  C127     1.0000 0.58380  0.18600  0.08600  Biso   1.000  C
  H98      1.0000 0.54840  0.13880  0.06390  Biso   1.000  H
  C128     1.0000 0.62600  0.33300  0.16400  Biso   1.000  C
  H99      1.0000 0.61950  0.39020  0.19490  Biso   1.000  H
  C129     1.0000 0.67320  0.33100  0.11900  Biso   1.000  C
  H100     1.0000 0.70130  0.38610  0.12630  Biso   1.000  H
  C130     1.0000 0.78420  0.03650  0.09670  Biso   1.000  C
  Se10     1.0000 0.78710  0.92180  0.15180  Biso   1.000  Se
  Se11     1.0000 0.25469  0.39711  0.06870  Biso   1.000  Se
  C131     1.0000 0.27270  0.52480  0.06010  Biso   1.000  C
  N16      1.0000 0.32460  0.81470  0.14100  Biso   1.000  N
  N17      1.0000 0.17740  0.74730  0.06550  Biso   1.000  N
  N18      1.0000 0.28140  0.60820  0.05660  Biso   1.000  N
  C132     1.0000 0.30460  0.89190  0.17590  Biso   1.000  C
  H101     1.0000 0.26010  0.91590  0.13900  Biso   1.000  H
  C133     1.0000 0.34540  0.93810  0.26300  Biso   1.000  C
  H102     1.0000 0.32930  0.99250  0.28570  Biso   1.000  H
  C134     1.0000 0.42980  0.82190  0.28560  Biso   1.000  C
  H103     1.0000 0.47280  0.79330  0.32310  Biso   1.000  H
  C135     1.0000 0.38520  0.77890  0.19610  Biso   1.000  C
  H104     1.0000 0.39920  0.72170  0.17420  Biso   1.000  H
  C136     1.0000 0.41230  0.90280  0.31870  Biso   1.000  C
  C137     1.0000 0.45740  0.95230  0.41210  Biso   1.000  C
  C138     1.0000 0.43270  0.98440  0.47860  Biso   1.000  C
  H105     1.0000 0.38710  0.97220  0.46450  Biso   1.000  H
  C139     1.0000 0.52600  0.96630  0.43510  Biso   1.000  C
  H106     1.0000 0.54380  0.94220  0.39210  Biso   1.000  H
  C140     1.0000 0.06870  0.73960  0.30630  Biso   1.000  C
  H107     1.0000 0.11590  0.73900  0.34640  Biso   1.000  H
  C141     1.0000 0.97510  0.73840  0.14960  Biso   1.000  C
  H108     1.0000 0.95690  0.73550  0.07950  Biso   1.000  H
  C142     1.0000 0.04350  0.74140  0.20410  Biso   1.000  C
  C143     1.0000 0.19600  0.70290  0.15580  Biso   1.000  C
  H109     1.0000 0.23890  0.67250  0.18710  Biso   1.000  H
  C144     1.0000 0.15420  0.70110  0.20270  Biso   1.000  C
  H110     1.0000 0.16920  0.67150  0.26600  Biso   1.000  H
  C145     1.0000 0.07290  0.78390  0.06560  Biso   1.000  C
  H111     1.0000 0.02960  0.81200  0.03050  Biso   1.000  H
  C146     1.0000 0.11730  0.78500  0.02410  Biso   1.000  C
  H112     1.0000 0.10320  0.81510  0.96130  Biso   1.000  H
  C147     1.0000 0.09010  0.74290  0.15670  Biso   1.000  C
  C148     1.0000 0.35460  0.90560  0.14230  Biso   1.000  C
  H113     1.0000 0.34450  0.93770  0.08140  Biso   1.000  H
  C149     1.0000 0.39780  0.94910  0.22850  Biso   1.000  C
  H114     1.0000 0.41800  0.01020  0.22730  Biso   1.000  H
  C150     1.0000 0.38140  0.81800  0.31180  Biso   1.000  C
  H115     1.0000 0.38990  0.78360  0.37110  Biso   1.000  H
  C151     1.0000 0.33910  0.77800  0.22610  Biso   1.000  C
  H116     1.0000 0.31810  0.71800  0.22840  Biso   1.000  H
  C152     1.0000 0.12580  0.68900  0.04200  Biso   1.000  C
  H117     1.0000 0.11680  0.64470  0.98930  Biso   1.000  H
  C153     1.0000 0.08380  0.68600  0.08600  Biso   1.000  C
  H118     1.0000 0.04840  0.63880  0.06390  Biso   1.000  H
  C154     1.0000 0.12600  0.83300  0.16400  Biso   1.000  C
  H119     1.0000 0.11950  0.89020  0.19490  Biso   1.000  H
  C155     1.0000 0.17320  0.83100  0.11900  Biso   1.000  C
  H120     1.0000 0.20130  0.88610  0.12630  Biso   1.000  H
  C156     1.0000 0.28420  0.53650  0.09670  Biso   1.000  C
  Se12     1.0000 0.28710  0.42180  0.15180  Biso   1.000  Se
  Se13     1.0000 0.24531  0.89711  0.43130  Biso   1.000  Se
  C157     1.0000 0.22730  0.02480  0.43990  Biso   1.000  C
  N19      1.0000 0.17540  0.31470  0.35900  Biso   1.000  N
  N20      1.0000 0.32260  0.24730  0.43450  Biso   1.000  N
  N21      1.0000 0.21860  0.10820  0.44340  Biso   1.000  N
  C158     1.0000 0.19540  0.39190  0.32410  Biso   1.000  C
  H121     1.0000 0.23990  0.41590  0.36100  Biso   1.000  H
  C159     1.0000 0.15460  0.43810  0.23700  Biso   1.000  C
  H122     1.0000 0.17070  0.49250  0.21430  Biso   1.000  H
  C160     1.0000 0.07020  0.32190  0.21440  Biso   1.000  C
  H123     1.0000 0.02720  0.29330  0.17690  Biso   1.000  H
  C161     1.0000 0.11480  0.27890  0.30390  Biso   1.000  C
  H124     1.0000 0.10080  0.22170  0.32580  Biso   1.000  H
  C162     1.0000 0.08770  0.40280  0.18130  Biso   1.000  C
  C163     1.0000 0.04260  0.45230  0.08790  Biso   1.000  C
  C164     1.0000 0.06730  0.48440  0.02140  Biso   1.000  C
  H125     1.0000 0.11290  0.47220  0.03550  Biso   1.000  H
  C165     1.0000 0.97400  0.46630  0.06490  Biso   1.000  C
  H126     1.0000 0.95620  0.44220  0.10790  Biso   1.000  H
  C166     1.0000 0.43130  0.23960  0.19370  Biso   1.000  C
  H127     1.0000 0.38410  0.23900  0.15360  Biso   1.000  H
  C167     1.0000 0.52490  0.23840  0.35040  Biso   1.000  C
  H128     1.0000 0.54310  0.23550  0.42050  Biso   1.000  H
  C168     1.0000 0.45650  0.24140  0.29590  Biso   1.000  C
  C169     1.0000 0.30400  0.20290  0.34420  Biso   1.000  C
  H129     1.0000 0.26110  0.17250  0.31290  Biso   1.000  H
  C170     1.0000 0.34580  0.20110  0.29730  Biso   1.000  C
  H130     1.0000 0.33080  0.17150  0.23400  Biso   1.000  H
  C171     1.0000 0.42710  0.28390  0.43440  Biso   1.000  C
  H131     1.0000 0.47040  0.31200  0.46950  Biso   1.000  H
  C172     1.0000 0.38270  0.28500  0.47590  Biso   1.000  C
  H132     1.0000 0.39680  0.31510  0.53870  Biso   1.000  H
  C173     1.0000 0.40990  0.24290  0.34330  Biso   1.000  C
  C174     1.0000 0.14540  0.40560  0.35770  Biso   1.000  C
  H133     1.0000 0.15550  0.43770  0.41860  Biso   1.000  H
  C175     1.0000 0.10220  0.44910  0.27150  Biso   1.000  C
  H134     1.0000 0.08200  0.51020  0.27270  Biso   1.000  H
  C176     1.0000 0.11860  0.31800  0.18820  Biso   1.000  C
  H135     1.0000 0.11010  0.28360  0.12890  Biso   1.000  H
  C177     1.0000 0.16090  0.27800  0.27390  Biso   1.000  C
  H136     1.0000 0.18190  0.21800  0.27160  Biso   1.000  H
  C178     1.0000 0.37420  0.18900  0.45800  Biso   1.000  C
  H137     1.0000 0.38320  0.14470  0.51070  Biso   1.000  H
  C179     1.0000 0.41620  0.18600  0.41400  Biso   1.000  C
  H138     1.0000 0.45160  0.13880  0.43610  Biso   1.000  H
  C180     1.0000 0.37400  0.33300  0.33600  Biso   1.000  C
  H139     1.0000 0.38050  0.39020  0.30510  Biso   1.000  H
  C181     1.0000 0.32680  0.33100  0.38100  Biso   1.000  C
  H140     1.0000 0.29870  0.38610  0.37370  Biso   1.000  H
  C182     1.0000 0.21580  0.03650  0.40330  Biso   1.000  C
  Se14     1.0000 0.21290  0.92180  0.34820  Biso   1.000  Se
  Se15     1.0000 0.74531  0.39711  0.43130  Biso   1.000  Se
  C183     1.0000 0.72730  0.52480  0.43990  Biso   1.000  C
  N22      1.0000 0.67540  0.81470  0.35900  Biso   1.000  N
  N23      1.0000 0.82260  0.74730  0.43450  Biso   1.000  N
  N24      1.0000 0.71860  0.60820  0.44340  Biso   1.000  N
  C184     1.0000 0.69540  0.89190  0.32410  Biso   1.000  C
  H141     1.0000 0.73990  0.91590  0.36100  Biso   1.000  H
  C185     1.0000 0.65460  0.93810  0.23700  Biso   1.000  C
  H142     1.0000 0.67070  0.99250  0.21430  Biso   1.000  H
  C186     1.0000 0.57020  0.82190  0.21440  Biso   1.000  C
  H143     1.0000 0.52720  0.79330  0.17690  Biso   1.000  H
  C187     1.0000 0.61480  0.77890  0.30390  Biso   1.000  C
  H144     1.0000 0.60080  0.72170  0.32580  Biso   1.000  H
  C188     1.0000 0.58770  0.90280  0.18130  Biso   1.000  C
  C189     1.0000 0.54260  0.95230  0.08790  Biso   1.000  C
  C190     1.0000 0.56730  0.98440  0.02140  Biso   1.000  C
  H145     1.0000 0.61290  0.97220  0.03550  Biso   1.000  H
  C191     1.0000 0.47400  0.96630  0.06490  Biso   1.000  C
  H146     1.0000 0.45620  0.94220  0.10790  Biso   1.000  H
  C192     1.0000 0.93130  0.73960  0.19370  Biso   1.000  C
  H147     1.0000 0.88410  0.73900  0.15360  Biso   1.000  H
  C193     1.0000 0.02490  0.73840  0.35040  Biso   1.000  C
  H148     1.0000 0.04310  0.73550  0.42050  Biso   1.000  H
  C194     1.0000 0.95650  0.74140  0.29590  Biso   1.000  C
  C195     1.0000 0.80400  0.70290  0.34420  Biso   1.000  C
  H149     1.0000 0.76110  0.67250  0.31290  Biso   1.000  H
  C196     1.0000 0.84580  0.70110  0.29730  Biso   1.000  C
  H150     1.0000 0.83080  0.67150  0.23400  Biso   1.000  H
  C197     1.0000 0.92710  0.78390  0.43440  Biso   1.000  C
  H151     1.0000 0.97040  0.81200  0.46950  Biso   1.000  H
  C198     1.0000 0.88270  0.78500  0.47590  Biso   1.000  C
  H152     1.0000 0.89680  0.81510  0.53870  Biso   1.000  H
  C199     1.0000 0.90990  0.74290  0.34330  Biso   1.000  C
  C200     1.0000 0.64540  0.90560  0.35770  Biso   1.000  C
  H153     1.0000 0.65550  0.93770  0.41860  Biso   1.000  H
  C201     1.0000 0.60220  0.94910  0.27150  Biso   1.000  C
  H154     1.0000 0.58200  0.01020  0.27270  Biso   1.000  H
  C202     1.0000 0.61860  0.81800  0.18820  Biso   1.000  C
  H155     1.0000 0.61010  0.78360  0.12890  Biso   1.000  H
  C203     1.0000 0.66090  0.77800  0.27390  Biso   1.000  C
  H156     1.0000 0.68190  0.71800  0.27160  Biso   1.000  H
  C204     1.0000 0.87420  0.68900  0.45800  Biso   1.000  C
  H157     1.0000 0.88320  0.64470  0.51070  Biso   1.000  H
  C205     1.0000 0.91620  0.68600  0.41400  Biso   1.000  C
  H158     1.0000 0.95160  0.63880  0.43610  Biso   1.000  H
  C206     1.0000 0.87400  0.83300  0.33600  Biso   1.000  C
  H159     1.0000 0.88050  0.89020  0.30510  Biso   1.000  H
  C207     1.0000 0.82680  0.83100  0.38100  Biso   1.000  C
  H160     1.0000 0.79870  0.88610  0.37370  Biso   1.000  H
  C208     1.0000 0.71580  0.53650  0.40330  Biso   1.000  C
  Se16     1.0000 0.71290  0.42180  0.34820  Biso   1.000  Se
  Fe1      1.0000 0.25000  0.75000  0.00000  Biso   1.000  Fe
  Fe2      1.0000 0.75000  0.75000  0.50000  Biso   1.000  Fe
  Fe3      1.0000 0.75000  0.25000  0.00000  Biso   1.000  Fe
  Fe4      1.0000 0.25000  0.25000  0.50000  Biso   1.000  Fe
