data_image0
_cell_length_a       12.5451
_cell_length_b       15.8535
_cell_length_c       10.8885
_cell_angle_alpha    90
_cell_angle_beta     90
_cell_angle_gamma    90

_symmetry_space_group_name_H-M    "P 1"
_symmetry_int_tables_number       1

loop_
  _symmetry_equiv_pos_as_xyz
  'x, y, z'

loop_
  _atom_site_label
  _atom_site_occupancy
  _atom_site_fract_x
  _atom_site_fract_y
  _atom_site_fract_z
  _atom_site_thermal_displace_type
  _atom_site_B_iso_or_equiv
  _atom_site_type_symbol
  C1       1.0000 0.34780  0.10820  0.26820  Biso   1.000  C
  C2       1.0000 0.30380  0.14000  0.38910  Biso   1.000  C
  C3       1.0000 0.22990  0.20440  0.38900  Biso   1.000  C
  H1       1.0000 0.20600  0.22660  0.31500  Biso   1.000  H
  O1       1.0000 0.10730  0.36550  0.38830  Biso   1.000  O
  O2       1.0000 0.41300  0.04740  0.27050  Biso   1.000  O
  C4       1.0000 0.65220  0.89180  0.26820  Biso   1.000  C
  C5       1.0000 0.69620  0.86000  0.38910  Biso   1.000  C
  C6       1.0000 0.77010  0.79560  0.38900  Biso   1.000  C
  H2       1.0000 0.79400  0.77340  0.31500  Biso   1.000  H
  O3       1.0000 0.89270  0.63450  0.38830  Biso   1.000  O
  O4       1.0000 0.58700  0.95260  0.27050  Biso   1.000  O
  C7       1.0000 0.84300  0.74700  0.06500  Biso   1.000  C
  C8       1.0000 0.91500  0.68000  0.04900  Biso   1.000  C
  C9       1.0000 0.89400  0.62040  0.95800  Biso   1.000  C
  C10      1.0000 0.79500  0.61980  0.90100  Biso   1.000  C
  C11      1.0000 0.72600  0.68860  0.91200  Biso   1.000  C
  O5       1.0000 0.68260  0.85280  0.82420  Biso   1.000  O
  C12      1.0000 0.15700  0.25300  0.06500  Biso   1.000  C
  C13      1.0000 0.08500  0.32000  0.04900  Biso   1.000  C
  C14      1.0000 0.10600  0.37960  0.95800  Biso   1.000  C
  C15      1.0000 0.20500  0.38020  0.90100  Biso   1.000  C
  C16      1.0000 0.27400  0.31140  0.91200  Biso   1.000  C
  O6       1.0000 0.31740  0.14720  0.82420  Biso   1.000  O
  C17      1.0000 0.65220  0.89180  0.73180  Biso   1.000  C
  C18      1.0000 0.69620  0.86000  0.61090  Biso   1.000  C
  C19      1.0000 0.77010  0.79560  0.61100  Biso   1.000  C
  H3       1.0000 0.79400  0.77340  0.68500  Biso   1.000  H
  O7       1.0000 0.89270  0.63450  0.61170  Biso   1.000  O
  O8       1.0000 0.58700  0.95260  0.72950  Biso   1.000  O
  C20      1.0000 0.34780  0.10820  0.73180  Biso   1.000  C
  C21      1.0000 0.30380  0.14000  0.61090  Biso   1.000  C
  C22      1.0000 0.22990  0.20440  0.61100  Biso   1.000  C
  H4       1.0000 0.20600  0.22660  0.68500  Biso   1.000  H
  O9       1.0000 0.10730  0.36550  0.61170  Biso   1.000  O
  O10      1.0000 0.41300  0.04740  0.72950  Biso   1.000  O
  C23      1.0000 0.15700  0.25300  0.93500  Biso   1.000  C
  C24      1.0000 0.08500  0.32000  0.95100  Biso   1.000  C
  C25      1.0000 0.10600  0.37960  0.04200  Biso   1.000  C
  C26      1.0000 0.20500  0.38020  0.09900  Biso   1.000  C
  C27      1.0000 0.27400  0.31140  0.08800  Biso   1.000  C
  O11      1.0000 0.31740  0.14720  0.17580  Biso   1.000  O
  C28      1.0000 0.84300  0.74700  0.93500  Biso   1.000  C
  C29      1.0000 0.91500  0.68000  0.95100  Biso   1.000  C
  C30      1.0000 0.89400  0.62040  0.04200  Biso   1.000  C
  C31      1.0000 0.79500  0.61980  0.09900  Biso   1.000  C
  C32      1.0000 0.72600  0.68860  0.08800  Biso   1.000  C
  O12      1.0000 0.68260  0.85280  0.17580  Biso   1.000  O
  S1       1.0000 0.09330  0.31740  0.50000  Biso   1.000  S
  C33      1.0000 0.19100  0.23650  0.50000  Biso   1.000  C
  C34      1.0000 0.34060  0.10660  0.50000  Biso   1.000  C
  H5       1.0000 0.38940  0.06250  0.50000  Biso   1.000  H
  O13      1.0000 0.99170  0.27380  0.50000  Biso   1.000  O
  S2       1.0000 0.90670  0.68260  0.50000  Biso   1.000  S
  C35      1.0000 0.80900  0.76350  0.50000  Biso   1.000  C
  C36      1.0000 0.65940  0.89340  0.50000  Biso   1.000  C
  H6       1.0000 0.61060  0.93750  0.50000  Biso   1.000  H
  O14      1.0000 0.00830  0.72620  0.50000  Biso   1.000  O
  N1       1.0000 0.75150  0.75040  0.00000  Biso   1.000  N
  Cu1      1.0000 0.66112  0.85388  0.00000  Biso   1.000  Cu
  O15      1.0000 0.59190  0.96410  0.00000  Biso   1.000  O
  N2       1.0000 0.24850  0.24960  0.00000  Biso   1.000  N
  Cu2      1.0000 0.33888  0.14612  0.00000  Biso   1.000  Cu
  O16      1.0000 0.40810  0.03590  0.00000  Biso   1.000  O
  Cu3      1.0000 0.50000  0.00000  0.13916  Biso   1.000  Cu
  Cu4      1.0000 0.50000  0.00000  0.86084  Biso   1.000  Cu
  C37      1.0000 0.65700  0.24700  0.43500  Biso   1.000  C
  C38      1.0000 0.58500  0.18000  0.45100  Biso   1.000  C
  C39      1.0000 0.60600  0.12040  0.54200  Biso   1.000  C
  C40      1.0000 0.70500  0.11980  0.59900  Biso   1.000  C
  C41      1.0000 0.77400  0.18860  0.58800  Biso   1.000  C
  O17      1.0000 0.81740  0.35280  0.67580  Biso   1.000  O
  C42      1.0000 0.34300  0.75300  0.43500  Biso   1.000  C
  C43      1.0000 0.41500  0.82000  0.45100  Biso   1.000  C
  C44      1.0000 0.39400  0.87960  0.54200  Biso   1.000  C
  C45      1.0000 0.29500  0.88020  0.59900  Biso   1.000  C
  C46      1.0000 0.22600  0.81140  0.58800  Biso   1.000  C
  O18      1.0000 0.18260  0.64720  0.67580  Biso   1.000  O
  C47      1.0000 0.15220  0.60820  0.23180  Biso   1.000  C
  C48      1.0000 0.19620  0.64000  0.11090  Biso   1.000  C
  C49      1.0000 0.27010  0.70440  0.11100  Biso   1.000  C
  H7       1.0000 0.29400  0.72660  0.18500  Biso   1.000  H
  O19      1.0000 0.39270  0.86550  0.11170  Biso   1.000  O
  O20      1.0000 0.08700  0.54740  0.22950  Biso   1.000  O
  C50      1.0000 0.84780  0.39180  0.23180  Biso   1.000  C
  C51      1.0000 0.80380  0.36000  0.11090  Biso   1.000  C
  C52      1.0000 0.72990  0.29560  0.11100  Biso   1.000  C
  H8       1.0000 0.70600  0.27340  0.18500  Biso   1.000  H
  O21      1.0000 0.60730  0.13450  0.11170  Biso   1.000  O
  O22      1.0000 0.91300  0.45260  0.22950  Biso   1.000  O
  C53      1.0000 0.34300  0.75300  0.56500  Biso   1.000  C
  C54      1.0000 0.41500  0.82000  0.54900  Biso   1.000  C
  C55      1.0000 0.39400  0.87960  0.45800  Biso   1.000  C
  C56      1.0000 0.29500  0.88020  0.40100  Biso   1.000  C
  C57      1.0000 0.22600  0.81140  0.41200  Biso   1.000  C
  O23      1.0000 0.18260  0.64720  0.32420  Biso   1.000  O
  C58      1.0000 0.65700  0.24700  0.56500  Biso   1.000  C
  C59      1.0000 0.58500  0.18000  0.54900  Biso   1.000  C
  C60      1.0000 0.60600  0.12040  0.45800  Biso   1.000  C
  C61      1.0000 0.70500  0.11980  0.40100  Biso   1.000  C
  C62      1.0000 0.77400  0.18860  0.41200  Biso   1.000  C
  O24      1.0000 0.81740  0.35280  0.32420  Biso   1.000  O
  C63      1.0000 0.84780  0.39180  0.76820  Biso   1.000  C
  C64      1.0000 0.80380  0.36000  0.88910  Biso   1.000  C
  C65      1.0000 0.72990  0.29560  0.88900  Biso   1.000  C
  H9       1.0000 0.70600  0.27340  0.81500  Biso   1.000  H
  O25      1.0000 0.60730  0.13450  0.88830  Biso   1.000  O
  O26      1.0000 0.91300  0.45260  0.77050  Biso   1.000  O
  C66      1.0000 0.15220  0.60820  0.76820  Biso   1.000  C
  C67      1.0000 0.19620  0.64000  0.88910  Biso   1.000  C
  C68      1.0000 0.27010  0.70440  0.88900  Biso   1.000  C
  H10      1.0000 0.29400  0.72660  0.81500  Biso   1.000  H
  O27      1.0000 0.39270  0.86550  0.88830  Biso   1.000  O
  O28      1.0000 0.08700  0.54740  0.77050  Biso   1.000  O
  N3       1.0000 0.74850  0.25040  0.50000  Biso   1.000  N
  Cu5      1.0000 0.83888  0.35388  0.50000  Biso   1.000  Cu
  O29      1.0000 0.90810  0.46410  0.50000  Biso   1.000  O
  N4       1.0000 0.25150  0.74960  0.50000  Biso   1.000  N
  Cu6      1.0000 0.16112  0.64612  0.50000  Biso   1.000  Cu
  O30      1.0000 0.09190  0.53590  0.50000  Biso   1.000  O
  S3       1.0000 0.40670  0.81740  0.00000  Biso   1.000  S
  C69      1.0000 0.30900  0.73650  0.00000  Biso   1.000  C
  C70      1.0000 0.15940  0.60660  0.00000  Biso   1.000  C
  H11      1.0000 0.11060  0.56250  0.00000  Biso   1.000  H
  O31      1.0000 0.50830  0.77380  0.00000  Biso   1.000  O
  S4       1.0000 0.59330  0.18260  0.00000  Biso   1.000  S
  C71      1.0000 0.69100  0.26350  0.00000  Biso   1.000  C
  C72      1.0000 0.84060  0.39340  0.00000  Biso   1.000  C
  H12      1.0000 0.88940  0.43750  0.00000  Biso   1.000  H
  O32      1.0000 0.49170  0.22620  0.00000  Biso   1.000  O
  Cu7      1.0000 0.00000  0.50000  0.36084  Biso   1.000  Cu
  Cu8      1.0000 0.00000  0.50000  0.63916  Biso   1.000  Cu
