data_image0
_cell_length_a       27.805
_cell_length_b       9.381
_cell_length_c       24.923
_cell_angle_alpha    90
_cell_angle_beta     114.715
_cell_angle_gamma    90

_symmetry_space_group_name_H-M    "P 1"
_symmetry_int_tables_number       1

loop_
  _symmetry_equiv_pos_as_xyz
  'x, y, z'

loop_
  _atom_site_label
  _atom_site_occupancy
  _atom_site_fract_x
  _atom_site_fract_y
  _atom_site_fract_z
  _atom_site_thermal_displace_type
  _atom_site_B_iso_or_equiv
  _atom_site_type_symbol
  Co1      1.0000 0.73297  0.64693  0.53005  Biso   1.000  Co
  N1       1.0000 0.63260  0.33200  0.53580  Biso   1.000  N
  N2       1.0000 0.69688  0.47440  0.54612  Biso   1.000  N
  O1       1.0000 0.66563  0.76410  0.48580  Biso   1.000  O
  O2       1.0000 0.69190  0.92860  0.43853  Biso   1.000  O
  O3       1.0000 0.27852  0.56900  0.05180  Biso   1.000  O
  O4       1.0000 0.25209  0.72630  0.10108  Biso   1.000  O
  C1       1.0000 0.65781  0.86970  0.45270  Biso   1.000  C
  C2       1.0000 0.60306  0.93420  0.42810  Biso   1.000  C
  C3       1.0000 0.56357  0.86810  0.43840  Biso   1.000  C
  H1       1.0000 0.57060  0.78220  0.45880  Biso   1.000  H
  C4       1.0000 0.51369  0.92710  0.41870  Biso   1.000  C
  H2       1.0000 0.48740  0.87970  0.42560  Biso   1.000  H
  C5       1.0000 0.50216  0.05710  0.38876  Biso   1.000  C
  C6       1.0000 0.54179  0.12050  0.37650  Biso   1.000  C
  H3       1.0000 0.53490  0.20500  0.35510  Biso   1.000  H
  C7       1.0000 0.59147  0.05810  0.39610  Biso   1.000  C
  H4       1.0000 0.61740  0.10130  0.38740  Biso   1.000  H
  C8       1.0000 0.27445  0.61200  0.09740  Biso   1.000  C
  C9       1.0000 0.30008  0.52220  0.15180  Biso   1.000  C
  C10      1.0000 0.33180  0.40890  0.15310  Biso   1.000  C
  H5       1.0000 0.33610  0.38500  0.11920  Biso   1.000  H
  C11      1.0000 0.35720  0.33030  0.20350  Biso   1.000  C
  H6       1.0000 0.37920  0.25560  0.20340  Biso   1.000  H
  C12      1.0000 0.35082  0.36020  0.25490  Biso   1.000  C
  C13      1.0000 0.31940  0.47540  0.25310  Biso   1.000  C
  H7       1.0000 0.31540  0.50060  0.28710  Biso   1.000  H
  C14      1.0000 0.29370  0.55420  0.20250  Biso   1.000  C
  H8       1.0000 0.27190  0.62940  0.20240  Biso   1.000  H
  C15      1.0000 0.45020  0.12560  0.37330  Biso   1.000  C
  C16      1.0000 0.42576  0.20810  0.32320  Biso   1.000  C
  H9       1.0000 0.44240  0.22000  0.29800  Biso   1.000  H
  C17      1.0000 0.37722  0.27390  0.30930  Biso   1.000  C
  C18      1.0000 0.35308  0.25630  0.34800  Biso   1.000  C
  H10      1.0000 0.32070  0.29990  0.33980  Biso   1.000  H
  C19      1.0000 0.37682  0.17450  0.39820  Biso   1.000  C
  H11      1.0000 0.36030  0.16240  0.42360  Biso   1.000  H
  C20      1.0000 0.42519  0.11050  0.41090  Biso   1.000  C
  H12      1.0000 0.44120  0.05650  0.44510  Biso   1.000  H
  C21      1.0000 0.64710  0.46520  0.53600  Biso   1.000  C
  H13      1.0000 0.62470  0.54300  0.52970  Biso   1.000  H
  C22      1.0000 0.71290  0.33340  0.54790  Biso   1.000  C
  H14      1.0000 0.74580  0.30440  0.55040  Biso   1.000  H
  C23      1.0000 0.67380  0.24480  0.54560  Biso   1.000  C
  H15      1.0000 0.67510  0.14620  0.54980  Biso   1.000  H
  C24      1.0000 0.58080  0.27880  0.53220  Biso   1.000  C
  H16      1.0000 0.58590  0.23940  0.57020  Biso   1.000  H
  H17      1.0000 0.56840  0.20260  0.50330  Biso   1.000  H
  C25      1.0000 0.53880  0.39380  0.51530  Biso   1.000  C
  C26      1.0000 0.51100  0.43320  0.45750  Biso   1.000  C
  H18      1.0000 0.51780  0.38860  0.42810  Biso   1.000  H
  C27      1.0000 0.52720  0.46140  0.55750  Biso   1.000  C
  H19      1.0000 0.54530  0.43550  0.59700  Biso   1.000  H
  N3       1.0000 0.63200  0.33600  0.55360  Biso   1.000  N
  C28      1.0000 0.71780  0.36700  0.58190  Biso   1.000  C
  H20      1.0000 0.75390  0.35540  0.60430  Biso   1.000  H
  C29      1.0000 0.68180  0.27900  0.58250  Biso   1.000  C
  H21      1.0000 0.68890  0.18940  0.60020  Biso   1.000  H
  Co2      1.0000 0.23297  0.14693  0.53005  Biso   1.000  Co
  N4       1.0000 0.13260  0.83200  0.53580  Biso   1.000  N
  N5       1.0000 0.19688  0.97440  0.54612  Biso   1.000  N
  O5       1.0000 0.16563  0.26410  0.48580  Biso   1.000  O
  O6       1.0000 0.19190  0.42860  0.43853  Biso   1.000  O
  O7       1.0000 0.77852  0.06900  0.05180  Biso   1.000  O
  O8       1.0000 0.75209  0.22630  0.10108  Biso   1.000  O
  C30      1.0000 0.15781  0.36970  0.45270  Biso   1.000  C
  C31      1.0000 0.10306  0.43420  0.42810  Biso   1.000  C
  C32      1.0000 0.06357  0.36810  0.43840  Biso   1.000  C
  H22      1.0000 0.07060  0.28220  0.45880  Biso   1.000  H
  C33      1.0000 0.01369  0.42710  0.41870  Biso   1.000  C
  H23      1.0000 0.98740  0.37970  0.42560  Biso   1.000  H
  C34      1.0000 0.00216  0.55710  0.38876  Biso   1.000  C
  C35      1.0000 0.04179  0.62050  0.37650  Biso   1.000  C
  H24      1.0000 0.03490  0.70500  0.35510  Biso   1.000  H
  C36      1.0000 0.09147  0.55810  0.39610  Biso   1.000  C
  H25      1.0000 0.11740  0.60130  0.38740  Biso   1.000  H
  C37      1.0000 0.77445  0.11200  0.09740  Biso   1.000  C
  C38      1.0000 0.80008  0.02220  0.15180  Biso   1.000  C
  C39      1.0000 0.83180  0.90890  0.15310  Biso   1.000  C
  H26      1.0000 0.83610  0.88500  0.11920  Biso   1.000  H
  C40      1.0000 0.85720  0.83030  0.20350  Biso   1.000  C
  H27      1.0000 0.87920  0.75560  0.20340  Biso   1.000  H
  C41      1.0000 0.85082  0.86020  0.25490  Biso   1.000  C
  C42      1.0000 0.81940  0.97540  0.25310  Biso   1.000  C
  H28      1.0000 0.81540  0.00060  0.28710  Biso   1.000  H
  C43      1.0000 0.79370  0.05420  0.20250  Biso   1.000  C
  H29      1.0000 0.77190  0.12940  0.20240  Biso   1.000  H
  C44      1.0000 0.95020  0.62560  0.37330  Biso   1.000  C
  C45      1.0000 0.92576  0.70810  0.32320  Biso   1.000  C
  H30      1.0000 0.94240  0.72000  0.29800  Biso   1.000  H
  C46      1.0000 0.87722  0.77390  0.30930  Biso   1.000  C
  C47      1.0000 0.85308  0.75630  0.34800  Biso   1.000  C
  H31      1.0000 0.82070  0.79990  0.33980  Biso   1.000  H
  C48      1.0000 0.87682  0.67450  0.39820  Biso   1.000  C
  H32      1.0000 0.86030  0.66240  0.42360  Biso   1.000  H
  C49      1.0000 0.92519  0.61050  0.41090  Biso   1.000  C
  H33      1.0000 0.94120  0.55650  0.44510  Biso   1.000  H
  C50      1.0000 0.14710  0.96520  0.53600  Biso   1.000  C
  H34      1.0000 0.12470  0.04300  0.52970  Biso   1.000  H
  C51      1.0000 0.21290  0.83340  0.54790  Biso   1.000  C
  H35      1.0000 0.24580  0.80440  0.55040  Biso   1.000  H
  C52      1.0000 0.17380  0.74480  0.54560  Biso   1.000  C
  H36      1.0000 0.17510  0.64620  0.54980  Biso   1.000  H
  C53      1.0000 0.08080  0.77880  0.53220  Biso   1.000  C
  H37      1.0000 0.08590  0.73940  0.57020  Biso   1.000  H
  H38      1.0000 0.06840  0.70260  0.50330  Biso   1.000  H
  C54      1.0000 0.03880  0.89380  0.51530  Biso   1.000  C
  C55      1.0000 0.01100  0.93320  0.45750  Biso   1.000  C
  H39      1.0000 0.01780  0.88860  0.42810  Biso   1.000  H
  C56      1.0000 0.02720  0.96140  0.55750  Biso   1.000  C
  H40      1.0000 0.04530  0.93550  0.59700  Biso   1.000  H
  N6       1.0000 0.13200  0.83600  0.55360  Biso   1.000  N
  C57      1.0000 0.21780  0.86700  0.58190  Biso   1.000  C
  H41      1.0000 0.25390  0.85540  0.60430  Biso   1.000  H
  C58      1.0000 0.18180  0.77900  0.58250  Biso   1.000  C
  H42      1.0000 0.18890  0.68940  0.60020  Biso   1.000  H
  Co3      1.0000 0.26703  0.64693  0.96995  Biso   1.000  Co
  N7       1.0000 0.36740  0.33200  0.96420  Biso   1.000  N
  N8       1.0000 0.30312  0.47440  0.95388  Biso   1.000  N
  O9       1.0000 0.33437  0.76410  0.01420  Biso   1.000  O
  O10      1.0000 0.30810  0.92860  0.06147  Biso   1.000  O
  O11      1.0000 0.72148  0.56900  0.44820  Biso   1.000  O
  O12      1.0000 0.74791  0.72630  0.39892  Biso   1.000  O
  C59      1.0000 0.34219  0.86970  0.04730  Biso   1.000  C
  C60      1.0000 0.39694  0.93420  0.07190  Biso   1.000  C
  C61      1.0000 0.43643  0.86810  0.06160  Biso   1.000  C
  H43      1.0000 0.42940  0.78220  0.04120  Biso   1.000  H
  C62      1.0000 0.48631  0.92710  0.08130  Biso   1.000  C
  H44      1.0000 0.51260  0.87970  0.07440  Biso   1.000  H
  C63      1.0000 0.49784  0.05710  0.11124  Biso   1.000  C
  C64      1.0000 0.45821  0.12050  0.12350  Biso   1.000  C
  H45      1.0000 0.46510  0.20500  0.14490  Biso   1.000  H
  C65      1.0000 0.40853  0.05810  0.10390  Biso   1.000  C
  H46      1.0000 0.38260  0.10130  0.11260  Biso   1.000  H
  C66      1.0000 0.72555  0.61200  0.40260  Biso   1.000  C
  C67      1.0000 0.69992  0.52220  0.34820  Biso   1.000  C
  C68      1.0000 0.66820  0.40890  0.34690  Biso   1.000  C
  H47      1.0000 0.66390  0.38500  0.38080  Biso   1.000  H
  C69      1.0000 0.64280  0.33030  0.29650  Biso   1.000  C
  H48      1.0000 0.62080  0.25560  0.29660  Biso   1.000  H
  C70      1.0000 0.64918  0.36020  0.24510  Biso   1.000  C
  C71      1.0000 0.68060  0.47540  0.24690  Biso   1.000  C
  H49      1.0000 0.68460  0.50060  0.21290  Biso   1.000  H
  C72      1.0000 0.70630  0.55420  0.29750  Biso   1.000  C
  H50      1.0000 0.72810  0.62940  0.29760  Biso   1.000  H
  C73      1.0000 0.54980  0.12560  0.12670  Biso   1.000  C
  C74      1.0000 0.57424  0.20810  0.17680  Biso   1.000  C
  H51      1.0000 0.55760  0.22000  0.20200  Biso   1.000  H
  C75      1.0000 0.62278  0.27390  0.19070  Biso   1.000  C
  C76      1.0000 0.64692  0.25630  0.15200  Biso   1.000  C
  H52      1.0000 0.67930  0.29990  0.16020  Biso   1.000  H
  C77      1.0000 0.62318  0.17450  0.10180  Biso   1.000  C
  H53      1.0000 0.63970  0.16240  0.07640  Biso   1.000  H
  C78      1.0000 0.57481  0.11050  0.08910  Biso   1.000  C
  H54      1.0000 0.55880  0.05650  0.05490  Biso   1.000  H
  C79      1.0000 0.35290  0.46520  0.96400  Biso   1.000  C
  H55      1.0000 0.37530  0.54300  0.97030  Biso   1.000  H
  C80      1.0000 0.28710  0.33340  0.95210  Biso   1.000  C
  H56      1.0000 0.25420  0.30440  0.94960  Biso   1.000  H
  C81      1.0000 0.32620  0.24480  0.95440  Biso   1.000  C
  H57      1.0000 0.32490  0.14620  0.95020  Biso   1.000  H
  C82      1.0000 0.41920  0.27880  0.96780  Biso   1.000  C
  H58      1.0000 0.41410  0.23940  0.92980  Biso   1.000  H
  H59      1.0000 0.43160  0.20260  0.99670  Biso   1.000  H
  C83      1.0000 0.46120  0.39380  0.98470  Biso   1.000  C
  C84      1.0000 0.48900  0.43320  0.04250  Biso   1.000  C
  H60      1.0000 0.48220  0.38860  0.07190  Biso   1.000  H
  C85      1.0000 0.47280  0.46140  0.94250  Biso   1.000  C
  H61      1.0000 0.45470  0.43550  0.90300  Biso   1.000  H
  N9       1.0000 0.36800  0.33600  0.94640  Biso   1.000  N
  C86      1.0000 0.28220  0.36700  0.91810  Biso   1.000  C
  H62      1.0000 0.24610  0.35540  0.89570  Biso   1.000  H
  C87      1.0000 0.31820  0.27900  0.91750  Biso   1.000  C
  H63      1.0000 0.31110  0.18940  0.89980  Biso   1.000  H
  Co4      1.0000 0.76703  0.14693  0.96995  Biso   1.000  Co
  N10      1.0000 0.86740  0.83200  0.96420  Biso   1.000  N
  N11      1.0000 0.80312  0.97440  0.95388  Biso   1.000  N
  O13      1.0000 0.83437  0.26410  0.01420  Biso   1.000  O
  O14      1.0000 0.80810  0.42860  0.06147  Biso   1.000  O
  O15      1.0000 0.22148  0.06900  0.44820  Biso   1.000  O
  O16      1.0000 0.24791  0.22630  0.39892  Biso   1.000  O
  C88      1.0000 0.84219  0.36970  0.04730  Biso   1.000  C
  C89      1.0000 0.89694  0.43420  0.07190  Biso   1.000  C
  C90      1.0000 0.93643  0.36810  0.06160  Biso   1.000  C
  H64      1.0000 0.92940  0.28220  0.04120  Biso   1.000  H
  C91      1.0000 0.98631  0.42710  0.08130  Biso   1.000  C
  H65      1.0000 0.01260  0.37970  0.07440  Biso   1.000  H
  C92      1.0000 0.99784  0.55710  0.11124  Biso   1.000  C
  C93      1.0000 0.95821  0.62050  0.12350  Biso   1.000  C
  H66      1.0000 0.96510  0.70500  0.14490  Biso   1.000  H
  C94      1.0000 0.90853  0.55810  0.10390  Biso   1.000  C
  H67      1.0000 0.88260  0.60130  0.11260  Biso   1.000  H
  C95      1.0000 0.22555  0.11200  0.40260  Biso   1.000  C
  C96      1.0000 0.19992  0.02220  0.34820  Biso   1.000  C
  C97      1.0000 0.16820  0.90890  0.34690  Biso   1.000  C
  H68      1.0000 0.16390  0.88500  0.38080  Biso   1.000  H
  C98      1.0000 0.14280  0.83030  0.29650  Biso   1.000  C
  H69      1.0000 0.12080  0.75560  0.29660  Biso   1.000  H
  C99      1.0000 0.14918  0.86020  0.24510  Biso   1.000  C
  C100     1.0000 0.18060  0.97540  0.24690  Biso   1.000  C
  H70      1.0000 0.18460  0.00060  0.21290  Biso   1.000  H
  C101     1.0000 0.20630  0.05420  0.29750  Biso   1.000  C
  H71      1.0000 0.22810  0.12940  0.29760  Biso   1.000  H
  C102     1.0000 0.04980  0.62560  0.12670  Biso   1.000  C
  C103     1.0000 0.07424  0.70810  0.17680  Biso   1.000  C
  H72      1.0000 0.05760  0.72000  0.20200  Biso   1.000  H
  C104     1.0000 0.12278  0.77390  0.19070  Biso   1.000  C
  C105     1.0000 0.14692  0.75630  0.15200  Biso   1.000  C
  H73      1.0000 0.17930  0.79990  0.16020  Biso   1.000  H
  C106     1.0000 0.12318  0.67450  0.10180  Biso   1.000  C
  H74      1.0000 0.13970  0.66240  0.07640  Biso   1.000  H
  C107     1.0000 0.07481  0.61050  0.08910  Biso   1.000  C
  H75      1.0000 0.05880  0.55650  0.05490  Biso   1.000  H
  C108     1.0000 0.85290  0.96520  0.96400  Biso   1.000  C
  H76      1.0000 0.87530  0.04300  0.97030  Biso   1.000  H
  C109     1.0000 0.78710  0.83340  0.95210  Biso   1.000  C
  H77      1.0000 0.75420  0.80440  0.94960  Biso   1.000  H
  C110     1.0000 0.82620  0.74480  0.95440  Biso   1.000  C
  H78      1.0000 0.82490  0.64620  0.95020  Biso   1.000  H
  C111     1.0000 0.91920  0.77880  0.96780  Biso   1.000  C
  H79      1.0000 0.91410  0.73940  0.92980  Biso   1.000  H
  H80      1.0000 0.93160  0.70260  0.99670  Biso   1.000  H
  C112     1.0000 0.96120  0.89380  0.98470  Biso   1.000  C
  C113     1.0000 0.98900  0.93320  0.04250  Biso   1.000  C
  H81      1.0000 0.98220  0.88860  0.07190  Biso   1.000  H
  C114     1.0000 0.97280  0.96140  0.94250  Biso   1.000  C
  H82      1.0000 0.95470  0.93550  0.90300  Biso   1.000  H
  N12      1.0000 0.86800  0.83600  0.94640  Biso   1.000  N
  C115     1.0000 0.78220  0.86700  0.91810  Biso   1.000  C
  H83      1.0000 0.74610  0.85540  0.89570  Biso   1.000  H
  C116     1.0000 0.81820  0.77900  0.91750  Biso   1.000  C
  H84      1.0000 0.81110  0.68940  0.89980  Biso   1.000  H
  Co5      1.0000 0.26703  0.35307  0.46995  Biso   1.000  Co
  N13      1.0000 0.36740  0.66800  0.46420  Biso   1.000  N
  N14      1.0000 0.30312  0.52560  0.45388  Biso   1.000  N
  O17      1.0000 0.33437  0.23590  0.51420  Biso   1.000  O
  O18      1.0000 0.30810  0.07140  0.56147  Biso   1.000  O
  O19      1.0000 0.72148  0.43100  0.94820  Biso   1.000  O
  O20      1.0000 0.74791  0.27370  0.89892  Biso   1.000  O
  C117     1.0000 0.34219  0.13030  0.54730  Biso   1.000  C
  C118     1.0000 0.39694  0.06580  0.57190  Biso   1.000  C
  C119     1.0000 0.43643  0.13190  0.56160  Biso   1.000  C
  H85      1.0000 0.42940  0.21780  0.54120  Biso   1.000  H
  C120     1.0000 0.48631  0.07290  0.58130  Biso   1.000  C
  H86      1.0000 0.51260  0.12030  0.57440  Biso   1.000  H
  C121     1.0000 0.49784  0.94290  0.61124  Biso   1.000  C
  C122     1.0000 0.45821  0.87950  0.62350  Biso   1.000  C
  H87      1.0000 0.46510  0.79500  0.64490  Biso   1.000  H
  C123     1.0000 0.40853  0.94190  0.60390  Biso   1.000  C
  H88      1.0000 0.38260  0.89870  0.61260  Biso   1.000  H
  C124     1.0000 0.72555  0.38800  0.90260  Biso   1.000  C
  C125     1.0000 0.69992  0.47780  0.84820  Biso   1.000  C
  C126     1.0000 0.66820  0.59110  0.84690  Biso   1.000  C
  H89      1.0000 0.66390  0.61500  0.88080  Biso   1.000  H
  C127     1.0000 0.64280  0.66970  0.79650  Biso   1.000  C
  H90      1.0000 0.62080  0.74440  0.79660  Biso   1.000  H
  C128     1.0000 0.64918  0.63980  0.74510  Biso   1.000  C
  C129     1.0000 0.68060  0.52460  0.74690  Biso   1.000  C
  H91      1.0000 0.68460  0.49940  0.71290  Biso   1.000  H
  C130     1.0000 0.70630  0.44580  0.79750  Biso   1.000  C
  H92      1.0000 0.72810  0.37060  0.79760  Biso   1.000  H
  C131     1.0000 0.54980  0.87440  0.62670  Biso   1.000  C
  C132     1.0000 0.57424  0.79190  0.67680  Biso   1.000  C
  H93      1.0000 0.55760  0.78000  0.70200  Biso   1.000  H
  C133     1.0000 0.62278  0.72610  0.69070  Biso   1.000  C
  C134     1.0000 0.64692  0.74370  0.65200  Biso   1.000  C
  H94      1.0000 0.67930  0.70010  0.66020  Biso   1.000  H
  C135     1.0000 0.62318  0.82550  0.60180  Biso   1.000  C
  H95      1.0000 0.63970  0.83760  0.57640  Biso   1.000  H
  C136     1.0000 0.57481  0.88950  0.58910  Biso   1.000  C
  H96      1.0000 0.55880  0.94350  0.55490  Biso   1.000  H
  C137     1.0000 0.35290  0.53480  0.46400  Biso   1.000  C
  H97      1.0000 0.37530  0.45700  0.47030  Biso   1.000  H
  C138     1.0000 0.28710  0.66660  0.45210  Biso   1.000  C
  H98      1.0000 0.25420  0.69560  0.44960  Biso   1.000  H
  C139     1.0000 0.32620  0.75520  0.45440  Biso   1.000  C
  H99      1.0000 0.32490  0.85380  0.45020  Biso   1.000  H
  C140     1.0000 0.41920  0.72120  0.46780  Biso   1.000  C
  H100     1.0000 0.41410  0.76060  0.42980  Biso   1.000  H
  H101     1.0000 0.43160  0.79740  0.49670  Biso   1.000  H
  C141     1.0000 0.46120  0.60620  0.48470  Biso   1.000  C
  C142     1.0000 0.48900  0.56680  0.54250  Biso   1.000  C
  H102     1.0000 0.48220  0.61140  0.57190  Biso   1.000  H
  C143     1.0000 0.47280  0.53860  0.44250  Biso   1.000  C
  H103     1.0000 0.45470  0.56450  0.40300  Biso   1.000  H
  N15      1.0000 0.36800  0.66400  0.44640  Biso   1.000  N
  C144     1.0000 0.28220  0.63300  0.41810  Biso   1.000  C
  H104     1.0000 0.24610  0.64460  0.39570  Biso   1.000  H
  C145     1.0000 0.31820  0.72100  0.41750  Biso   1.000  C
  H105     1.0000 0.31110  0.81060  0.39980  Biso   1.000  H
  Co6      1.0000 0.76703  0.85307  0.46995  Biso   1.000  Co
  N16      1.0000 0.86740  0.16800  0.46420  Biso   1.000  N
  N17      1.0000 0.80312  0.02560  0.45388  Biso   1.000  N
  O21      1.0000 0.83437  0.73590  0.51420  Biso   1.000  O
  O22      1.0000 0.80810  0.57140  0.56147  Biso   1.000  O
  O23      1.0000 0.22148  0.93100  0.94820  Biso   1.000  O
  O24      1.0000 0.24791  0.77370  0.89892  Biso   1.000  O
  C146     1.0000 0.84219  0.63030  0.54730  Biso   1.000  C
  C147     1.0000 0.89694  0.56580  0.57190  Biso   1.000  C
  C148     1.0000 0.93643  0.63190  0.56160  Biso   1.000  C
  H106     1.0000 0.92940  0.71780  0.54120  Biso   1.000  H
  C149     1.0000 0.98631  0.57290  0.58130  Biso   1.000  C
  H107     1.0000 0.01260  0.62030  0.57440  Biso   1.000  H
  C150     1.0000 0.99784  0.44290  0.61124  Biso   1.000  C
  C151     1.0000 0.95821  0.37950  0.62350  Biso   1.000  C
  H108     1.0000 0.96510  0.29500  0.64490  Biso   1.000  H
  C152     1.0000 0.90853  0.44190  0.60390  Biso   1.000  C
  H109     1.0000 0.88260  0.39870  0.61260  Biso   1.000  H
  C153     1.0000 0.22555  0.88800  0.90260  Biso   1.000  C
  C154     1.0000 0.19992  0.97780  0.84820  Biso   1.000  C
  C155     1.0000 0.16820  0.09110  0.84690  Biso   1.000  C
  H110     1.0000 0.16390  0.11500  0.88080  Biso   1.000  H
  C156     1.0000 0.14280  0.16970  0.79650  Biso   1.000  C
  H111     1.0000 0.12080  0.24440  0.79660  Biso   1.000  H
  C157     1.0000 0.14918  0.13980  0.74510  Biso   1.000  C
  C158     1.0000 0.18060  0.02460  0.74690  Biso   1.000  C
  H112     1.0000 0.18460  0.99940  0.71290  Biso   1.000  H
  C159     1.0000 0.20630  0.94580  0.79750  Biso   1.000  C
  H113     1.0000 0.22810  0.87060  0.79760  Biso   1.000  H
  C160     1.0000 0.04980  0.37440  0.62670  Biso   1.000  C
  C161     1.0000 0.07424  0.29190  0.67680  Biso   1.000  C
  H114     1.0000 0.05760  0.28000  0.70200  Biso   1.000  H
  C162     1.0000 0.12278  0.22610  0.69070  Biso   1.000  C
  C163     1.0000 0.14692  0.24370  0.65200  Biso   1.000  C
  H115     1.0000 0.17930  0.20010  0.66020  Biso   1.000  H
  C164     1.0000 0.12318  0.32550  0.60180  Biso   1.000  C
  H116     1.0000 0.13970  0.33760  0.57640  Biso   1.000  H
  C165     1.0000 0.07481  0.38950  0.58910  Biso   1.000  C
  H117     1.0000 0.05880  0.44350  0.55490  Biso   1.000  H
  C166     1.0000 0.85290  0.03480  0.46400  Biso   1.000  C
  H118     1.0000 0.87530  0.95700  0.47030  Biso   1.000  H
  C167     1.0000 0.78710  0.16660  0.45210  Biso   1.000  C
  H119     1.0000 0.75420  0.19560  0.44960  Biso   1.000  H
  C168     1.0000 0.82620  0.25520  0.45440  Biso   1.000  C
  H120     1.0000 0.82490  0.35380  0.45020  Biso   1.000  H
  C169     1.0000 0.91920  0.22120  0.46780  Biso   1.000  C
  H121     1.0000 0.91410  0.26060  0.42980  Biso   1.000  H
  H122     1.0000 0.93160  0.29740  0.49670  Biso   1.000  H
  C170     1.0000 0.96120  0.10620  0.48470  Biso   1.000  C
  C171     1.0000 0.98900  0.06680  0.54250  Biso   1.000  C
  H123     1.0000 0.98220  0.11140  0.57190  Biso   1.000  H
  C172     1.0000 0.97280  0.03860  0.44250  Biso   1.000  C
  H124     1.0000 0.95470  0.06450  0.40300  Biso   1.000  H
  N18      1.0000 0.86800  0.16400  0.44640  Biso   1.000  N
  C173     1.0000 0.78220  0.13300  0.41810  Biso   1.000  C
  H125     1.0000 0.74610  0.14460  0.39570  Biso   1.000  H
  C174     1.0000 0.81820  0.22100  0.41750  Biso   1.000  C
  H126     1.0000 0.81110  0.31060  0.39980  Biso   1.000  H
  Co7      1.0000 0.73297  0.35307  0.03005  Biso   1.000  Co
  N19      1.0000 0.63260  0.66800  0.03580  Biso   1.000  N
  N20      1.0000 0.69688  0.52560  0.04612  Biso   1.000  N
  O25      1.0000 0.66563  0.23590  0.98580  Biso   1.000  O
  O26      1.0000 0.69190  0.07140  0.93853  Biso   1.000  O
  O27      1.0000 0.27852  0.43100  0.55180  Biso   1.000  O
  O28      1.0000 0.25209  0.27370  0.60108  Biso   1.000  O
  C175     1.0000 0.65781  0.13030  0.95270  Biso   1.000  C
  C176     1.0000 0.60306  0.06580  0.92810  Biso   1.000  C
  C177     1.0000 0.56357  0.13190  0.93840  Biso   1.000  C
  H127     1.0000 0.57060  0.21780  0.95880  Biso   1.000  H
  C178     1.0000 0.51369  0.07290  0.91870  Biso   1.000  C
  H128     1.0000 0.48740  0.12030  0.92560  Biso   1.000  H
  C179     1.0000 0.50216  0.94290  0.88876  Biso   1.000  C
  C180     1.0000 0.54179  0.87950  0.87650  Biso   1.000  C
  H129     1.0000 0.53490  0.79500  0.85510  Biso   1.000  H
  C181     1.0000 0.59147  0.94190  0.89610  Biso   1.000  C
  H130     1.0000 0.61740  0.89870  0.88740  Biso   1.000  H
  C182     1.0000 0.27445  0.38800  0.59740  Biso   1.000  C
  C183     1.0000 0.30008  0.47780  0.65180  Biso   1.000  C
  C184     1.0000 0.33180  0.59110  0.65310  Biso   1.000  C
  H131     1.0000 0.33610  0.61500  0.61920  Biso   1.000  H
  C185     1.0000 0.35720  0.66970  0.70350  Biso   1.000  C
  H132     1.0000 0.37920  0.74440  0.70340  Biso   1.000  H
  C186     1.0000 0.35082  0.63980  0.75490  Biso   1.000  C
  C187     1.0000 0.31940  0.52460  0.75310  Biso   1.000  C
  H133     1.0000 0.31540  0.49940  0.78710  Biso   1.000  H
  C188     1.0000 0.29370  0.44580  0.70250  Biso   1.000  C
  H134     1.0000 0.27190  0.37060  0.70240  Biso   1.000  H
  C189     1.0000 0.45020  0.87440  0.87330  Biso   1.000  C
  C190     1.0000 0.42576  0.79190  0.82320  Biso   1.000  C
  H135     1.0000 0.44240  0.78000  0.79800  Biso   1.000  H
  C191     1.0000 0.37722  0.72610  0.80930  Biso   1.000  C
  C192     1.0000 0.35308  0.74370  0.84800  Biso   1.000  C
  H136     1.0000 0.32070  0.70010  0.83980  Biso   1.000  H
  C193     1.0000 0.37682  0.82550  0.89820  Biso   1.000  C
  H137     1.0000 0.36030  0.83760  0.92360  Biso   1.000  H
  C194     1.0000 0.42519  0.88950  0.91090  Biso   1.000  C
  H138     1.0000 0.44120  0.94350  0.94510  Biso   1.000  H
  C195     1.0000 0.64710  0.53480  0.03600  Biso   1.000  C
  H139     1.0000 0.62470  0.45700  0.02970  Biso   1.000  H
  C196     1.0000 0.71290  0.66660  0.04790  Biso   1.000  C
  H140     1.0000 0.74580  0.69560  0.05040  Biso   1.000  H
  C197     1.0000 0.67380  0.75520  0.04560  Biso   1.000  C
  H141     1.0000 0.67510  0.85380  0.04980  Biso   1.000  H
  C198     1.0000 0.58080  0.72120  0.03220  Biso   1.000  C
  H142     1.0000 0.58590  0.76060  0.07020  Biso   1.000  H
  H143     1.0000 0.56840  0.79740  0.00330  Biso   1.000  H
  C199     1.0000 0.53880  0.60620  0.01530  Biso   1.000  C
  C200     1.0000 0.51100  0.56680  0.95750  Biso   1.000  C
  H144     1.0000 0.51780  0.61140  0.92810  Biso   1.000  H
  C201     1.0000 0.52720  0.53860  0.05750  Biso   1.000  C
  H145     1.0000 0.54530  0.56450  0.09700  Biso   1.000  H
  N21      1.0000 0.63200  0.66400  0.05360  Biso   1.000  N
  C202     1.0000 0.71780  0.63300  0.08190  Biso   1.000  C
  H146     1.0000 0.75390  0.64460  0.10430  Biso   1.000  H
  C203     1.0000 0.68180  0.72100  0.08250  Biso   1.000  C
  H147     1.0000 0.68890  0.81060  0.10020  Biso   1.000  H
  Co8      1.0000 0.23297  0.85307  0.03005  Biso   1.000  Co
  N22      1.0000 0.13260  0.16800  0.03580  Biso   1.000  N
  N23      1.0000 0.19688  0.02560  0.04612  Biso   1.000  N
  O29      1.0000 0.16563  0.73590  0.98580  Biso   1.000  O
  O30      1.0000 0.19190  0.57140  0.93853  Biso   1.000  O
  O31      1.0000 0.77852  0.93100  0.55180  Biso   1.000  O
  O32      1.0000 0.75209  0.77370  0.60108  Biso   1.000  O
  C204     1.0000 0.15781  0.63030  0.95270  Biso   1.000  C
  C205     1.0000 0.10306  0.56580  0.92810  Biso   1.000  C
  C206     1.0000 0.06357  0.63190  0.93840  Biso   1.000  C
  H148     1.0000 0.07060  0.71780  0.95880  Biso   1.000  H
  C207     1.0000 0.01369  0.57290  0.91870  Biso   1.000  C
  H149     1.0000 0.98740  0.62030  0.92560  Biso   1.000  H
  C208     1.0000 0.00216  0.44290  0.88876  Biso   1.000  C
  C209     1.0000 0.04179  0.37950  0.87650  Biso   1.000  C
  H150     1.0000 0.03490  0.29500  0.85510  Biso   1.000  H
  C210     1.0000 0.09147  0.44190  0.89610  Biso   1.000  C
  H151     1.0000 0.11740  0.39870  0.88740  Biso   1.000  H
  C211     1.0000 0.77445  0.88800  0.59740  Biso   1.000  C
  C212     1.0000 0.80008  0.97780  0.65180  Biso   1.000  C
  C213     1.0000 0.83180  0.09110  0.65310  Biso   1.000  C
  H152     1.0000 0.83610  0.11500  0.61920  Biso   1.000  H
  C214     1.0000 0.85720  0.16970  0.70350  Biso   1.000  C
  H153     1.0000 0.87920  0.24440  0.70340  Biso   1.000  H
  C215     1.0000 0.85082  0.13980  0.75490  Biso   1.000  C
  C216     1.0000 0.81940  0.02460  0.75310  Biso   1.000  C
  H154     1.0000 0.81540  0.99940  0.78710  Biso   1.000  H
  C217     1.0000 0.79370  0.94580  0.70250  Biso   1.000  C
  H155     1.0000 0.77190  0.87060  0.70240  Biso   1.000  H
  C218     1.0000 0.95020  0.37440  0.87330  Biso   1.000  C
  C219     1.0000 0.92576  0.29190  0.82320  Biso   1.000  C
  H156     1.0000 0.94240  0.28000  0.79800  Biso   1.000  H
  C220     1.0000 0.87722  0.22610  0.80930  Biso   1.000  C
  C221     1.0000 0.85308  0.24370  0.84800  Biso   1.000  C
  H157     1.0000 0.82070  0.20010  0.83980  Biso   1.000  H
  C222     1.0000 0.87682  0.32550  0.89820  Biso   1.000  C
  H158     1.0000 0.86030  0.33760  0.92360  Biso   1.000  H
  C223     1.0000 0.92519  0.38950  0.91090  Biso   1.000  C
  H159     1.0000 0.94120  0.44350  0.94510  Biso   1.000  H
  C224     1.0000 0.14710  0.03480  0.03600  Biso   1.000  C
  H160     1.0000 0.12470  0.95700  0.02970  Biso   1.000  H
  C225     1.0000 0.21290  0.16660  0.04790  Biso   1.000  C
  H161     1.0000 0.24580  0.19560  0.05040  Biso   1.000  H
  C226     1.0000 0.17380  0.25520  0.04560  Biso   1.000  C
  H162     1.0000 0.17510  0.35380  0.04980  Biso   1.000  H
  C227     1.0000 0.08080  0.22120  0.03220  Biso   1.000  C
  H163     1.0000 0.08590  0.26060  0.07020  Biso   1.000  H
  H164     1.0000 0.06840  0.29740  0.00330  Biso   1.000  H
  C228     1.0000 0.03880  0.10620  0.01530  Biso   1.000  C
  C229     1.0000 0.01100  0.06680  0.95750  Biso   1.000  C
  H165     1.0000 0.01780  0.11140  0.92810  Biso   1.000  H
  C230     1.0000 0.02720  0.03860  0.05750  Biso   1.000  C
  H166     1.0000 0.04530  0.06450  0.09700  Biso   1.000  H
  N24      1.0000 0.13200  0.16400  0.05360  Biso   1.000  N
  C231     1.0000 0.21780  0.13300  0.08190  Biso   1.000  C
  H167     1.0000 0.25390  0.14460  0.10430  Biso   1.000  H
  C232     1.0000 0.18180  0.22100  0.08250  Biso   1.000  C
  H168     1.0000 0.18890  0.31060  0.10020  Biso   1.000  H
