data_image0
_cell_length_a       18.346
_cell_length_b       18.346
_cell_length_c       18.346
_cell_angle_alpha    90
_cell_angle_beta     90
_cell_angle_gamma    90

_symmetry_space_group_name_H-M    "P 1"
_symmetry_int_tables_number       1

loop_
  _symmetry_equiv_pos_as_xyz
  'x, y, z'

loop_
  _atom_site_label
  _atom_site_occupancy
  _atom_site_fract_x
  _atom_site_fract_y
  _atom_site_fract_z
  _atom_site_thermal_displace_type
  _atom_site_B_iso_or_equiv
  _atom_site_type_symbol
  Cu1      1.0000 0.37850  0.19880  0.94680  Biso   1.000  Cu
  O1       1.0000 0.33200  0.20800  0.03800  Biso   1.000  O
  O2       1.0000 0.22350  0.19540  0.09700  Biso   1.000  O
  O3       1.0000 0.29040  0.14710  0.92210  Biso   1.000  O
  O4       1.0000 0.17540  0.19140  0.94690  Biso   1.000  O
  H1       1.0000 0.15930  0.17150  0.90960  Biso   1.000  H
  O5       1.0000 0.22690  0.02450  0.94750  Biso   1.000  O
  O6       1.0000 0.16510  0.06200  0.04170  Biso   1.000  O
  C1       1.0000 0.26260  0.19060  0.04180  Biso   1.000  C
  C2       1.0000 0.23530  0.15100  0.97370  Biso   1.000  C
  C3       1.0000 0.20690  0.07350  0.99030  Biso   1.000  C
  Cu2      1.0000 0.36200  0.22080  0.94040  Biso   1.000  Cu
  O7       1.0000 0.31600  0.23230  0.03600  Biso   1.000  O
  Cu3      1.0000 0.12150  0.80120  0.44680  Biso   1.000  Cu
  O8       1.0000 0.16800  0.79200  0.53800  Biso   1.000  O
  O9       1.0000 0.27650  0.80460  0.59700  Biso   1.000  O
  O10      1.0000 0.20960  0.85290  0.42210  Biso   1.000  O
  O11      1.0000 0.32460  0.80860  0.44690  Biso   1.000  O
  H2       1.0000 0.34070  0.82850  0.40960  Biso   1.000  H
  O12      1.0000 0.27310  0.97550  0.44750  Biso   1.000  O
  O13      1.0000 0.33490  0.93800  0.54170  Biso   1.000  O
  C4       1.0000 0.23740  0.80940  0.54180  Biso   1.000  C
  C5       1.0000 0.26470  0.84900  0.47370  Biso   1.000  C
  C6       1.0000 0.29310  0.92650  0.49030  Biso   1.000  C
  Cu4      1.0000 0.13800  0.77920  0.44040  Biso   1.000  Cu
  O14      1.0000 0.18400  0.76770  0.53600  Biso   1.000  O
  Cu5      1.0000 0.62150  0.69880  0.55320  Biso   1.000  Cu
  O15      1.0000 0.66800  0.70800  0.46200  Biso   1.000  O
  O16      1.0000 0.77650  0.69540  0.40300  Biso   1.000  O
  O17      1.0000 0.70960  0.64710  0.57790  Biso   1.000  O
  O18      1.0000 0.82460  0.69140  0.55310  Biso   1.000  O
  H3       1.0000 0.84070  0.67150  0.59040  Biso   1.000  H
  O19      1.0000 0.77310  0.52450  0.55250  Biso   1.000  O
  O20      1.0000 0.83490  0.56200  0.45830  Biso   1.000  O
  C7       1.0000 0.73740  0.69060  0.45820  Biso   1.000  C
  C8       1.0000 0.76470  0.65100  0.52630  Biso   1.000  C
  C9       1.0000 0.79310  0.57350  0.50970  Biso   1.000  C
  Cu6      1.0000 0.63800  0.72080  0.55960  Biso   1.000  Cu
  O21      1.0000 0.68400  0.73230  0.46400  Biso   1.000  O
  Cu7      1.0000 0.87850  0.30120  0.05320  Biso   1.000  Cu
  O22      1.0000 0.83200  0.29200  0.96200  Biso   1.000  O
  O23      1.0000 0.72350  0.30460  0.90300  Biso   1.000  O
  O24      1.0000 0.79040  0.35290  0.07790  Biso   1.000  O
  O25      1.0000 0.67540  0.30860  0.05310  Biso   1.000  O
  H4       1.0000 0.65930  0.32850  0.09040  Biso   1.000  H
  O26      1.0000 0.72690  0.47550  0.05250  Biso   1.000  O
  O27      1.0000 0.66510  0.43800  0.95830  Biso   1.000  O
  C10      1.0000 0.76260  0.30940  0.95820  Biso   1.000  C
  C11      1.0000 0.73530  0.34900  0.02630  Biso   1.000  C
  C12      1.0000 0.70690  0.42650  0.00970  Biso   1.000  C
  Cu8      1.0000 0.86200  0.27920  0.05960  Biso   1.000  Cu
  O28      1.0000 0.81600  0.26770  0.96400  Biso   1.000  O
  Cu9      1.0000 0.94680  0.37850  0.19880  Biso   1.000  Cu
  O29      1.0000 0.03800  0.33200  0.20800  Biso   1.000  O
  O30      1.0000 0.09700  0.22350  0.19540  Biso   1.000  O
  O31      1.0000 0.92210  0.29040  0.14710  Biso   1.000  O
  O32      1.0000 0.94690  0.17540  0.19140  Biso   1.000  O
  H5       1.0000 0.90960  0.15930  0.17150  Biso   1.000  H
  O33      1.0000 0.94750  0.22690  0.02450  Biso   1.000  O
  O34      1.0000 0.04170  0.16510  0.06200  Biso   1.000  O
  C13      1.0000 0.04180  0.26260  0.19060  Biso   1.000  C
  C14      1.0000 0.97370  0.23530  0.15100  Biso   1.000  C
  C15      1.0000 0.99030  0.20690  0.07350  Biso   1.000  C
  Cu10     1.0000 0.94040  0.36200  0.22080  Biso   1.000  Cu
  O35      1.0000 0.03600  0.31600  0.23230  Biso   1.000  O
  Cu11     1.0000 0.44680  0.12150  0.80120  Biso   1.000  Cu
  O36      1.0000 0.53800  0.16800  0.79200  Biso   1.000  O
  O37      1.0000 0.59700  0.27650  0.80460  Biso   1.000  O
  O38      1.0000 0.42210  0.20960  0.85290  Biso   1.000  O
  O39      1.0000 0.44690  0.32460  0.80860  Biso   1.000  O
  H6       1.0000 0.40960  0.34070  0.82850  Biso   1.000  H
  O40      1.0000 0.44750  0.27310  0.97550  Biso   1.000  O
  O41      1.0000 0.54170  0.33490  0.93800  Biso   1.000  O
  C16      1.0000 0.54180  0.23740  0.80940  Biso   1.000  C
  C17      1.0000 0.47370  0.26470  0.84900  Biso   1.000  C
  C18      1.0000 0.49030  0.29310  0.92650  Biso   1.000  C
  Cu12     1.0000 0.44040  0.13800  0.77920  Biso   1.000  Cu
  O42      1.0000 0.53600  0.18400  0.76770  Biso   1.000  O
  Cu13     1.0000 0.55320  0.62150  0.69880  Biso   1.000  Cu
  O43      1.0000 0.46200  0.66800  0.70800  Biso   1.000  O
  O44      1.0000 0.40300  0.77650  0.69540  Biso   1.000  O
  O45      1.0000 0.57790  0.70960  0.64710  Biso   1.000  O
  O46      1.0000 0.55310  0.82460  0.69140  Biso   1.000  O
  H7       1.0000 0.59040  0.84070  0.67150  Biso   1.000  H
  O47      1.0000 0.55250  0.77310  0.52450  Biso   1.000  O
  O48      1.0000 0.45830  0.83490  0.56200  Biso   1.000  O
  C19      1.0000 0.45820  0.73740  0.69060  Biso   1.000  C
  C20      1.0000 0.52630  0.76470  0.65100  Biso   1.000  C
  C21      1.0000 0.50970  0.79310  0.57350  Biso   1.000  C
  Cu14     1.0000 0.55960  0.63800  0.72080  Biso   1.000  Cu
  O49      1.0000 0.46400  0.68400  0.73230  Biso   1.000  O
  Cu15     1.0000 0.05320  0.87850  0.30120  Biso   1.000  Cu
  O50      1.0000 0.96200  0.83200  0.29200  Biso   1.000  O
  O51      1.0000 0.90300  0.72350  0.30460  Biso   1.000  O
  O52      1.0000 0.07790  0.79040  0.35290  Biso   1.000  O
  O53      1.0000 0.05310  0.67540  0.30860  Biso   1.000  O
  H8       1.0000 0.09040  0.65930  0.32850  Biso   1.000  H
  O54      1.0000 0.05250  0.72690  0.47550  Biso   1.000  O
  O55      1.0000 0.95830  0.66510  0.43800  Biso   1.000  O
  C22      1.0000 0.95820  0.76260  0.30940  Biso   1.000  C
  C23      1.0000 0.02630  0.73530  0.34900  Biso   1.000  C
  C24      1.0000 0.00970  0.70690  0.42650  Biso   1.000  C
  Cu16     1.0000 0.05960  0.86200  0.27920  Biso   1.000  Cu
  O56      1.0000 0.96400  0.81600  0.26770  Biso   1.000  O
  Cu17     1.0000 0.19880  0.94680  0.37850  Biso   1.000  Cu
  O57      1.0000 0.20800  0.03800  0.33200  Biso   1.000  O
  O58      1.0000 0.19540  0.09700  0.22350  Biso   1.000  O
  O59      1.0000 0.14710  0.92210  0.29040  Biso   1.000  O
  O60      1.0000 0.19140  0.94690  0.17540  Biso   1.000  O
  H9       1.0000 0.17150  0.90960  0.15930  Biso   1.000  H
  O61      1.0000 0.02450  0.94750  0.22690  Biso   1.000  O
  O62      1.0000 0.06200  0.04170  0.16510  Biso   1.000  O
  C25      1.0000 0.19060  0.04180  0.26260  Biso   1.000  C
  C26      1.0000 0.15100  0.97370  0.23530  Biso   1.000  C
  C27      1.0000 0.07350  0.99030  0.20690  Biso   1.000  C
  Cu18     1.0000 0.22080  0.94040  0.36200  Biso   1.000  Cu
  O63      1.0000 0.23230  0.03600  0.31600  Biso   1.000  O
  Cu19     1.0000 0.80120  0.44680  0.12150  Biso   1.000  Cu
  O64      1.0000 0.79200  0.53800  0.16800  Biso   1.000  O
  O65      1.0000 0.80460  0.59700  0.27650  Biso   1.000  O
  O66      1.0000 0.85290  0.42210  0.20960  Biso   1.000  O
  O67      1.0000 0.80860  0.44690  0.32460  Biso   1.000  O
  H10      1.0000 0.82850  0.40960  0.34070  Biso   1.000  H
  O68      1.0000 0.97550  0.44750  0.27310  Biso   1.000  O
  O69      1.0000 0.93800  0.54170  0.33490  Biso   1.000  O
  C28      1.0000 0.80940  0.54180  0.23740  Biso   1.000  C
  C29      1.0000 0.84900  0.47370  0.26470  Biso   1.000  C
  C30      1.0000 0.92650  0.49030  0.29310  Biso   1.000  C
  Cu20     1.0000 0.77920  0.44040  0.13800  Biso   1.000  Cu
  O70      1.0000 0.76770  0.53600  0.18400  Biso   1.000  O
  Cu21     1.0000 0.69880  0.55320  0.62150  Biso   1.000  Cu
  O71      1.0000 0.70800  0.46200  0.66800  Biso   1.000  O
  O72      1.0000 0.69540  0.40300  0.77650  Biso   1.000  O
  O73      1.0000 0.64710  0.57790  0.70960  Biso   1.000  O
  O74      1.0000 0.69140  0.55310  0.82460  Biso   1.000  O
  H11      1.0000 0.67150  0.59040  0.84070  Biso   1.000  H
  O75      1.0000 0.52450  0.55250  0.77310  Biso   1.000  O
  O76      1.0000 0.56200  0.45830  0.83490  Biso   1.000  O
  C31      1.0000 0.69060  0.45820  0.73740  Biso   1.000  C
  C32      1.0000 0.65100  0.52630  0.76470  Biso   1.000  C
  C33      1.0000 0.57350  0.50970  0.79310  Biso   1.000  C
  Cu22     1.0000 0.72080  0.55960  0.63800  Biso   1.000  Cu
  O77      1.0000 0.73230  0.46400  0.68400  Biso   1.000  O
  Cu23     1.0000 0.30120  0.05320  0.87850  Biso   1.000  Cu
  O78      1.0000 0.29200  0.96200  0.83200  Biso   1.000  O
  O79      1.0000 0.30460  0.90300  0.72350  Biso   1.000  O
  O80      1.0000 0.35290  0.07790  0.79040  Biso   1.000  O
  O81      1.0000 0.30860  0.05310  0.67540  Biso   1.000  O
  H12      1.0000 0.32850  0.09040  0.65930  Biso   1.000  H
  O82      1.0000 0.47550  0.05250  0.72690  Biso   1.000  O
  O83      1.0000 0.43800  0.95830  0.66510  Biso   1.000  O
  C34      1.0000 0.30940  0.95820  0.76260  Biso   1.000  C
  C35      1.0000 0.34900  0.02630  0.73530  Biso   1.000  C
  C36      1.0000 0.42650  0.00970  0.70690  Biso   1.000  C
  Cu24     1.0000 0.27920  0.05960  0.86200  Biso   1.000  Cu
  O84      1.0000 0.26770  0.96400  0.81600  Biso   1.000  O
  Cu25     1.0000 0.62150  0.80120  0.05320  Biso   1.000  Cu
  O85      1.0000 0.66800  0.79200  0.96200  Biso   1.000  O
  O86      1.0000 0.77650  0.80460  0.90300  Biso   1.000  O
  O87      1.0000 0.70960  0.85290  0.07790  Biso   1.000  O
  O88      1.0000 0.82460  0.80860  0.05310  Biso   1.000  O
  H13      1.0000 0.84070  0.82850  0.09040  Biso   1.000  H
  O89      1.0000 0.77310  0.97550  0.05250  Biso   1.000  O
  O90      1.0000 0.83490  0.93800  0.95830  Biso   1.000  O
  C37      1.0000 0.73740  0.80940  0.95820  Biso   1.000  C
  C38      1.0000 0.76470  0.84900  0.02630  Biso   1.000  C
  C39      1.0000 0.79310  0.92650  0.00970  Biso   1.000  C
  Cu26     1.0000 0.63800  0.77920  0.05960  Biso   1.000  Cu
  O91      1.0000 0.68400  0.76770  0.96400  Biso   1.000  O
  Cu27     1.0000 0.87850  0.19880  0.55320  Biso   1.000  Cu
  O92      1.0000 0.83200  0.20800  0.46200  Biso   1.000  O
  O93      1.0000 0.72350  0.19540  0.40300  Biso   1.000  O
  O94      1.0000 0.79040  0.14710  0.57790  Biso   1.000  O
  O95      1.0000 0.67540  0.19140  0.55310  Biso   1.000  O
  H14      1.0000 0.65930  0.17150  0.59040  Biso   1.000  H
  O96      1.0000 0.72690  0.02450  0.55250  Biso   1.000  O
  O97      1.0000 0.66510  0.06200  0.45830  Biso   1.000  O
  C40      1.0000 0.76260  0.19060  0.45820  Biso   1.000  C
  C41      1.0000 0.73530  0.15100  0.52630  Biso   1.000  C
  C42      1.0000 0.70690  0.07350  0.50970  Biso   1.000  C
  Cu28     1.0000 0.86200  0.22080  0.55960  Biso   1.000  Cu
  O98      1.0000 0.81600  0.23230  0.46400  Biso   1.000  O
  Cu29     1.0000 0.37850  0.30120  0.44680  Biso   1.000  Cu
  O99      1.0000 0.33200  0.29200  0.53800  Biso   1.000  O
  O100     1.0000 0.22350  0.30460  0.59700  Biso   1.000  O
  O101     1.0000 0.29040  0.35290  0.42210  Biso   1.000  O
  O102     1.0000 0.17540  0.30860  0.44690  Biso   1.000  O
  H15      1.0000 0.15930  0.32850  0.40960  Biso   1.000  H
  O103     1.0000 0.22690  0.47550  0.44750  Biso   1.000  O
  O104     1.0000 0.16510  0.43800  0.54170  Biso   1.000  O
  C43      1.0000 0.26260  0.30940  0.54180  Biso   1.000  C
  C44      1.0000 0.23530  0.34900  0.47370  Biso   1.000  C
  C45      1.0000 0.20690  0.42650  0.49030  Biso   1.000  C
  Cu30     1.0000 0.36200  0.27920  0.44040  Biso   1.000  Cu
  O105     1.0000 0.31600  0.26770  0.53600  Biso   1.000  O
  Cu31     1.0000 0.12150  0.69880  0.94680  Biso   1.000  Cu
  O106     1.0000 0.16800  0.70800  0.03800  Biso   1.000  O
  O107     1.0000 0.27650  0.69540  0.09700  Biso   1.000  O
  O108     1.0000 0.20960  0.64710  0.92210  Biso   1.000  O
  O109     1.0000 0.32460  0.69140  0.94690  Biso   1.000  O
  H16      1.0000 0.34070  0.67150  0.90960  Biso   1.000  H
  O110     1.0000 0.27310  0.52450  0.94750  Biso   1.000  O
  O111     1.0000 0.33490  0.56200  0.04170  Biso   1.000  O
  C46      1.0000 0.23740  0.69060  0.04180  Biso   1.000  C
  C47      1.0000 0.26470  0.65100  0.97370  Biso   1.000  C
  C48      1.0000 0.29310  0.57350  0.99030  Biso   1.000  C
  Cu32     1.0000 0.13800  0.72080  0.94040  Biso   1.000  Cu
  O112     1.0000 0.18400  0.73230  0.03600  Biso   1.000  O
  Cu33     1.0000 0.05320  0.62150  0.80120  Biso   1.000  Cu
  O113     1.0000 0.96200  0.66800  0.79200  Biso   1.000  O
  O114     1.0000 0.90300  0.77650  0.80460  Biso   1.000  O
  O115     1.0000 0.07790  0.70960  0.85290  Biso   1.000  O
  O116     1.0000 0.05310  0.82460  0.80860  Biso   1.000  O
  H17      1.0000 0.09040  0.84070  0.82850  Biso   1.000  H
  O117     1.0000 0.05250  0.77310  0.97550  Biso   1.000  O
  O118     1.0000 0.95830  0.83490  0.93800  Biso   1.000  O
  C49      1.0000 0.95820  0.73740  0.80940  Biso   1.000  C
  C50      1.0000 0.02630  0.76470  0.84900  Biso   1.000  C
  C51      1.0000 0.00970  0.79310  0.92650  Biso   1.000  C
  Cu34     1.0000 0.05960  0.63800  0.77920  Biso   1.000  Cu
  O119     1.0000 0.96400  0.68400  0.76770  Biso   1.000  O
  Cu35     1.0000 0.55320  0.87850  0.19880  Biso   1.000  Cu
  O120     1.0000 0.46200  0.83200  0.20800  Biso   1.000  O
  O121     1.0000 0.40300  0.72350  0.19540  Biso   1.000  O
  O122     1.0000 0.57790  0.79040  0.14710  Biso   1.000  O
  O123     1.0000 0.55310  0.67540  0.19140  Biso   1.000  O
  H18      1.0000 0.59040  0.65930  0.17150  Biso   1.000  H
  O124     1.0000 0.55250  0.72690  0.02450  Biso   1.000  O
  O125     1.0000 0.45830  0.66510  0.06200  Biso   1.000  O
  C52      1.0000 0.45820  0.76260  0.19060  Biso   1.000  C
  C53      1.0000 0.52630  0.73530  0.15100  Biso   1.000  C
  C54      1.0000 0.50970  0.70690  0.07350  Biso   1.000  C
  Cu36     1.0000 0.55960  0.86200  0.22080  Biso   1.000  Cu
  O126     1.0000 0.46400  0.81600  0.23230  Biso   1.000  O
  Cu37     1.0000 0.44680  0.37850  0.30120  Biso   1.000  Cu
  O127     1.0000 0.53800  0.33200  0.29200  Biso   1.000  O
  O128     1.0000 0.59700  0.22350  0.30460  Biso   1.000  O
  O129     1.0000 0.42210  0.29040  0.35290  Biso   1.000  O
  O130     1.0000 0.44690  0.17540  0.30860  Biso   1.000  O
  H19      1.0000 0.40960  0.15930  0.32850  Biso   1.000  H
  O131     1.0000 0.44750  0.22690  0.47550  Biso   1.000  O
  O132     1.0000 0.54170  0.16510  0.43800  Biso   1.000  O
  C55      1.0000 0.54180  0.26260  0.30940  Biso   1.000  C
  C56      1.0000 0.47370  0.23530  0.34900  Biso   1.000  C
  C57      1.0000 0.49030  0.20690  0.42650  Biso   1.000  C
  Cu38     1.0000 0.44040  0.36200  0.27920  Biso   1.000  Cu
  O133     1.0000 0.53600  0.31600  0.26770  Biso   1.000  O
  Cu39     1.0000 0.94680  0.12150  0.69880  Biso   1.000  Cu
  O134     1.0000 0.03800  0.16800  0.70800  Biso   1.000  O
  O135     1.0000 0.09700  0.27650  0.69540  Biso   1.000  O
  O136     1.0000 0.92210  0.20960  0.64710  Biso   1.000  O
  O137     1.0000 0.94690  0.32460  0.69140  Biso   1.000  O
  H20      1.0000 0.90960  0.34070  0.67150  Biso   1.000  H
  O138     1.0000 0.94750  0.27310  0.52450  Biso   1.000  O
  O139     1.0000 0.04170  0.33490  0.56200  Biso   1.000  O
  C58      1.0000 0.04180  0.23740  0.69060  Biso   1.000  C
  C59      1.0000 0.97370  0.26470  0.65100  Biso   1.000  C
  C60      1.0000 0.99030  0.29310  0.57350  Biso   1.000  C
  Cu40     1.0000 0.94040  0.13800  0.72080  Biso   1.000  Cu
  O140     1.0000 0.03600  0.18400  0.73230  Biso   1.000  O
  Cu41     1.0000 0.80120  0.05320  0.62150  Biso   1.000  Cu
  O141     1.0000 0.79200  0.96200  0.66800  Biso   1.000  O
  O142     1.0000 0.80460  0.90300  0.77650  Biso   1.000  O
  O143     1.0000 0.85290  0.07790  0.70960  Biso   1.000  O
  O144     1.0000 0.80860  0.05310  0.82460  Biso   1.000  O
  H21      1.0000 0.82850  0.09040  0.84070  Biso   1.000  H
  O145     1.0000 0.97550  0.05250  0.77310  Biso   1.000  O
  O146     1.0000 0.93800  0.95830  0.83490  Biso   1.000  O
  C61      1.0000 0.80940  0.95820  0.73740  Biso   1.000  C
  C62      1.0000 0.84900  0.02630  0.76470  Biso   1.000  C
  C63      1.0000 0.92650  0.00970  0.79310  Biso   1.000  C
  Cu42     1.0000 0.77920  0.05960  0.63800  Biso   1.000  Cu
  O147     1.0000 0.76770  0.96400  0.68400  Biso   1.000  O
  Cu43     1.0000 0.19880  0.55320  0.87850  Biso   1.000  Cu
  O148     1.0000 0.20800  0.46200  0.83200  Biso   1.000  O
  O149     1.0000 0.19540  0.40300  0.72350  Biso   1.000  O
  O150     1.0000 0.14710  0.57790  0.79040  Biso   1.000  O
  O151     1.0000 0.19140  0.55310  0.67540  Biso   1.000  O
  H22      1.0000 0.17150  0.59040  0.65930  Biso   1.000  H
  O152     1.0000 0.02450  0.55250  0.72690  Biso   1.000  O
  O153     1.0000 0.06200  0.45830  0.66510  Biso   1.000  O
  C64      1.0000 0.19060  0.45820  0.76260  Biso   1.000  C
  C65      1.0000 0.15100  0.52630  0.73530  Biso   1.000  C
  C66      1.0000 0.07350  0.50970  0.70690  Biso   1.000  C
  Cu44     1.0000 0.22080  0.55960  0.86200  Biso   1.000  Cu
  O154     1.0000 0.23230  0.46400  0.81600  Biso   1.000  O
  Cu45     1.0000 0.30120  0.44680  0.37850  Biso   1.000  Cu
  O155     1.0000 0.29200  0.53800  0.33200  Biso   1.000  O
  O156     1.0000 0.30460  0.59700  0.22350  Biso   1.000  O
  O157     1.0000 0.35290  0.42210  0.29040  Biso   1.000  O
  O158     1.0000 0.30860  0.44690  0.17540  Biso   1.000  O
  H23      1.0000 0.32850  0.40960  0.15930  Biso   1.000  H
  O159     1.0000 0.47550  0.44750  0.22690  Biso   1.000  O
  O160     1.0000 0.43800  0.54170  0.16510  Biso   1.000  O
  C67      1.0000 0.30940  0.54180  0.26260  Biso   1.000  C
  C68      1.0000 0.34900  0.47370  0.23530  Biso   1.000  C
  C69      1.0000 0.42650  0.49030  0.20690  Biso   1.000  C
  Cu46     1.0000 0.27920  0.44040  0.36200  Biso   1.000  Cu
  O161     1.0000 0.26770  0.53600  0.31600  Biso   1.000  O
  Cu47     1.0000 0.69880  0.94680  0.12150  Biso   1.000  Cu
  O162     1.0000 0.70800  0.03800  0.16800  Biso   1.000  O
  O163     1.0000 0.69540  0.09700  0.27650  Biso   1.000  O
  O164     1.0000 0.64710  0.92210  0.20960  Biso   1.000  O
  O165     1.0000 0.69140  0.94690  0.32460  Biso   1.000  O
  H24      1.0000 0.67150  0.90960  0.34070  Biso   1.000  H
  O166     1.0000 0.52450  0.94750  0.27310  Biso   1.000  O
  O167     1.0000 0.56200  0.04170  0.33490  Biso   1.000  O
  C70      1.0000 0.69060  0.04180  0.23740  Biso   1.000  C
  C71      1.0000 0.65100  0.97370  0.26470  Biso   1.000  C
  C72      1.0000 0.57350  0.99030  0.29310  Biso   1.000  C
  Cu48     1.0000 0.72080  0.94040  0.13800  Biso   1.000  Cu
  O168     1.0000 0.73230  0.03600  0.18400  Biso   1.000  O
  Mn1      1.0000 0.13092  0.13092  0.13092  Biso   1.000  Mn
  Mn2      1.0000 0.36908  0.86908  0.63092  Biso   1.000  Mn
  Mn3      1.0000 0.86908  0.63092  0.36908  Biso   1.000  Mn
  Mn4      1.0000 0.63092  0.36908  0.86908  Biso   1.000  Mn
  Mn5      1.0000 0.86908  0.86908  0.86908  Biso   1.000  Mn
  Mn6      1.0000 0.63092  0.13092  0.36908  Biso   1.000  Mn
  Mn7      1.0000 0.13092  0.36908  0.63092  Biso   1.000  Mn
  Mn8      1.0000 0.36908  0.63092  0.13092  Biso   1.000  Mn
  K1       1.0000 0.43660  0.06340  0.93660  Biso   1.000  K
  K2       1.0000 0.06340  0.93660  0.43660  Biso   1.000  K
  K3       1.0000 0.56340  0.56340  0.56340  Biso   1.000  K
  K4       1.0000 0.93660  0.43660  0.06340  Biso   1.000  K
  K5       1.0000 0.56340  0.93660  0.06340  Biso   1.000  K
  K6       1.0000 0.93660  0.06340  0.56340  Biso   1.000  K
  K7       1.0000 0.43660  0.43660  0.43660  Biso   1.000  K
  K8       1.0000 0.06340  0.56340  0.93660  Biso   1.000  K
