data_image0
_cell_length_a       18.452
_cell_length_b       18.452
_cell_length_c       40.925
_cell_angle_alpha    90
_cell_angle_beta     90
_cell_angle_gamma    120

_symmetry_space_group_name_H-M    "P 1"
_symmetry_int_tables_number       1

loop_
  _symmetry_equiv_pos_as_xyz
  'x, y, z'

loop_
  _atom_site_label
  _atom_site_occupancy
  _atom_site_fract_x
  _atom_site_fract_y
  _atom_site_fract_z
  _atom_site_thermal_displace_type
  _atom_site_B_iso_or_equiv
  _atom_site_type_symbol
  O1       1.0000 0.87091  0.00919  0.71615  Biso   1.000  O
  O2       1.0000 0.62822  0.10954  0.49825  Biso   1.000  O
  O3       1.0000 0.58807  0.02714  0.54276  Biso   1.000  O
  C1       1.0000 0.64070  0.09020  0.52631  Biso   1.000  C
  C2       1.0000 0.72236  0.14669  0.54192  Biso   1.000  C
  C3       1.0000 0.74610  0.12632  0.57141  Biso   1.000  C
  H1       1.0000 0.70930  0.07610  0.58160  Biso   1.000  H
  C4       1.0000 0.81320  0.07410  0.62610  Biso   1.000  C
  H2       1.0000 0.77350  0.03340  0.61240  Biso   1.000  H
  C5       1.0000 0.83370  0.04610  0.65450  Biso   1.000  C
  H3       1.0000 0.80700  0.98940  0.65970  Biso   1.000  H
  C6       1.0000 0.78380  0.09430  0.63770  Biso   1.000  C
  C7       1.0000 0.81160  0.07400  0.66690  Biso   1.000  C
  H4       1.0000 0.72710  0.06890  0.63260  Biso   1.000  H
  H5       1.0000 0.77140  0.03770  0.68160  Biso   1.000  H
  O4       1.0000 0.99081  0.86172  0.71615  Biso   1.000  O
  O5       1.0000 0.89046  0.51868  0.49825  Biso   1.000  O
  O6       1.0000 0.97286  0.56093  0.54276  Biso   1.000  O
  C8       1.0000 0.90980  0.55050  0.52631  Biso   1.000  C
  C9       1.0000 0.85331  0.57567  0.54192  Biso   1.000  C
  C10      1.0000 0.87368  0.61978  0.57141  Biso   1.000  C
  H6       1.0000 0.92390  0.63320  0.58160  Biso   1.000  H
  C11      1.0000 0.92590  0.73910  0.62610  Biso   1.000  C
  H7       1.0000 0.96660  0.74010  0.61240  Biso   1.000  H
  C12      1.0000 0.95390  0.78760  0.65450  Biso   1.000  C
  H8       1.0000 0.01060  0.81760  0.65970  Biso   1.000  H
  C13      1.0000 0.90570  0.68950  0.63770  Biso   1.000  C
  C14      1.0000 0.92600  0.73760  0.66690  Biso   1.000  C
  H9       1.0000 0.93110  0.65820  0.63260  Biso   1.000  H
  H10      1.0000 0.96230  0.73370  0.68160  Biso   1.000  H
  O7       1.0000 0.13828  0.12909  0.71615  Biso   1.000  O
  O8       1.0000 0.48132  0.37178  0.49825  Biso   1.000  O
  O9       1.0000 0.43907  0.41193  0.54276  Biso   1.000  O
  C15      1.0000 0.44950  0.35930  0.52631  Biso   1.000  C
  C16      1.0000 0.42433  0.27764  0.54192  Biso   1.000  C
  C17      1.0000 0.38022  0.25390  0.57141  Biso   1.000  C
  H11      1.0000 0.36680  0.29070  0.58160  Biso   1.000  H
  C18      1.0000 0.26090  0.18680  0.62610  Biso   1.000  C
  H12      1.0000 0.25990  0.22650  0.61240  Biso   1.000  H
  C19      1.0000 0.21240  0.16630  0.65450  Biso   1.000  C
  H13      1.0000 0.18240  0.19300  0.65970  Biso   1.000  H
  C20      1.0000 0.31050  0.21620  0.63770  Biso   1.000  C
  C21      1.0000 0.26240  0.18840  0.66690  Biso   1.000  C
  H14      1.0000 0.34180  0.27290  0.63260  Biso   1.000  H
  H15      1.0000 0.26630  0.22860  0.68160  Biso   1.000  H
  O10      1.0000 0.12909  0.99081  0.21615  Biso   1.000  O
  O11      1.0000 0.37178  0.89046  0.99825  Biso   1.000  O
  O12      1.0000 0.41193  0.97286  0.04276  Biso   1.000  O
  C22      1.0000 0.35930  0.90980  0.02631  Biso   1.000  C
  C23      1.0000 0.27764  0.85331  0.04192  Biso   1.000  C
  C24      1.0000 0.25390  0.87368  0.07141  Biso   1.000  C
  H16      1.0000 0.29070  0.92390  0.08160  Biso   1.000  H
  C25      1.0000 0.18680  0.92590  0.12610  Biso   1.000  C
  H17      1.0000 0.22650  0.96660  0.11240  Biso   1.000  H
  C26      1.0000 0.16630  0.95390  0.15450  Biso   1.000  C
  H18      1.0000 0.19300  0.01060  0.15970  Biso   1.000  H
  C27      1.0000 0.21620  0.90570  0.13770  Biso   1.000  C
  C28      1.0000 0.18840  0.92600  0.16690  Biso   1.000  C
  H19      1.0000 0.27290  0.93110  0.13260  Biso   1.000  H
  H20      1.0000 0.22860  0.96230  0.18160  Biso   1.000  H
  O13      1.0000 0.00919  0.13828  0.21615  Biso   1.000  O
  O14      1.0000 0.10954  0.48132  0.99825  Biso   1.000  O
  O15      1.0000 0.02714  0.43907  0.04276  Biso   1.000  O
  C29      1.0000 0.09020  0.44950  0.02631  Biso   1.000  C
  C30      1.0000 0.14669  0.42433  0.04192  Biso   1.000  C
  C31      1.0000 0.12632  0.38022  0.07141  Biso   1.000  C
  H21      1.0000 0.07610  0.36680  0.08160  Biso   1.000  H
  C32      1.0000 0.07410  0.26090  0.12610  Biso   1.000  C
  H22      1.0000 0.03340  0.25990  0.11240  Biso   1.000  H
  C33      1.0000 0.04610  0.21240  0.15450  Biso   1.000  C
  H23      1.0000 0.98940  0.18240  0.15970  Biso   1.000  H
  C34      1.0000 0.09430  0.31050  0.13770  Biso   1.000  C
  C35      1.0000 0.07400  0.26240  0.16690  Biso   1.000  C
  H24      1.0000 0.06890  0.34180  0.13260  Biso   1.000  H
  H25      1.0000 0.03770  0.26630  0.18160  Biso   1.000  H
  O16      1.0000 0.86172  0.87091  0.21615  Biso   1.000  O
  O17      1.0000 0.51868  0.62822  0.99825  Biso   1.000  O
  O18      1.0000 0.56093  0.58807  0.04276  Biso   1.000  O
  C36      1.0000 0.55050  0.64070  0.02631  Biso   1.000  C
  C37      1.0000 0.57567  0.72236  0.04192  Biso   1.000  C
  C38      1.0000 0.61978  0.74610  0.07141  Biso   1.000  C
  H26      1.0000 0.63320  0.70930  0.08160  Biso   1.000  H
  C39      1.0000 0.73910  0.81320  0.12610  Biso   1.000  C
  H27      1.0000 0.74010  0.77350  0.11240  Biso   1.000  H
  C40      1.0000 0.78760  0.83370  0.15450  Biso   1.000  C
  H28      1.0000 0.81760  0.80700  0.15970  Biso   1.000  H
  C41      1.0000 0.68950  0.78380  0.13770  Biso   1.000  C
  C42      1.0000 0.73760  0.81160  0.16690  Biso   1.000  C
  H29      1.0000 0.65820  0.72710  0.13260  Biso   1.000  H
  H30      1.0000 0.73370  0.77140  0.18160  Biso   1.000  H
  O19      1.0000 0.00919  0.87091  0.28385  Biso   1.000  O
  O20      1.0000 0.10954  0.62822  0.50175  Biso   1.000  O
  O21      1.0000 0.02714  0.58807  0.45724  Biso   1.000  O
  C43      1.0000 0.09020  0.64070  0.47369  Biso   1.000  C
  C44      1.0000 0.14669  0.72236  0.45808  Biso   1.000  C
  C45      1.0000 0.12632  0.74610  0.42859  Biso   1.000  C
  H31      1.0000 0.07610  0.70930  0.41840  Biso   1.000  H
  C46      1.0000 0.07410  0.81320  0.37390  Biso   1.000  C
  H32      1.0000 0.03340  0.77350  0.38760  Biso   1.000  H
  C47      1.0000 0.04610  0.83370  0.34550  Biso   1.000  C
  H33      1.0000 0.98940  0.80700  0.34030  Biso   1.000  H
  C48      1.0000 0.09430  0.78380  0.36230  Biso   1.000  C
  C49      1.0000 0.07400  0.81160  0.33310  Biso   1.000  C
  H34      1.0000 0.06890  0.72710  0.36740  Biso   1.000  H
  H35      1.0000 0.03770  0.77140  0.31840  Biso   1.000  H
  O22      1.0000 0.86172  0.99081  0.28385  Biso   1.000  O
  O23      1.0000 0.51868  0.89046  0.50175  Biso   1.000  O
  O24      1.0000 0.56093  0.97286  0.45724  Biso   1.000  O
  C50      1.0000 0.55050  0.90980  0.47369  Biso   1.000  C
  C51      1.0000 0.57567  0.85331  0.45808  Biso   1.000  C
  C52      1.0000 0.61978  0.87368  0.42859  Biso   1.000  C
  H36      1.0000 0.63320  0.92390  0.41840  Biso   1.000  H
  C53      1.0000 0.73910  0.92590  0.37390  Biso   1.000  C
  H37      1.0000 0.74010  0.96660  0.38760  Biso   1.000  H
  C54      1.0000 0.78760  0.95390  0.34550  Biso   1.000  C
  H38      1.0000 0.81760  0.01060  0.34030  Biso   1.000  H
  C55      1.0000 0.68950  0.90570  0.36230  Biso   1.000  C
  C56      1.0000 0.73760  0.92600  0.33310  Biso   1.000  C
  H39      1.0000 0.65820  0.93110  0.36740  Biso   1.000  H
  H40      1.0000 0.73370  0.96230  0.31840  Biso   1.000  H
  O25      1.0000 0.12909  0.13828  0.28385  Biso   1.000  O
  O26      1.0000 0.37178  0.48132  0.50175  Biso   1.000  O
  O27      1.0000 0.41193  0.43907  0.45724  Biso   1.000  O
  C57      1.0000 0.35930  0.44950  0.47369  Biso   1.000  C
  C58      1.0000 0.27764  0.42433  0.45808  Biso   1.000  C
  C59      1.0000 0.25390  0.38022  0.42859  Biso   1.000  C
  H41      1.0000 0.29070  0.36680  0.41840  Biso   1.000  H
  C60      1.0000 0.18680  0.26090  0.37390  Biso   1.000  C
  H42      1.0000 0.22650  0.25990  0.38760  Biso   1.000  H
  C61      1.0000 0.16630  0.21240  0.34550  Biso   1.000  C
  H43      1.0000 0.19300  0.18240  0.34030  Biso   1.000  H
  C62      1.0000 0.21620  0.31050  0.36230  Biso   1.000  C
  C63      1.0000 0.18840  0.26240  0.33310  Biso   1.000  C
  H44      1.0000 0.27290  0.34180  0.36740  Biso   1.000  H
  H45      1.0000 0.22860  0.26630  0.31840  Biso   1.000  H
  O28      1.0000 0.99081  0.12909  0.78385  Biso   1.000  O
  O29      1.0000 0.89046  0.37178  0.00175  Biso   1.000  O
  O30      1.0000 0.97286  0.41193  0.95724  Biso   1.000  O
  C64      1.0000 0.90980  0.35930  0.97369  Biso   1.000  C
  C65      1.0000 0.85331  0.27764  0.95808  Biso   1.000  C
  C66      1.0000 0.87368  0.25390  0.92859  Biso   1.000  C
  H46      1.0000 0.92390  0.29070  0.91840  Biso   1.000  H
  C67      1.0000 0.92590  0.18680  0.87390  Biso   1.000  C
  H47      1.0000 0.96660  0.22650  0.88760  Biso   1.000  H
  C68      1.0000 0.95390  0.16630  0.84550  Biso   1.000  C
  H48      1.0000 0.01060  0.19300  0.84030  Biso   1.000  H
  C69      1.0000 0.90570  0.21620  0.86230  Biso   1.000  C
  C70      1.0000 0.92600  0.18840  0.83310  Biso   1.000  C
  H49      1.0000 0.93110  0.27290  0.86740  Biso   1.000  H
  H50      1.0000 0.96230  0.22860  0.81840  Biso   1.000  H
  O31      1.0000 0.13828  0.00919  0.78385  Biso   1.000  O
  O32      1.0000 0.48132  0.10954  0.00175  Biso   1.000  O
  O33      1.0000 0.43907  0.02714  0.95724  Biso   1.000  O
  C71      1.0000 0.44950  0.09020  0.97369  Biso   1.000  C
  C72      1.0000 0.42433  0.14669  0.95808  Biso   1.000  C
  C73      1.0000 0.38022  0.12632  0.92859  Biso   1.000  C
  H51      1.0000 0.36680  0.07610  0.91840  Biso   1.000  H
  C74      1.0000 0.26090  0.07410  0.87390  Biso   1.000  C
  H52      1.0000 0.25990  0.03340  0.88760  Biso   1.000  H
  C75      1.0000 0.21240  0.04610  0.84550  Biso   1.000  C
  H53      1.0000 0.18240  0.98940  0.84030  Biso   1.000  H
  C76      1.0000 0.31050  0.09430  0.86230  Biso   1.000  C
  C77      1.0000 0.26240  0.07400  0.83310  Biso   1.000  C
  H54      1.0000 0.34180  0.06890  0.86740  Biso   1.000  H
  H55      1.0000 0.26630  0.03770  0.81840  Biso   1.000  H
  O34      1.0000 0.87091  0.86172  0.78385  Biso   1.000  O
  O35      1.0000 0.62822  0.51868  0.00175  Biso   1.000  O
  O36      1.0000 0.58807  0.56093  0.95724  Biso   1.000  O
  C78      1.0000 0.64070  0.55050  0.97369  Biso   1.000  C
  C79      1.0000 0.72236  0.57567  0.95808  Biso   1.000  C
  C80      1.0000 0.74610  0.61978  0.92859  Biso   1.000  C
  H56      1.0000 0.70930  0.63320  0.91840  Biso   1.000  H
  C81      1.0000 0.81320  0.73910  0.87390  Biso   1.000  C
  H57      1.0000 0.77350  0.74010  0.88760  Biso   1.000  H
  C82      1.0000 0.83370  0.78760  0.84550  Biso   1.000  C
  H58      1.0000 0.80700  0.81760  0.84030  Biso   1.000  H
  C83      1.0000 0.78380  0.68950  0.86230  Biso   1.000  C
  C84      1.0000 0.81160  0.73760  0.83310  Biso   1.000  C
  H59      1.0000 0.72710  0.65820  0.86740  Biso   1.000  H
  H60      1.0000 0.77140  0.73370  0.81840  Biso   1.000  H
  O37      1.0000 0.12909  0.99081  0.28385  Biso   1.000  O
  O38      1.0000 0.37178  0.89046  0.50175  Biso   1.000  O
  O39      1.0000 0.41193  0.97286  0.45724  Biso   1.000  O
  C85      1.0000 0.35930  0.90980  0.47369  Biso   1.000  C
  C86      1.0000 0.27764  0.85331  0.45808  Biso   1.000  C
  C87      1.0000 0.25390  0.87368  0.42859  Biso   1.000  C
  H61      1.0000 0.29070  0.92390  0.41840  Biso   1.000  H
  C88      1.0000 0.18680  0.92590  0.37390  Biso   1.000  C
  H62      1.0000 0.22650  0.96660  0.38760  Biso   1.000  H
  C89      1.0000 0.16630  0.95390  0.34550  Biso   1.000  C
  H63      1.0000 0.19300  0.01060  0.34030  Biso   1.000  H
  C90      1.0000 0.21620  0.90570  0.36230  Biso   1.000  C
  C91      1.0000 0.18840  0.92600  0.33310  Biso   1.000  C
  H64      1.0000 0.27290  0.93110  0.36740  Biso   1.000  H
  H65      1.0000 0.22860  0.96230  0.31840  Biso   1.000  H
  O40      1.0000 0.00919  0.13828  0.28385  Biso   1.000  O
  O41      1.0000 0.10954  0.48132  0.50175  Biso   1.000  O
  O42      1.0000 0.02714  0.43907  0.45724  Biso   1.000  O
  C92      1.0000 0.09020  0.44950  0.47369  Biso   1.000  C
  C93      1.0000 0.14669  0.42433  0.45808  Biso   1.000  C
  C94      1.0000 0.12632  0.38022  0.42859  Biso   1.000  C
  H66      1.0000 0.07610  0.36680  0.41840  Biso   1.000  H
  C95      1.0000 0.07410  0.26090  0.37390  Biso   1.000  C
  H67      1.0000 0.03340  0.25990  0.38760  Biso   1.000  H
  C96      1.0000 0.04610  0.21240  0.34550  Biso   1.000  C
  H68      1.0000 0.98940  0.18240  0.34030  Biso   1.000  H
  C97      1.0000 0.09430  0.31050  0.36230  Biso   1.000  C
  C98      1.0000 0.07400  0.26240  0.33310  Biso   1.000  C
  H69      1.0000 0.06890  0.34180  0.36740  Biso   1.000  H
  H70      1.0000 0.03770  0.26630  0.31840  Biso   1.000  H
  O43      1.0000 0.86172  0.87091  0.28385  Biso   1.000  O
  O44      1.0000 0.51868  0.62822  0.50175  Biso   1.000  O
  O45      1.0000 0.56093  0.58807  0.45724  Biso   1.000  O
  C99      1.0000 0.55050  0.64070  0.47369  Biso   1.000  C
  C100     1.0000 0.57567  0.72236  0.45808  Biso   1.000  C
  C101     1.0000 0.61978  0.74610  0.42859  Biso   1.000  C
  H71      1.0000 0.63320  0.70930  0.41840  Biso   1.000  H
  C102     1.0000 0.73910  0.81320  0.37390  Biso   1.000  C
  H72      1.0000 0.74010  0.77350  0.38760  Biso   1.000  H
  C103     1.0000 0.78760  0.83370  0.34550  Biso   1.000  C
  H73      1.0000 0.81760  0.80700  0.34030  Biso   1.000  H
  C104     1.0000 0.68950  0.78380  0.36230  Biso   1.000  C
  C105     1.0000 0.73760  0.81160  0.33310  Biso   1.000  C
  H74      1.0000 0.65820  0.72710  0.36740  Biso   1.000  H
  H75      1.0000 0.73370  0.77140  0.31840  Biso   1.000  H
  O46      1.0000 0.87091  0.00919  0.78385  Biso   1.000  O
  O47      1.0000 0.62822  0.10954  0.00175  Biso   1.000  O
  O48      1.0000 0.58807  0.02714  0.95724  Biso   1.000  O
  C106     1.0000 0.64070  0.09020  0.97369  Biso   1.000  C
  C107     1.0000 0.72236  0.14669  0.95808  Biso   1.000  C
  C108     1.0000 0.74610  0.12632  0.92859  Biso   1.000  C
  H76      1.0000 0.70930  0.07610  0.91840  Biso   1.000  H
  C109     1.0000 0.81320  0.07410  0.87390  Biso   1.000  C
  H77      1.0000 0.77350  0.03340  0.88760  Biso   1.000  H
  C110     1.0000 0.83370  0.04610  0.84550  Biso   1.000  C
  H78      1.0000 0.80700  0.98940  0.84030  Biso   1.000  H
  C111     1.0000 0.78380  0.09430  0.86230  Biso   1.000  C
  C112     1.0000 0.81160  0.07400  0.83310  Biso   1.000  C
  H79      1.0000 0.72710  0.06890  0.86740  Biso   1.000  H
  H80      1.0000 0.77140  0.03770  0.81840  Biso   1.000  H
  O49      1.0000 0.99081  0.86172  0.78385  Biso   1.000  O
  O50      1.0000 0.89046  0.51868  0.00175  Biso   1.000  O
  O51      1.0000 0.97286  0.56093  0.95724  Biso   1.000  O
  C113     1.0000 0.90980  0.55050  0.97369  Biso   1.000  C
  C114     1.0000 0.85331  0.57567  0.95808  Biso   1.000  C
  C115     1.0000 0.87368  0.61978  0.92859  Biso   1.000  C
  H81      1.0000 0.92390  0.63320  0.91840  Biso   1.000  H
  C116     1.0000 0.92590  0.73910  0.87390  Biso   1.000  C
  H82      1.0000 0.96660  0.74010  0.88760  Biso   1.000  H
  C117     1.0000 0.95390  0.78760  0.84550  Biso   1.000  C
  H83      1.0000 0.01060  0.81760  0.84030  Biso   1.000  H
  C118     1.0000 0.90570  0.68950  0.86230  Biso   1.000  C
  C119     1.0000 0.92600  0.73760  0.83310  Biso   1.000  C
  H84      1.0000 0.93110  0.65820  0.86740  Biso   1.000  H
  H85      1.0000 0.96230  0.73370  0.81840  Biso   1.000  H
  O52      1.0000 0.13828  0.12909  0.78385  Biso   1.000  O
  O53      1.0000 0.48132  0.37178  0.00175  Biso   1.000  O
  O54      1.0000 0.43907  0.41193  0.95724  Biso   1.000  O
  C120     1.0000 0.44950  0.35930  0.97369  Biso   1.000  C
  C121     1.0000 0.42433  0.27764  0.95808  Biso   1.000  C
  C122     1.0000 0.38022  0.25390  0.92859  Biso   1.000  C
  H86      1.0000 0.36680  0.29070  0.91840  Biso   1.000  H
  C123     1.0000 0.26090  0.18680  0.87390  Biso   1.000  C
  H87      1.0000 0.25990  0.22650  0.88760  Biso   1.000  H
  C124     1.0000 0.21240  0.16630  0.84550  Biso   1.000  C
  H88      1.0000 0.18240  0.19300  0.84030  Biso   1.000  H
  C125     1.0000 0.31050  0.21620  0.86230  Biso   1.000  C
  C126     1.0000 0.26240  0.18840  0.83310  Biso   1.000  C
  H89      1.0000 0.34180  0.27290  0.86740  Biso   1.000  H
  H90      1.0000 0.26630  0.22860  0.81840  Biso   1.000  H
  O55      1.0000 0.99081  0.12909  0.71615  Biso   1.000  O
  O56      1.0000 0.89046  0.37178  0.49825  Biso   1.000  O
  O57      1.0000 0.97286  0.41193  0.54276  Biso   1.000  O
  C127     1.0000 0.90980  0.35930  0.52631  Biso   1.000  C
  C128     1.0000 0.85331  0.27764  0.54192  Biso   1.000  C
  C129     1.0000 0.87368  0.25390  0.57141  Biso   1.000  C
  H91      1.0000 0.92390  0.29070  0.58160  Biso   1.000  H
  C130     1.0000 0.92590  0.18680  0.62610  Biso   1.000  C
  H92      1.0000 0.96660  0.22650  0.61240  Biso   1.000  H
  C131     1.0000 0.95390  0.16630  0.65450  Biso   1.000  C
  H93      1.0000 0.01060  0.19300  0.65970  Biso   1.000  H
  C132     1.0000 0.90570  0.21620  0.63770  Biso   1.000  C
  C133     1.0000 0.92600  0.18840  0.66690  Biso   1.000  C
  H94      1.0000 0.93110  0.27290  0.63260  Biso   1.000  H
  H95      1.0000 0.96230  0.22860  0.68160  Biso   1.000  H
  O58      1.0000 0.13828  0.00919  0.71615  Biso   1.000  O
  O59      1.0000 0.48132  0.10954  0.49825  Biso   1.000  O
  O60      1.0000 0.43907  0.02714  0.54276  Biso   1.000  O
  C134     1.0000 0.44950  0.09020  0.52631  Biso   1.000  C
  C135     1.0000 0.42433  0.14669  0.54192  Biso   1.000  C
  C136     1.0000 0.38022  0.12632  0.57141  Biso   1.000  C
  H96      1.0000 0.36680  0.07610  0.58160  Biso   1.000  H
  C137     1.0000 0.26090  0.07410  0.62610  Biso   1.000  C
  H97      1.0000 0.25990  0.03340  0.61240  Biso   1.000  H
  C138     1.0000 0.21240  0.04610  0.65450  Biso   1.000  C
  H98      1.0000 0.18240  0.98940  0.65970  Biso   1.000  H
  C139     1.0000 0.31050  0.09430  0.63770  Biso   1.000  C
  C140     1.0000 0.26240  0.07400  0.66690  Biso   1.000  C
  H99      1.0000 0.34180  0.06890  0.63260  Biso   1.000  H
  H100     1.0000 0.26630  0.03770  0.68160  Biso   1.000  H
  O61      1.0000 0.87091  0.86172  0.71615  Biso   1.000  O
  O62      1.0000 0.62822  0.51868  0.49825  Biso   1.000  O
  O63      1.0000 0.58807  0.56093  0.54276  Biso   1.000  O
  C141     1.0000 0.64070  0.55050  0.52631  Biso   1.000  C
  C142     1.0000 0.72236  0.57567  0.54192  Biso   1.000  C
  C143     1.0000 0.74610  0.61978  0.57141  Biso   1.000  C
  H101     1.0000 0.70930  0.63320  0.58160  Biso   1.000  H
  C144     1.0000 0.81320  0.73910  0.62610  Biso   1.000  C
  H102     1.0000 0.77350  0.74010  0.61240  Biso   1.000  H
  C145     1.0000 0.83370  0.78760  0.65450  Biso   1.000  C
  H103     1.0000 0.80700  0.81760  0.65970  Biso   1.000  H
  C146     1.0000 0.78380  0.68950  0.63770  Biso   1.000  C
  C147     1.0000 0.81160  0.73760  0.66690  Biso   1.000  C
  H104     1.0000 0.72710  0.65820  0.63260  Biso   1.000  H
  H105     1.0000 0.77140  0.73370  0.68160  Biso   1.000  H
  O64      1.0000 0.00919  0.87091  0.21615  Biso   1.000  O
  O65      1.0000 0.10954  0.62822  0.99825  Biso   1.000  O
  O66      1.0000 0.02714  0.58807  0.04276  Biso   1.000  O
  C148     1.0000 0.09020  0.64070  0.02631  Biso   1.000  C
  C149     1.0000 0.14669  0.72236  0.04192  Biso   1.000  C
  C150     1.0000 0.12632  0.74610  0.07141  Biso   1.000  C
  H106     1.0000 0.07610  0.70930  0.08160  Biso   1.000  H
  C151     1.0000 0.07410  0.81320  0.12610  Biso   1.000  C
  H107     1.0000 0.03340  0.77350  0.11240  Biso   1.000  H
  C152     1.0000 0.04610  0.83370  0.15450  Biso   1.000  C
  H108     1.0000 0.98940  0.80700  0.15970  Biso   1.000  H
  C153     1.0000 0.09430  0.78380  0.13770  Biso   1.000  C
  C154     1.0000 0.07400  0.81160  0.16690  Biso   1.000  C
  H109     1.0000 0.06890  0.72710  0.13260  Biso   1.000  H
  H110     1.0000 0.03770  0.77140  0.18160  Biso   1.000  H
  O67      1.0000 0.86172  0.99081  0.21615  Biso   1.000  O
  O68      1.0000 0.51868  0.89046  0.99825  Biso   1.000  O
  O69      1.0000 0.56093  0.97286  0.04276  Biso   1.000  O
  C155     1.0000 0.55050  0.90980  0.02631  Biso   1.000  C
  C156     1.0000 0.57567  0.85331  0.04192  Biso   1.000  C
  C157     1.0000 0.61978  0.87368  0.07141  Biso   1.000  C
  H111     1.0000 0.63320  0.92390  0.08160  Biso   1.000  H
  C158     1.0000 0.73910  0.92590  0.12610  Biso   1.000  C
  H112     1.0000 0.74010  0.96660  0.11240  Biso   1.000  H
  C159     1.0000 0.78760  0.95390  0.15450  Biso   1.000  C
  H113     1.0000 0.81760  0.01060  0.15970  Biso   1.000  H
  C160     1.0000 0.68950  0.90570  0.13770  Biso   1.000  C
  C161     1.0000 0.73760  0.92600  0.16690  Biso   1.000  C
  H114     1.0000 0.65820  0.93110  0.13260  Biso   1.000  H
  H115     1.0000 0.73370  0.96230  0.18160  Biso   1.000  H
  O70      1.0000 0.12909  0.13828  0.21615  Biso   1.000  O
  O71      1.0000 0.37178  0.48132  0.99825  Biso   1.000  O
  O72      1.0000 0.41193  0.43907  0.04276  Biso   1.000  O
  C162     1.0000 0.35930  0.44950  0.02631  Biso   1.000  C
  C163     1.0000 0.27764  0.42433  0.04192  Biso   1.000  C
  C164     1.0000 0.25390  0.38022  0.07141  Biso   1.000  C
  H116     1.0000 0.29070  0.36680  0.08160  Biso   1.000  H
  C165     1.0000 0.18680  0.26090  0.12610  Biso   1.000  C
  H117     1.0000 0.22650  0.25990  0.11240  Biso   1.000  H
  C166     1.0000 0.16630  0.21240  0.15450  Biso   1.000  C
  H118     1.0000 0.19300  0.18240  0.15970  Biso   1.000  H
  C167     1.0000 0.21620  0.31050  0.13770  Biso   1.000  C
  C168     1.0000 0.18840  0.26240  0.16690  Biso   1.000  C
  H119     1.0000 0.27290  0.34180  0.13260  Biso   1.000  H
  H120     1.0000 0.22860  0.26630  0.18160  Biso   1.000  H
  Cu1      1.0000 0.52395  0.04791  0.47406  Biso   1.000  Cu
  Cu2      1.0000 0.95209  0.47604  0.47406  Biso   1.000  Cu
  Cu3      1.0000 0.52396  0.47604  0.47406  Biso   1.000  Cu
  Cu4      1.0000 0.47604  0.95209  0.97406  Biso   1.000  Cu
  Cu5      1.0000 0.04791  0.52396  0.97406  Biso   1.000  Cu
  Cu6      1.0000 0.47604  0.52396  0.97406  Biso   1.000  Cu
  Cu7      1.0000 0.04791  0.52396  0.52594  Biso   1.000  Cu
  Cu8      1.0000 0.47604  0.95209  0.52594  Biso   1.000  Cu
  Cu9      1.0000 0.47604  0.52396  0.52594  Biso   1.000  Cu
  Cu10     1.0000 0.95209  0.47605  0.02594  Biso   1.000  Cu
  Cu11     1.0000 0.52396  0.04791  0.02594  Biso   1.000  Cu
  Cu12     1.0000 0.52395  0.47604  0.02594  Biso   1.000  Cu
  Fe1      1.0000 0.88308  0.94154  0.75000  Biso   1.000  Fe
  Fe2      1.0000 0.05846  0.94154  0.75000  Biso   1.000  Fe
  Fe3      1.0000 0.05846  0.11692  0.75000  Biso   1.000  Fe
  Fe4      1.0000 0.11692  0.05846  0.25000  Biso   1.000  Fe
  Fe5      1.0000 0.94154  0.05846  0.25000  Biso   1.000  Fe
  Fe6      1.0000 0.94154  0.88308  0.25000  Biso   1.000  Fe
  O73      1.0000 0.00000  0.00000  0.75000  Biso   1.000  O
  O74      1.0000 0.00000  0.00000  0.25000  Biso   1.000  O
  C169     1.0000 0.77679  0.22321  0.52746  Biso   1.000  C
  H121     1.0000 0.76190  0.23810  0.50790  Biso   1.000  H
  C170     1.0000 0.82204  0.17796  0.58578  Biso   1.000  C
  C171     1.0000 0.84541  0.15459  0.61661  Biso   1.000  C
  C172     1.0000 0.89492  0.10508  0.67466  Biso   1.000  C
  C173     1.0000 0.92131  0.07869  0.70452  Biso   1.000  C
  C174     1.0000 0.77679  0.55358  0.52746  Biso   1.000  C
  H122     1.0000 0.76190  0.52380  0.50790  Biso   1.000  H
  C175     1.0000 0.82204  0.64408  0.58578  Biso   1.000  C
  C176     1.0000 0.84541  0.69082  0.61661  Biso   1.000  C
  C177     1.0000 0.89492  0.78984  0.67466  Biso   1.000  C
  C178     1.0000 0.92131  0.84262  0.70452  Biso   1.000  C
  C179     1.0000 0.44642  0.22321  0.52746  Biso   1.000  C
  H123     1.0000 0.47620  0.23810  0.50790  Biso   1.000  H
  C180     1.0000 0.35592  0.17796  0.58578  Biso   1.000  C
  C181     1.0000 0.30918  0.15459  0.61661  Biso   1.000  C
  C182     1.0000 0.21016  0.10508  0.67466  Biso   1.000  C
  C183     1.0000 0.15738  0.07869  0.70452  Biso   1.000  C
  C184     1.0000 0.22321  0.77679  0.02746  Biso   1.000  C
  H124     1.0000 0.23810  0.76190  0.00790  Biso   1.000  H
  C185     1.0000 0.17796  0.82204  0.08578  Biso   1.000  C
  C186     1.0000 0.15459  0.84541  0.11661  Biso   1.000  C
  C187     1.0000 0.10508  0.89492  0.17466  Biso   1.000  C
  C188     1.0000 0.07869  0.92131  0.20452  Biso   1.000  C
  C189     1.0000 0.22321  0.44642  0.02746  Biso   1.000  C
  H125     1.0000 0.23810  0.47620  0.00790  Biso   1.000  H
  C190     1.0000 0.17796  0.35592  0.08578  Biso   1.000  C
  C191     1.0000 0.15459  0.30918  0.11661  Biso   1.000  C
  C192     1.0000 0.10508  0.21016  0.17466  Biso   1.000  C
  C193     1.0000 0.07869  0.15738  0.20452  Biso   1.000  C
  C194     1.0000 0.55358  0.77679  0.02746  Biso   1.000  C
  H126     1.0000 0.52380  0.76190  0.00790  Biso   1.000  H
  C195     1.0000 0.64408  0.82204  0.08578  Biso   1.000  C
  C196     1.0000 0.69082  0.84541  0.11661  Biso   1.000  C
  C197     1.0000 0.78984  0.89492  0.17466  Biso   1.000  C
  C198     1.0000 0.84262  0.92131  0.20452  Biso   1.000  C
  C199     1.0000 0.22321  0.77679  0.47254  Biso   1.000  C
  H127     1.0000 0.23810  0.76190  0.49210  Biso   1.000  H
  C200     1.0000 0.17796  0.82204  0.41422  Biso   1.000  C
  C201     1.0000 0.15459  0.84541  0.38339  Biso   1.000  C
  C202     1.0000 0.10508  0.89492  0.32534  Biso   1.000  C
  C203     1.0000 0.07869  0.92131  0.29548  Biso   1.000  C
  C204     1.0000 0.55358  0.77679  0.47254  Biso   1.000  C
  H128     1.0000 0.52380  0.76190  0.49210  Biso   1.000  H
  C205     1.0000 0.64408  0.82204  0.41422  Biso   1.000  C
  C206     1.0000 0.69082  0.84541  0.38339  Biso   1.000  C
  C207     1.0000 0.78984  0.89492  0.32534  Biso   1.000  C
  C208     1.0000 0.84262  0.92131  0.29548  Biso   1.000  C
  C209     1.0000 0.22321  0.44642  0.47254  Biso   1.000  C
  H129     1.0000 0.23810  0.47620  0.49210  Biso   1.000  H
  C210     1.0000 0.17796  0.35592  0.41422  Biso   1.000  C
  C211     1.0000 0.15459  0.30918  0.38339  Biso   1.000  C
  C212     1.0000 0.10508  0.21016  0.32534  Biso   1.000  C
  C213     1.0000 0.07869  0.15738  0.29548  Biso   1.000  C
  C214     1.0000 0.77679  0.22321  0.97254  Biso   1.000  C
  H130     1.0000 0.76190  0.23810  0.99210  Biso   1.000  H
  C215     1.0000 0.82204  0.17796  0.91422  Biso   1.000  C
  C216     1.0000 0.84541  0.15459  0.88339  Biso   1.000  C
  C217     1.0000 0.89492  0.10508  0.82534  Biso   1.000  C
  C218     1.0000 0.92131  0.07869  0.79548  Biso   1.000  C
  C219     1.0000 0.44642  0.22321  0.97254  Biso   1.000  C
  H131     1.0000 0.47620  0.23810  0.99210  Biso   1.000  H
  C220     1.0000 0.35592  0.17796  0.91422  Biso   1.000  C
  C221     1.0000 0.30918  0.15459  0.88339  Biso   1.000  C
  C222     1.0000 0.21016  0.10508  0.82534  Biso   1.000  C
  C223     1.0000 0.15738  0.07869  0.79548  Biso   1.000  C
  C224     1.0000 0.77679  0.55358  0.97254  Biso   1.000  C
  H132     1.0000 0.76190  0.52380  0.99210  Biso   1.000  H
  C225     1.0000 0.82204  0.64408  0.91422  Biso   1.000  C
  C226     1.0000 0.84541  0.69082  0.88339  Biso   1.000  C
  C227     1.0000 0.89492  0.78984  0.82534  Biso   1.000  C
  C228     1.0000 0.92131  0.84262  0.79548  Biso   1.000  C
