data_image0
_cell_length_a       13.1406
_cell_length_b       13.1406
_cell_length_c       13.6199
_cell_angle_alpha    90
_cell_angle_beta     90
_cell_angle_gamma    120

_symmetry_space_group_name_H-M    "P 1"
_symmetry_int_tables_number       1

loop_
  _symmetry_equiv_pos_as_xyz
  'x, y, z'

loop_
  _atom_site_label
  _atom_site_occupancy
  _atom_site_fract_x
  _atom_site_fract_y
  _atom_site_fract_z
  _atom_site_thermal_displace_type
  _atom_site_B_iso_or_equiv
  _atom_site_type_symbol
  C1       1.0000 0.13700  0.34810  0.58590  Biso   1.000  C
  C2       1.0000 0.02590  0.25640  0.64110  Biso   1.000  C
  H1       1.0000 0.96580  0.27740  0.63590  Biso   1.000  H
  H2       1.0000 0.99820  0.18020  0.61270  Biso   1.000  H
  H3       1.0000 0.04450  0.25480  0.70910  Biso   1.000  H
  N1       1.0000 0.23850  0.35320  0.58620  Biso   1.000  N
  H4       1.0000 0.64770  0.17440  0.28180  Biso   1.000  H
  H5       1.0000 0.58540  0.17440  0.18360  Biso   1.000  H
  N2       1.0000 0.13930  0.44110  0.53220  Biso   1.000  N
  C3       1.0000 0.65190  0.78890  0.58590  Biso   1.000  C
  C4       1.0000 0.74360  0.76950  0.64110  Biso   1.000  C
  H6       1.0000 0.72260  0.68840  0.63590  Biso   1.000  H
  H7       1.0000 0.81980  0.81800  0.61270  Biso   1.000  H
  H8       1.0000 0.74520  0.78970  0.70910  Biso   1.000  H
  N3       1.0000 0.64680  0.88530  0.58620  Biso   1.000  N
  H9       1.0000 0.82560  0.47330  0.28180  Biso   1.000  H
  H10      1.0000 0.82560  0.41100  0.18360  Biso   1.000  H
  N4       1.0000 0.55890  0.69820  0.53220  Biso   1.000  N
  C5       1.0000 0.21110  0.86300  0.58590  Biso   1.000  C
  C6       1.0000 0.23050  0.97410  0.64110  Biso   1.000  C
  H11      1.0000 0.31160  0.03420  0.63590  Biso   1.000  H
  H12      1.0000 0.18200  0.00180  0.61270  Biso   1.000  H
  H13      1.0000 0.21030  0.95550  0.70910  Biso   1.000  H
  N5       1.0000 0.11470  0.76150  0.58620  Biso   1.000  N
  H14      1.0000 0.52670  0.35230  0.28180  Biso   1.000  H
  H15      1.0000 0.58900  0.41460  0.18360  Biso   1.000  H
  N6       1.0000 0.30180  0.86070  0.53220  Biso   1.000  N
  C7       1.0000 0.86300  0.65190  0.08590  Biso   1.000  C
  C8       1.0000 0.97410  0.74360  0.14110  Biso   1.000  C
  H16      1.0000 0.03420  0.72260  0.13590  Biso   1.000  H
  H17      1.0000 0.00180  0.81980  0.11270  Biso   1.000  H
  H18      1.0000 0.95550  0.74520  0.20910  Biso   1.000  H
  N7       1.0000 0.76150  0.64680  0.08620  Biso   1.000  N
  H19      1.0000 0.35230  0.82560  0.78180  Biso   1.000  H
  H20      1.0000 0.41460  0.82560  0.68360  Biso   1.000  H
  N8       1.0000 0.86070  0.55890  0.03220  Biso   1.000  N
  C9       1.0000 0.34810  0.21110  0.08590  Biso   1.000  C
  C10      1.0000 0.25640  0.23050  0.14110  Biso   1.000  C
  H21      1.0000 0.27740  0.31160  0.13590  Biso   1.000  H
  H22      1.0000 0.18020  0.18200  0.11270  Biso   1.000  H
  H23      1.0000 0.25480  0.21030  0.20910  Biso   1.000  H
  N9       1.0000 0.35320  0.11470  0.08620  Biso   1.000  N
  H24      1.0000 0.17440  0.52670  0.78180  Biso   1.000  H
  H25      1.0000 0.17440  0.58900  0.68360  Biso   1.000  H
  N10      1.0000 0.44110  0.30180  0.03220  Biso   1.000  N
  C11      1.0000 0.78890  0.13700  0.08590  Biso   1.000  C
  C12      1.0000 0.76950  0.02590  0.14110  Biso   1.000  C
  H26      1.0000 0.68840  0.96580  0.13590  Biso   1.000  H
  H27      1.0000 0.81800  0.99820  0.11270  Biso   1.000  H
  H28      1.0000 0.78970  0.04450  0.20910  Biso   1.000  H
  N11      1.0000 0.88530  0.23850  0.08620  Biso   1.000  N
  H29      1.0000 0.47330  0.64770  0.78180  Biso   1.000  H
  H30      1.0000 0.41100  0.58540  0.68360  Biso   1.000  H
  N12      1.0000 0.69820  0.13930  0.03220  Biso   1.000  N
  C13      1.0000 0.34810  0.13700  0.41410  Biso   1.000  C
  C14      1.0000 0.25640  0.02590  0.35890  Biso   1.000  C
  H31      1.0000 0.27740  0.96580  0.36410  Biso   1.000  H
  H32      1.0000 0.18020  0.99820  0.38730  Biso   1.000  H
  H33      1.0000 0.25480  0.04450  0.29090  Biso   1.000  H
  N13      1.0000 0.35320  0.23850  0.41380  Biso   1.000  N
  H34      1.0000 0.17440  0.64770  0.71820  Biso   1.000  H
  H35      1.0000 0.17440  0.58540  0.81640  Biso   1.000  H
  N14      1.0000 0.44110  0.13930  0.46780  Biso   1.000  N
  C15      1.0000 0.78890  0.65190  0.41410  Biso   1.000  C
  C16      1.0000 0.76950  0.74360  0.35890  Biso   1.000  C
  H36      1.0000 0.68840  0.72260  0.36410  Biso   1.000  H
  H37      1.0000 0.81800  0.81980  0.38730  Biso   1.000  H
  H38      1.0000 0.78970  0.74520  0.29090  Biso   1.000  H
  N15      1.0000 0.88530  0.64680  0.41380  Biso   1.000  N
  H39      1.0000 0.47330  0.82560  0.71820  Biso   1.000  H
  H40      1.0000 0.41100  0.82560  0.81640  Biso   1.000  H
  N16      1.0000 0.69820  0.55890  0.46780  Biso   1.000  N
  C17      1.0000 0.86300  0.21110  0.41410  Biso   1.000  C
  C18      1.0000 0.97410  0.23050  0.35890  Biso   1.000  C
  H41      1.0000 0.03420  0.31160  0.36410  Biso   1.000  H
  H42      1.0000 0.00180  0.18200  0.38730  Biso   1.000  H
  H43      1.0000 0.95550  0.21030  0.29090  Biso   1.000  H
  N17      1.0000 0.76150  0.11470  0.41380  Biso   1.000  N
  H44      1.0000 0.35230  0.52670  0.71820  Biso   1.000  H
  H45      1.0000 0.41460  0.58900  0.81640  Biso   1.000  H
  N18      1.0000 0.86070  0.30180  0.46780  Biso   1.000  N
  C19      1.0000 0.65190  0.86300  0.91410  Biso   1.000  C
  C20      1.0000 0.74360  0.97410  0.85890  Biso   1.000  C
  H46      1.0000 0.72260  0.03420  0.86410  Biso   1.000  H
  H47      1.0000 0.81980  0.00180  0.88730  Biso   1.000  H
  H48      1.0000 0.74520  0.95550  0.79090  Biso   1.000  H
  N19      1.0000 0.64680  0.76150  0.91380  Biso   1.000  N
  H49      1.0000 0.82560  0.35230  0.21820  Biso   1.000  H
  H50      1.0000 0.82560  0.41460  0.31640  Biso   1.000  H
  N20      1.0000 0.55890  0.86070  0.96780  Biso   1.000  N
  C21      1.0000 0.21110  0.34810  0.91410  Biso   1.000  C
  C22      1.0000 0.23050  0.25640  0.85890  Biso   1.000  C
  H51      1.0000 0.31160  0.27740  0.86410  Biso   1.000  H
  H52      1.0000 0.18200  0.18020  0.88730  Biso   1.000  H
  H53      1.0000 0.21030  0.25480  0.79090  Biso   1.000  H
  N21      1.0000 0.11470  0.35320  0.91380  Biso   1.000  N
  H54      1.0000 0.52670  0.17440  0.21820  Biso   1.000  H
  H55      1.0000 0.58900  0.17440  0.31640  Biso   1.000  H
  N22      1.0000 0.30180  0.44110  0.96780  Biso   1.000  N
  C23      1.0000 0.13700  0.78890  0.91410  Biso   1.000  C
  C24      1.0000 0.02590  0.76950  0.85890  Biso   1.000  C
  H56      1.0000 0.96580  0.68840  0.86410  Biso   1.000  H
  H57      1.0000 0.99820  0.81800  0.88730  Biso   1.000  H
  H58      1.0000 0.04450  0.78970  0.79090  Biso   1.000  H
  N23      1.0000 0.23850  0.88530  0.91380  Biso   1.000  N
  H59      1.0000 0.64770  0.47330  0.21820  Biso   1.000  H
  H60      1.0000 0.58540  0.41100  0.31640  Biso   1.000  H
  N24      1.0000 0.13930  0.69820  0.96780  Biso   1.000  N
  C25      1.0000 0.86300  0.65190  0.41410  Biso   1.000  C
  C26      1.0000 0.97410  0.74360  0.35890  Biso   1.000  C
  H61      1.0000 0.03420  0.72260  0.36410  Biso   1.000  H
  H62      1.0000 0.00180  0.81980  0.38730  Biso   1.000  H
  H63      1.0000 0.95550  0.74520  0.29090  Biso   1.000  H
  N25      1.0000 0.76150  0.64680  0.41380  Biso   1.000  N
  H64      1.0000 0.35230  0.82560  0.71820  Biso   1.000  H
  H65      1.0000 0.41460  0.82560  0.81640  Biso   1.000  H
  N26      1.0000 0.86070  0.55890  0.46780  Biso   1.000  N
  C27      1.0000 0.34810  0.21110  0.41410  Biso   1.000  C
  C28      1.0000 0.25640  0.23050  0.35890  Biso   1.000  C
  H66      1.0000 0.27740  0.31160  0.36410  Biso   1.000  H
  H67      1.0000 0.18020  0.18200  0.38730  Biso   1.000  H
  H68      1.0000 0.25480  0.21030  0.29090  Biso   1.000  H
  N27      1.0000 0.35320  0.11470  0.41380  Biso   1.000  N
  H69      1.0000 0.17440  0.52670  0.71820  Biso   1.000  H
  H70      1.0000 0.17440  0.58900  0.81640  Biso   1.000  H
  N28      1.0000 0.44110  0.30180  0.46780  Biso   1.000  N
  C29      1.0000 0.78890  0.13700  0.41410  Biso   1.000  C
  C30      1.0000 0.76950  0.02590  0.35890  Biso   1.000  C
  H71      1.0000 0.68840  0.96580  0.36410  Biso   1.000  H
  H72      1.0000 0.81800  0.99820  0.38730  Biso   1.000  H
  H73      1.0000 0.78970  0.04450  0.29090  Biso   1.000  H
  N29      1.0000 0.88530  0.23850  0.41380  Biso   1.000  N
  H74      1.0000 0.47330  0.64770  0.71820  Biso   1.000  H
  H75      1.0000 0.41100  0.58540  0.81640  Biso   1.000  H
  N30      1.0000 0.69820  0.13930  0.46780  Biso   1.000  N
  C31      1.0000 0.13700  0.34810  0.91410  Biso   1.000  C
  C32      1.0000 0.02590  0.25640  0.85890  Biso   1.000  C
  H76      1.0000 0.96580  0.27740  0.86410  Biso   1.000  H
  H77      1.0000 0.99820  0.18020  0.88730  Biso   1.000  H
  H78      1.0000 0.04450  0.25480  0.79090  Biso   1.000  H
  N31      1.0000 0.23850  0.35320  0.91380  Biso   1.000  N
  H79      1.0000 0.64770  0.17440  0.21820  Biso   1.000  H
  H80      1.0000 0.58540  0.17440  0.31640  Biso   1.000  H
  N32      1.0000 0.13930  0.44110  0.96780  Biso   1.000  N
  C33      1.0000 0.65190  0.78890  0.91410  Biso   1.000  C
  C34      1.0000 0.74360  0.76950  0.85890  Biso   1.000  C
  H81      1.0000 0.72260  0.68840  0.86410  Biso   1.000  H
  H82      1.0000 0.81980  0.81800  0.88730  Biso   1.000  H
  H83      1.0000 0.74520  0.78970  0.79090  Biso   1.000  H
  N33      1.0000 0.64680  0.88530  0.91380  Biso   1.000  N
  H84      1.0000 0.82560  0.47330  0.21820  Biso   1.000  H
  H85      1.0000 0.82560  0.41100  0.31640  Biso   1.000  H
  N34      1.0000 0.55890  0.69820  0.96780  Biso   1.000  N
  C35      1.0000 0.21110  0.86300  0.91410  Biso   1.000  C
  C36      1.0000 0.23050  0.97410  0.85890  Biso   1.000  C
  H86      1.0000 0.31160  0.03420  0.86410  Biso   1.000  H
  H87      1.0000 0.18200  0.00180  0.88730  Biso   1.000  H
  H88      1.0000 0.21030  0.95550  0.79090  Biso   1.000  H
  N35      1.0000 0.11470  0.76150  0.91380  Biso   1.000  N
  H89      1.0000 0.52670  0.35230  0.21820  Biso   1.000  H
  H90      1.0000 0.58900  0.41460  0.31640  Biso   1.000  H
  N36      1.0000 0.30180  0.86070  0.96780  Biso   1.000  N
  C37      1.0000 0.65190  0.86300  0.58590  Biso   1.000  C
  C38      1.0000 0.74360  0.97410  0.64110  Biso   1.000  C
  H91      1.0000 0.72260  0.03420  0.63590  Biso   1.000  H
  H92      1.0000 0.81980  0.00180  0.61270  Biso   1.000  H
  H93      1.0000 0.74520  0.95550  0.70910  Biso   1.000  H
  N37      1.0000 0.64680  0.76150  0.58620  Biso   1.000  N
  H94      1.0000 0.82560  0.35230  0.28180  Biso   1.000  H
  H95      1.0000 0.82560  0.41460  0.18360  Biso   1.000  H
  N38      1.0000 0.55890  0.86070  0.53220  Biso   1.000  N
  C39      1.0000 0.21110  0.34810  0.58590  Biso   1.000  C
  C40      1.0000 0.23050  0.25640  0.64110  Biso   1.000  C
  H96      1.0000 0.31160  0.27740  0.63590  Biso   1.000  H
  H97      1.0000 0.18200  0.18020  0.61270  Biso   1.000  H
  H98      1.0000 0.21030  0.25480  0.70910  Biso   1.000  H
  N39      1.0000 0.11470  0.35320  0.58620  Biso   1.000  N
  H99      1.0000 0.52670  0.17440  0.28180  Biso   1.000  H
  H100     1.0000 0.58900  0.17440  0.18360  Biso   1.000  H
  N40      1.0000 0.30180  0.44110  0.53220  Biso   1.000  N
  C41      1.0000 0.13700  0.78890  0.58590  Biso   1.000  C
  C42      1.0000 0.02590  0.76950  0.64110  Biso   1.000  C
  H101     1.0000 0.96580  0.68840  0.63590  Biso   1.000  H
  H102     1.0000 0.99820  0.81800  0.61270  Biso   1.000  H
  H103     1.0000 0.04450  0.78970  0.70910  Biso   1.000  H
  N41      1.0000 0.23850  0.88530  0.58620  Biso   1.000  N
  H104     1.0000 0.64770  0.47330  0.28180  Biso   1.000  H
  H105     1.0000 0.58540  0.41100  0.18360  Biso   1.000  H
  N42      1.0000 0.13930  0.69820  0.53220  Biso   1.000  N
  C43      1.0000 0.34810  0.13700  0.08590  Biso   1.000  C
  C44      1.0000 0.25640  0.02590  0.14110  Biso   1.000  C
  H106     1.0000 0.27740  0.96580  0.13590  Biso   1.000  H
  H107     1.0000 0.18020  0.99820  0.11270  Biso   1.000  H
  H108     1.0000 0.25480  0.04450  0.20910  Biso   1.000  H
  N43      1.0000 0.35320  0.23850  0.08620  Biso   1.000  N
  H109     1.0000 0.17440  0.64770  0.78180  Biso   1.000  H
  H110     1.0000 0.17440  0.58540  0.68360  Biso   1.000  H
  N44      1.0000 0.44110  0.13930  0.03220  Biso   1.000  N
  C45      1.0000 0.78890  0.65190  0.08590  Biso   1.000  C
  C46      1.0000 0.76950  0.74360  0.14110  Biso   1.000  C
  H111     1.0000 0.68840  0.72260  0.13590  Biso   1.000  H
  H112     1.0000 0.81800  0.81980  0.11270  Biso   1.000  H
  H113     1.0000 0.78970  0.74520  0.20910  Biso   1.000  H
  N45      1.0000 0.88530  0.64680  0.08620  Biso   1.000  N
  H114     1.0000 0.47330  0.82560  0.78180  Biso   1.000  H
  H115     1.0000 0.41100  0.82560  0.68360  Biso   1.000  H
  N46      1.0000 0.69820  0.55890  0.03220  Biso   1.000  N
  C47      1.0000 0.86300  0.21110  0.08590  Biso   1.000  C
  C48      1.0000 0.97410  0.23050  0.14110  Biso   1.000  C
  H116     1.0000 0.03420  0.31160  0.13590  Biso   1.000  H
  H117     1.0000 0.00180  0.18200  0.11270  Biso   1.000  H
  H118     1.0000 0.95550  0.21030  0.20910  Biso   1.000  H
  N47      1.0000 0.76150  0.11470  0.08620  Biso   1.000  N
  H119     1.0000 0.35230  0.52670  0.78180  Biso   1.000  H
  H120     1.0000 0.41460  0.58900  0.68360  Biso   1.000  H
  N48      1.0000 0.86070  0.30180  0.03220  Biso   1.000  N
  C49      1.0000 0.50825  0.01650  0.25000  Biso   1.000  C
  C50      1.0000 0.57315  0.14630  0.25000  Biso   1.000  C
  C51      1.0000 0.98350  0.49175  0.25000  Biso   1.000  C
  C52      1.0000 0.85370  0.42685  0.25000  Biso   1.000  C
  C53      1.0000 0.50825  0.49175  0.25000  Biso   1.000  C
  C54      1.0000 0.57315  0.42685  0.25000  Biso   1.000  C
  C55      1.0000 0.49175  0.98350  0.75000  Biso   1.000  C
  C56      1.0000 0.42685  0.85370  0.75000  Biso   1.000  C
  C57      1.0000 0.01650  0.50825  0.75000  Biso   1.000  C
  C58      1.0000 0.14630  0.57315  0.75000  Biso   1.000  C
  C59      1.0000 0.49175  0.50825  0.75000  Biso   1.000  C
  C60      1.0000 0.42685  0.57315  0.75000  Biso   1.000  C
  Cd1      1.0000 0.33333  0.66667  0.39869  Biso   1.000  Cd
  Cd2      1.0000 0.66667  0.33333  0.89869  Biso   1.000  Cd
  Cd3      1.0000 0.66667  0.33333  0.60131  Biso   1.000  Cd
  Cd4      1.0000 0.33333  0.66667  0.10131  Biso   1.000  Cd
  Cd5      1.0000 0.00000  0.50000  0.50000  Biso   1.000  Cd
  Cd6      1.0000 0.50000  0.50000  0.50000  Biso   1.000  Cd
  Cd7      1.0000 0.50000  0.00000  0.50000  Biso   1.000  Cd
  Cd8      1.0000 0.00000  0.50000  0.00000  Biso   1.000  Cd
  Cd9      1.0000 0.50000  0.50000  0.00000  Biso   1.000  Cd
  Cd10     1.0000 0.50000  0.00000  0.00000  Biso   1.000  Cd
  N49      1.0000 0.24785  0.49570  0.49960  Biso   1.000  N
  N50      1.0000 0.41945  0.83890  0.29760  Biso   1.000  N
  N51      1.0000 0.47465  0.94930  0.33050  Biso   1.000  N
  N52      1.0000 0.50430  0.75215  0.49960  Biso   1.000  N
  N53      1.0000 0.16110  0.58055  0.29760  Biso   1.000  N
  N54      1.0000 0.05070  0.52535  0.33050  Biso   1.000  N
  N55      1.0000 0.24785  0.75215  0.49960  Biso   1.000  N
  N56      1.0000 0.41945  0.58055  0.29760  Biso   1.000  N
  N57      1.0000 0.47465  0.52535  0.33050  Biso   1.000  N
  N58      1.0000 0.75215  0.50430  0.99960  Biso   1.000  N
  N59      1.0000 0.58055  0.16110  0.79760  Biso   1.000  N
  N60      1.0000 0.52535  0.05070  0.83050  Biso   1.000  N
  N61      1.0000 0.49570  0.24785  0.99960  Biso   1.000  N
  N62      1.0000 0.83890  0.41945  0.79760  Biso   1.000  N
  N63      1.0000 0.94930  0.47465  0.83050  Biso   1.000  N
  N64      1.0000 0.75215  0.24785  0.99960  Biso   1.000  N
  N65      1.0000 0.58055  0.41945  0.79760  Biso   1.000  N
  N66      1.0000 0.52535  0.47465  0.83050  Biso   1.000  N
  N67      1.0000 0.49570  0.24785  0.50040  Biso   1.000  N
  N68      1.0000 0.83890  0.41945  0.70240  Biso   1.000  N
  N69      1.0000 0.94930  0.47465  0.66950  Biso   1.000  N
  N70      1.0000 0.75215  0.50430  0.50040  Biso   1.000  N
  N71      1.0000 0.58055  0.16110  0.70240  Biso   1.000  N
  N72      1.0000 0.52535  0.05070  0.66950  Biso   1.000  N
  N73      1.0000 0.75215  0.24785  0.50040  Biso   1.000  N
  N74      1.0000 0.58055  0.41945  0.70240  Biso   1.000  N
  N75      1.0000 0.52535  0.47465  0.66950  Biso   1.000  N
  N76      1.0000 0.50430  0.75215  0.00040  Biso   1.000  N
  N77      1.0000 0.16110  0.58055  0.20240  Biso   1.000  N
  N78      1.0000 0.05070  0.52535  0.16950  Biso   1.000  N
  N79      1.0000 0.24785  0.49570  0.00040  Biso   1.000  N
  N80      1.0000 0.41945  0.83890  0.20240  Biso   1.000  N
  N81      1.0000 0.47465  0.94930  0.16950  Biso   1.000  N
  N82      1.0000 0.24785  0.75215  0.00040  Biso   1.000  N
  N83      1.0000 0.41945  0.58055  0.20240  Biso   1.000  N
  N84      1.0000 0.47465  0.52535  0.16950  Biso   1.000  N
