data_image0
_cell_length_a       16.1122
_cell_length_b       19.1301
_cell_length_c       19.9491
_cell_angle_alpha    113.359
_cell_angle_beta     103.862
_cell_angle_gamma    91.934

_symmetry_space_group_name_H-M    "P 1"
_symmetry_int_tables_number       1

loop_
  _symmetry_equiv_pos_as_xyz
  'x, y, z'

loop_
  _atom_site_label
  _atom_site_occupancy
  _atom_site_fract_x
  _atom_site_fract_y
  _atom_site_fract_z
  _atom_site_thermal_displace_type
  _atom_site_B_iso_or_equiv
  _atom_site_type_symbol
  Ca1      1.0000 0.20997  0.60033  0.39147  Biso   1.000  Ca
  Ca2      1.0000 0.37747  0.74498  0.40971  Biso   1.000  Ca
  Ca3      1.0000 0.59378  0.68468  0.34271  Biso   1.000  Ca
  O1       1.0000 0.32289  0.98642  0.81066  Biso   1.000  O
  O2       1.0000 0.40207  0.98117  0.13173  Biso   1.000  O
  O3       1.0000 0.39671  0.27132  0.14589  Biso   1.000  O
  O4       1.0000 0.16610  0.69625  0.49583  Biso   1.000  O
  O5       1.0000 0.29496  0.72559  0.48648  Biso   1.000  O
  O6       1.0000 0.53120  0.76540  0.29390  Biso   1.000  O
  O7       1.0000 0.41750  0.79970  0.33660  Biso   1.000  O
  O8       1.0000 0.34976  0.59989  0.37150  Biso   1.000  O
  O9       1.0000 0.45464  0.63512  0.33403  Biso   1.000  O
  O10      1.0000 0.79568  0.87832  0.81849  Biso   1.000  O
  O11      1.0000 0.01411  0.82890  0.10509  Biso   1.000  O
  O12      1.0000 0.93319  0.15114  0.15425  Biso   1.000  O
  O13      1.0000 0.49970  0.77676  0.50946  Biso   1.000  O
  O14      1.0000 0.61640  0.76030  0.46798  Biso   1.000  O
  O15      1.0000 0.11610  0.64320  0.30950  Biso   1.000  O
  O16      1.0000 0.24230  0.69770  0.32150  Biso   1.000  O
  O17      1.0000 0.16960  0.47382  0.29930  Biso   1.000  O
  O18      1.0000 0.07880  0.50640  0.36570  Biso   1.000  O
  C1       1.0000 0.32830  0.04790  0.93914  Biso   1.000  C
  C2       1.0000 0.35780  0.00240  0.97720  Biso   1.000  C
  C3       1.0000 0.42100  0.03680  0.04820  Biso   1.000  C
  C4       1.0000 0.44780  0.11560  0.08301  Biso   1.000  C
  C5       1.0000 0.41440  0.16130  0.04475  Biso   1.000  C
  C6       1.0000 0.35710  0.12760  0.97181  Biso   1.000  C
  C7       1.0000 0.32490  0.91850  0.94390  Biso   1.000  C
  H1       1.0000 0.27280  0.91120  0.95700  Biso   1.000  H
  H2       1.0000 0.36760  0.89260  0.96350  Biso   1.000  H
  H3       1.0000 0.31310  0.89780  0.88960  Biso   1.000  H
  C8       1.0000 0.51170  0.15470  0.16070  Biso   1.000  C
  H4       1.0000 0.52970  0.11680  0.17920  Biso   1.000  H
  H5       1.0000 0.48490  0.19090  0.19500  Biso   1.000  H
  H6       1.0000 0.56110  0.18120  0.15720  Biso   1.000  H
  C9       1.0000 0.32670  0.17510  0.92840  Biso   1.000  C
  H7       1.0000 0.28410  0.20420  0.94830  Biso   1.000  H
  H8       1.0000 0.30180  0.14170  0.87570  Biso   1.000  H
  H9       1.0000 0.37480  0.20960  0.93350  Biso   1.000  H
  C10      1.0000 0.26810  0.00910  0.86130  Biso   1.000  C
  H10      1.0000 0.23260  0.96440  0.85630  Biso   1.000  H
  H11      1.0000 0.23070  0.04400  0.85020  Biso   1.000  H
  C11      1.0000 0.29490  0.92530  0.74110  Biso   1.000  C
  C12      1.0000 0.35560  0.91130  0.69940  Biso   1.000  C
  H12      1.0000 0.40850  0.94300  0.71870  Biso   1.000  H
  C13      1.0000 0.33560  0.84980  0.62930  Biso   1.000  C
  H13      1.0000 0.37640  0.83950  0.60190  Biso   1.000  H
  C14      1.0000 0.25860  0.80410  0.59930  Biso   1.000  C
  C15      1.0000 0.19890  0.81940  0.64060  Biso   1.000  C
  H14      1.0000 0.14540  0.78840  0.62010  Biso   1.000  H
  C16      1.0000 0.21670  0.87960  0.71200  Biso   1.000  C
  H15      1.0000 0.17600  0.88870  0.73950  Biso   1.000  H
  C17      1.0000 0.23870  0.73820  0.52250  Biso   1.000  C
  C18      1.0000 0.45750  0.98730  0.08730  Biso   1.000  C
  H16      1.0000 0.46030  0.93670  0.05000  Biso   1.000  H
  H17      1.0000 0.51540  0.01030  0.11970  Biso   1.000  H
  C19      1.0000 0.42290  0.93630  0.17090  Biso   1.000  C
  C20      1.0000 0.36840  0.93450  0.21500  Biso   1.000  C
  H18      1.0000 0.32300  0.96330  0.21800  Biso   1.000  H
  C21      1.0000 0.38370  0.88870  0.25400  Biso   1.000  C
  H19      1.0000 0.34680  0.88620  0.28270  Biso   1.000  H
  C22      1.0000 0.44950  0.84750  0.25250  Biso   1.000  C
  C23      1.0000 0.50440  0.85130  0.20930  Biso   1.000  C
  H20      1.0000 0.55090  0.82380  0.20800  Biso   1.000  H
  C24      1.0000 0.49070  0.89530  0.16870  Biso   1.000  C
  H21      1.0000 0.52740  0.89720  0.13970  Biso   1.000  H
  C25      1.0000 0.46740  0.80120  0.29870  Biso   1.000  C
  C26      1.0000 0.43940  0.24660  0.08610  Biso   1.000  C
  H22      1.0000 0.50160  0.25970  0.10730  Biso   1.000  H
  H23      1.0000 0.42090  0.27120  0.05190  Biso   1.000  H
  C27      1.0000 0.40500  0.34790  0.19120  Biso   1.000  C
  C28      1.0000 0.36020  0.36700  0.24550  Biso   1.000  C
  H24      1.0000 0.32950  0.32840  0.25100  Biso   1.000  H
  C29      1.0000 0.36110  0.44300  0.29150  Biso   1.000  C
  H25      1.0000 0.32990  0.45520  0.32730  Biso   1.000  H
  C30      1.0000 0.40690  0.50140  0.28570  Biso   1.000  C
  C31      1.0000 0.45280  0.48040  0.23210  Biso   1.000  C
  H26      1.0000 0.48540  0.51880  0.22780  Biso   1.000  H
  C32      1.0000 0.45180  0.40530  0.18500  Biso   1.000  C
  H27      1.0000 0.48260  0.39310  0.14900  Biso   1.000  H
  C33      1.0000 0.40400  0.58360  0.33250  Biso   1.000  C
  C34      1.0000 0.82720  0.91780  0.95331  Biso   1.000  C
  C35      1.0000 0.85020  0.86570  0.98440  Biso   1.000  C
  C36      1.0000 0.90550  0.89240  0.05850  Biso   1.000  C
  C37      1.0000 0.94130  0.96910  0.09790  Biso   1.000  C
  C38      1.0000 0.92430  0.01960  0.06250  Biso   1.000  C
  C39      1.0000 0.86630  0.99510  0.99180  Biso   1.000  C
  C40      1.0000 0.81690  0.78160  0.93970  Biso   1.000  C
  H28      1.0000 0.86240  0.75220  0.94780  Biso   1.000  H
  H29      1.0000 0.79740  0.77040  0.88670  Biso   1.000  H
  H30      1.0000 0.76970  0.76820  0.95610  Biso   1.000  H
  C41      1.0000 0.99680  0.99940  0.17910  Biso   1.000  C
  H31      1.0000 0.97890  0.96950  0.20340  Biso   1.000  H
  H32      1.0000 0.99050  0.05220  0.20580  Biso   1.000  H
  H33      1.0000 0.05620  0.99570  0.17960  Biso   1.000  H
  C42      1.0000 0.84540  0.05070  0.95500  Biso   1.000  C
  H34      1.0000 0.84230  0.10010  0.99300  Biso   1.000  H
  H35      1.0000 0.79080  0.03150  0.91700  Biso   1.000  H
  H36      1.0000 0.88980  0.05580  0.93190  Biso   1.000  H
  C43      1.0000 0.75700  0.89310  0.87957  Biso   1.000  C
  H37      1.0000 0.72080  0.84690  0.87050  Biso   1.000  H
  H38      1.0000 0.72100  0.93330  0.88250  Biso   1.000  H
  C44      1.0000 0.73930  0.85560  0.74762  Biso   1.000  C
  C45      1.0000 0.77610  0.84180  0.68890  Biso   1.000  C
  H39      1.0000 0.83590  0.84860  0.69870  Biso   1.000  H
  C46      1.0000 0.72460  0.81790  0.61590  Biso   1.000  C
  H40      1.0000 0.75030  0.80860  0.57660  Biso   1.000  H
  C47      1.0000 0.63570  0.80740  0.59950  Biso   1.000  C
  C48      1.0000 0.60060  0.82390  0.65880  Biso   1.000  C
  H41      1.0000 0.54080  0.81950  0.64950  Biso   1.000  H
  C49      1.0000 0.65170  0.84730  0.73270  Biso   1.000  C
  H42      1.0000 0.62610  0.85720  0.77210  Biso   1.000  H
  C50      1.0000 0.57840  0.77980  0.51950  Biso   1.000  C
  C51      1.0000 0.92500  0.83810  0.09550  Biso   1.000  C
  H43      1.0000 0.91280  0.85850  0.14450  Biso   1.000  H
  H44      1.0000 0.88900  0.78870  0.06410  Biso   1.000  H
  C52      1.0000 0.04740  0.79270  0.15070  Biso   1.000  C
  C53      1.0000 0.13540  0.80080  0.17630  Biso   1.000  C
  H45      1.0000 0.17050  0.82980  0.16300  Biso   1.000  H
  C54      1.0000 0.17150  0.76480  0.22270  Biso   1.000  C
  H46      1.0000 0.23140  0.77020  0.23980  Biso   1.000  H
  C55      1.0000 0.12260  0.72180  0.24410  Biso   1.000  C
  C56      1.0000 0.03650  0.71490  0.21720  Biso   1.000  C
  H47      1.0000 0.00190  0.68610  0.23110  Biso   1.000  H
  C57      1.0000 0.99640  0.74770  0.17060  Biso   1.000  C
  H48      1.0000 0.93650  0.74010  0.15250  Biso   1.000  H
  C58      1.0000 0.16210  0.68370  0.29550  Biso   1.000  C
  C59      1.0000 0.97480  0.09990  0.10130  Biso   1.000  C
  H49      1.0000 0.03310  0.09850  0.12810  Biso   1.000  H
  H50      1.0000 0.97850  0.11890  0.06350  Biso   1.000  H
  C60      1.0000 0.97650  0.22490  0.19360  Biso   1.000  C
  C61      1.0000 0.05060  0.24910  0.18230  Biso   1.000  C
  H51      1.0000 0.07460  0.21470  0.14680  Biso   1.000  H
  C62      1.0000 0.09030  0.32480  0.22350  Biso   1.000  C
  H52      1.0000 0.14120  0.34010  0.21550  Biso   1.000  H
  C63      1.0000 0.05740  0.37590  0.27400  Biso   1.000  C
  C64      1.0000 0.98660  0.35060  0.28920  Biso   1.000  C
  H53      1.0000 0.96510  0.38480  0.32700  Biso   1.000  H
  C65      1.0000 0.94610  0.27520  0.24950  Biso   1.000  C
  H54      1.0000 0.89840  0.25900  0.26100  Biso   1.000  H
  C66      1.0000 0.10530  0.45850  0.31730  Biso   1.000  C
  C67      1.0000 0.44720  0.97330  0.56590  Biso   1.000  C
  H55      1.0000 0.47040  0.93280  0.57790  Biso   1.000  H
  H56      1.0000 0.43270  0.01010  0.60920  Biso   1.000  H
  H57      1.0000 0.48950  0.99830  0.55280  Biso   1.000  H
  C68      1.0000 0.36760  0.94020  0.50000  Biso   1.000  C
  O19      1.0000 0.34420  0.87010  0.47200  Biso   1.000  O
  N1       1.0000 0.32020  0.98380  0.47000  Biso   1.000  N
  C69      1.0000 0.24570  0.95150  0.40480  Biso   1.000  C
  H58      1.0000 0.23680  0.89660  0.38690  Biso   1.000  H
  H59      1.0000 0.25490  0.96480  0.36520  Biso   1.000  H
  H60      1.0000 0.19560  0.97180  0.41880  Biso   1.000  H
  C70      1.0000 0.33820  0.06630  0.49910  Biso   1.000  C
  H61      1.0000 0.38770  0.08510  0.54270  Biso   1.000  H
  H62      1.0000 0.28920  0.08860  0.51340  Biso   1.000  H
  H63      1.0000 0.34980  0.08020  0.46060  Biso   1.000  H
  C71      1.0000 0.25840  0.93210  0.40720  Biso   1.000  C
  H64      1.0000 0.23300  0.88030  0.37240  Biso   1.000  H
  H65      1.0000 0.27690  0.95850  0.38000  Biso   1.000  H
  H66      1.0000 0.21640  0.95840  0.43090  Biso   1.000  H
  C72      1.0000 0.32840  0.93080  0.46200  Biso   1.000  C
  O20      1.0000 0.34400  0.86850  0.45730  Biso   1.000  O
  N2       1.0000 0.37770  0.99380  0.51760  Biso   1.000  N
  C73      1.0000 0.45110  0.99610  0.57760  Biso   1.000  C
  H67      1.0000 0.45720  0.94480  0.57280  Biso   1.000  H
  H68      1.0000 0.44190  0.02620  0.62610  Biso   1.000  H
  H69      1.0000 0.50260  0.01900  0.57360  Biso   1.000  H
  C74      1.0000 0.36950  0.07320  0.53090  Biso   1.000  C
  H70      1.0000 0.32380  0.07470  0.49070  Biso   1.000  H
  H71      1.0000 0.42280  0.09840  0.53220  Biso   1.000  H
  H72      1.0000 0.35660  0.09920  0.57860  Biso   1.000  H
  Ca4      1.0000 0.79003  0.39967  0.60853  Biso   1.000  Ca
  Ca5      1.0000 0.62253  0.25502  0.59029  Biso   1.000  Ca
  Ca6      1.0000 0.40622  0.31532  0.65729  Biso   1.000  Ca
  O21      1.0000 0.67711  0.01358  0.18934  Biso   1.000  O
  O22      1.0000 0.59793  0.01883  0.86827  Biso   1.000  O
  O23      1.0000 0.60329  0.72868  0.85411  Biso   1.000  O
  O24      1.0000 0.83390  0.30375  0.50417  Biso   1.000  O
  O25      1.0000 0.70504  0.27441  0.51352  Biso   1.000  O
  O26      1.0000 0.46880  0.23460  0.70610  Biso   1.000  O
  O27      1.0000 0.58250  0.20030  0.66340  Biso   1.000  O
  O28      1.0000 0.65024  0.40011  0.62850  Biso   1.000  O
  O29      1.0000 0.54536  0.36488  0.66597  Biso   1.000  O
  O30      1.0000 0.20432  0.12168  0.18151  Biso   1.000  O
  O31      1.0000 0.98589  0.17110  0.89491  Biso   1.000  O
  O32      1.0000 0.06681  0.84886  0.84575  Biso   1.000  O
  O33      1.0000 0.50030  0.22324  0.49054  Biso   1.000  O
  O34      1.0000 0.38360  0.23970  0.53202  Biso   1.000  O
  O35      1.0000 0.88390  0.35680  0.69050  Biso   1.000  O
  O36      1.0000 0.75770  0.30230  0.67850  Biso   1.000  O
  O37      1.0000 0.83040  0.52618  0.70070  Biso   1.000  O
  O38      1.0000 0.92120  0.49360  0.63430  Biso   1.000  O
  C75      1.0000 0.67170  0.95210  0.06086  Biso   1.000  C
  C76      1.0000 0.64220  0.99760  0.02280  Biso   1.000  C
  C77      1.0000 0.57900  0.96320  0.95180  Biso   1.000  C
  C78      1.0000 0.55220  0.88440  0.91699  Biso   1.000  C
  C79      1.0000 0.58560  0.83870  0.95525  Biso   1.000  C
  C80      1.0000 0.64290  0.87240  0.02819  Biso   1.000  C
  C81      1.0000 0.67510  0.08150  0.05610  Biso   1.000  C
  H73      1.0000 0.72720  0.08880  0.04300  Biso   1.000  H
  H74      1.0000 0.63240  0.10740  0.03650  Biso   1.000  H
  H75      1.0000 0.68690  0.10220  0.11040  Biso   1.000  H
  C82      1.0000 0.48830  0.84530  0.83930  Biso   1.000  C
  H76      1.0000 0.47030  0.88320  0.82080  Biso   1.000  H
  H77      1.0000 0.51510  0.80910  0.80500  Biso   1.000  H
  H78      1.0000 0.43890  0.81880  0.84280  Biso   1.000  H
  C83      1.0000 0.67330  0.82490  0.07160  Biso   1.000  C
  H79      1.0000 0.71590  0.79580  0.05170  Biso   1.000  H
  H80      1.0000 0.69820  0.85830  0.12430  Biso   1.000  H
  H81      1.0000 0.62520  0.79040  0.06650  Biso   1.000  H
  C84      1.0000 0.73190  0.99090  0.13870  Biso   1.000  C
  H82      1.0000 0.76740  0.03560  0.14370  Biso   1.000  H
  H83      1.0000 0.76930  0.95600  0.14980  Biso   1.000  H
  C85      1.0000 0.70510  0.07470  0.25890  Biso   1.000  C
  C86      1.0000 0.64440  0.08870  0.30060  Biso   1.000  C
  H84      1.0000 0.59150  0.05700  0.28130  Biso   1.000  H
  C87      1.0000 0.66440  0.15020  0.37070  Biso   1.000  C
  H85      1.0000 0.62360  0.16050  0.39810  Biso   1.000  H
  C88      1.0000 0.74140  0.19590  0.40070  Biso   1.000  C
  C89      1.0000 0.80110  0.18060  0.35940  Biso   1.000  C
  H86      1.0000 0.85460  0.21160  0.37990  Biso   1.000  H
  C90      1.0000 0.78330  0.12040  0.28800  Biso   1.000  C
  H87      1.0000 0.82400  0.11130  0.26050  Biso   1.000  H
  C91      1.0000 0.76130  0.26180  0.47750  Biso   1.000  C
  C92      1.0000 0.54250  0.01270  0.91270  Biso   1.000  C
  H88      1.0000 0.53970  0.06330  0.95000  Biso   1.000  H
  H89      1.0000 0.48460  0.98970  0.88030  Biso   1.000  H
  C93      1.0000 0.57710  0.06370  0.82910  Biso   1.000  C
  C94      1.0000 0.63160  0.06550  0.78500  Biso   1.000  C
  H90      1.0000 0.67700  0.03670  0.78200  Biso   1.000  H
  C95      1.0000 0.61630  0.11130  0.74600  Biso   1.000  C
  H91      1.0000 0.65320  0.11380  0.71730  Biso   1.000  H
  C96      1.0000 0.55050  0.15250  0.74750  Biso   1.000  C
  C97      1.0000 0.49560  0.14870  0.79070  Biso   1.000  C
  H92      1.0000 0.44910  0.17620  0.79200  Biso   1.000  H
  C98      1.0000 0.50930  0.10470  0.83130  Biso   1.000  C
  H93      1.0000 0.47260  0.10280  0.86030  Biso   1.000  H
  C99      1.0000 0.53260  0.19880  0.70130  Biso   1.000  C
  C100     1.0000 0.56060  0.75340  0.91390  Biso   1.000  C
  H94      1.0000 0.49840  0.74030  0.89270  Biso   1.000  H
  H95      1.0000 0.57910  0.72880  0.94810  Biso   1.000  H
  C101     1.0000 0.59500  0.65210  0.80880  Biso   1.000  C
  C102     1.0000 0.63980  0.63300  0.75450  Biso   1.000  C
  H96      1.0000 0.67050  0.67160  0.74900  Biso   1.000  H
  C103     1.0000 0.63890  0.55700  0.70850  Biso   1.000  C
  H97      1.0000 0.67010  0.54480  0.67270  Biso   1.000  H
  C104     1.0000 0.59310  0.49860  0.71430  Biso   1.000  C
  C105     1.0000 0.54720  0.51960  0.76790  Biso   1.000  C
  H98      1.0000 0.51460  0.48120  0.77220  Biso   1.000  H
  C106     1.0000 0.54820  0.59470  0.81500  Biso   1.000  C
  H99      1.0000 0.51740  0.60690  0.85100  Biso   1.000  H
  C107     1.0000 0.59600  0.41640  0.66750  Biso   1.000  C
  C108     1.0000 0.17280  0.08220  0.04669  Biso   1.000  C
  C109     1.0000 0.14980  0.13430  0.01560  Biso   1.000  C
  C110     1.0000 0.09450  0.10760  0.94150  Biso   1.000  C
  C111     1.0000 0.05870  0.03090  0.90210  Biso   1.000  C
  C112     1.0000 0.07570  0.98040  0.93750  Biso   1.000  C
  C113     1.0000 0.13370  0.00490  0.00820  Biso   1.000  C
  C114     1.0000 0.18310  0.21840  0.06030  Biso   1.000  C
  H100     1.0000 0.13760  0.24780  0.05220  Biso   1.000  H
  H101     1.0000 0.20260  0.22960  0.11330  Biso   1.000  H
  H102     1.0000 0.23030  0.23180  0.04390  Biso   1.000  H
  C115     1.0000 0.00320  0.00060  0.82090  Biso   1.000  C
  H103     1.0000 0.02110  0.03050  0.79660  Biso   1.000  H
  H104     1.0000 0.00950  0.94780  0.79420  Biso   1.000  H
  H105     1.0000 0.94380  0.00430  0.82040  Biso   1.000  H
  C116     1.0000 0.15460  0.94930  0.04500  Biso   1.000  C
  H106     1.0000 0.15770  0.89990  0.00700  Biso   1.000  H
  H107     1.0000 0.20920  0.96850  0.08300  Biso   1.000  H
  H108     1.0000 0.11020  0.94420  0.06810  Biso   1.000  H
  C117     1.0000 0.24300  0.10690  0.12043  Biso   1.000  C
  H109     1.0000 0.27920  0.15310  0.12950  Biso   1.000  H
  H110     1.0000 0.27900  0.06670  0.11750  Biso   1.000  H
  C118     1.0000 0.26070  0.14440  0.25238  Biso   1.000  C
  C119     1.0000 0.22390  0.15820  0.31110  Biso   1.000  C
  H111     1.0000 0.16410  0.15140  0.30130  Biso   1.000  H
  C120     1.0000 0.27540  0.18210  0.38410  Biso   1.000  C
  H112     1.0000 0.24970  0.19140  0.42340  Biso   1.000  H
  C121     1.0000 0.36430  0.19260  0.40050  Biso   1.000  C
  C122     1.0000 0.39940  0.17610  0.34120  Biso   1.000  C
  H113     1.0000 0.45920  0.18050  0.35050  Biso   1.000  H
  C123     1.0000 0.34830  0.15270  0.26730  Biso   1.000  C
  H114     1.0000 0.37390  0.14280  0.22790  Biso   1.000  H
  C124     1.0000 0.42160  0.22020  0.48050  Biso   1.000  C
  C125     1.0000 0.07500  0.16190  0.90450  Biso   1.000  C
  H115     1.0000 0.08720  0.14150  0.85550  Biso   1.000  H
  H116     1.0000 0.11100  0.21130  0.93590  Biso   1.000  H
  C126     1.0000 0.95260  0.20730  0.84930  Biso   1.000  C
  C127     1.0000 0.86460  0.19920  0.82370  Biso   1.000  C
  H117     1.0000 0.82950  0.17020  0.83700  Biso   1.000  H
  C128     1.0000 0.82850  0.23520  0.77730  Biso   1.000  C
  H118     1.0000 0.76860  0.22980  0.76020  Biso   1.000  H
  C129     1.0000 0.87740  0.27820  0.75590  Biso   1.000  C
  C130     1.0000 0.96350  0.28510  0.78280  Biso   1.000  C
  H119     1.0000 0.99810  0.31390  0.76890  Biso   1.000  H
  C131     1.0000 0.00360  0.25230  0.82940  Biso   1.000  C
  H120     1.0000 0.06350  0.25990  0.84750  Biso   1.000  H
  C132     1.0000 0.83790  0.31630  0.70450  Biso   1.000  C
  C133     1.0000 0.02520  0.90010  0.89870  Biso   1.000  C
  H121     1.0000 0.96690  0.90150  0.87190  Biso   1.000  H
  H122     1.0000 0.02150  0.88110  0.93650  Biso   1.000  H
  C134     1.0000 0.02350  0.77510  0.80640  Biso   1.000  C
  C135     1.0000 0.94940  0.75090  0.81770  Biso   1.000  C
  H123     1.0000 0.92540  0.78530  0.85320  Biso   1.000  H
  C136     1.0000 0.90970  0.67520  0.77650  Biso   1.000  C
  H124     1.0000 0.85880  0.65990  0.78450  Biso   1.000  H
  C137     1.0000 0.94260  0.62410  0.72600  Biso   1.000  C
  C138     1.0000 0.01340  0.64940  0.71080  Biso   1.000  C
  H125     1.0000 0.03490  0.61520  0.67300  Biso   1.000  H
  C139     1.0000 0.05390  0.72480  0.75050  Biso   1.000  C
  H126     1.0000 0.10160  0.74100  0.73900  Biso   1.000  H
  C140     1.0000 0.89470  0.54150  0.68270  Biso   1.000  C
  C141     1.0000 0.55280  0.02670  0.43410  Biso   1.000  C
  H127     1.0000 0.52960  0.06720  0.42210  Biso   1.000  H
  H128     1.0000 0.56730  0.98990  0.39080  Biso   1.000  H
  H129     1.0000 0.51050  0.00170  0.44720  Biso   1.000  H
  C142     1.0000 0.63240  0.05980  0.50000  Biso   1.000  C
  O39      1.0000 0.65580  0.12990  0.52800  Biso   1.000  O
  N3       1.0000 0.67980  0.01620  0.53000  Biso   1.000  N
  C143     1.0000 0.75430  0.04850  0.59520  Biso   1.000  C
  H130     1.0000 0.76320  0.10340  0.61310  Biso   1.000  H
  H131     1.0000 0.74510  0.03520  0.63480  Biso   1.000  H
  H132     1.0000 0.80440  0.02820  0.58120  Biso   1.000  H
  C144     1.0000 0.66180  0.93370  0.50090  Biso   1.000  C
  H133     1.0000 0.61230  0.91490  0.45730  Biso   1.000  H
  H134     1.0000 0.71080  0.91140  0.48660  Biso   1.000  H
  H135     1.0000 0.65020  0.91980  0.53940  Biso   1.000  H
  C145     1.0000 0.74160  0.06790  0.59280  Biso   1.000  C
  H136     1.0000 0.76700  0.11970  0.62760  Biso   1.000  H
  H137     1.0000 0.72310  0.04150  0.62000  Biso   1.000  H
  H138     1.0000 0.78360  0.04160  0.56910  Biso   1.000  H
  C146     1.0000 0.67160  0.06920  0.53800  Biso   1.000  C
  O40      1.0000 0.65600  0.13150  0.54270  Biso   1.000  O
  N4       1.0000 0.62230  0.00620  0.48240  Biso   1.000  N
  C147     1.0000 0.54890  0.00390  0.42240  Biso   1.000  C
  H139     1.0000 0.54280  0.05520  0.42720  Biso   1.000  H
  H140     1.0000 0.55810  0.97380  0.37390  Biso   1.000  H
  H141     1.0000 0.49740  0.98100  0.42640  Biso   1.000  H
  C148     1.0000 0.63050  0.92680  0.46910  Biso   1.000  C
  H142     1.0000 0.67620  0.92530  0.50930  Biso   1.000  H
  H143     1.0000 0.57720  0.90160  0.46780  Biso   1.000  H
  H144     1.0000 0.64340  0.90080  0.42140  Biso   1.000  H
