data_image0
_cell_length_a       28.6376
_cell_length_b       10.5812
_cell_length_c       22.7685
_cell_angle_alpha    90
_cell_angle_beta     90
_cell_angle_gamma    90

_symmetry_space_group_name_H-M    "P 1"
_symmetry_int_tables_number       1

loop_
  _symmetry_equiv_pos_as_xyz
  'x, y, z'

loop_
  _atom_site_label
  _atom_site_occupancy
  _atom_site_fract_x
  _atom_site_fract_y
  _atom_site_fract_z
  _atom_site_thermal_displace_type
  _atom_site_B_iso_or_equiv
  _atom_site_type_symbol
  C1       1.0000 0.61471  0.11760  0.43960  Biso   1.000  C
  C2       1.0000 0.65977  0.16890  0.41940  Biso   1.000  C
  C3       1.0000 0.68433  0.24980  0.45490  Biso   1.000  C
  H1       1.0000 0.67220  0.27260  0.49130  Biso   1.000  H
  C4       1.0000 0.72693  0.29760  0.43700  Biso   1.000  C
  H2       1.0000 0.74340  0.35220  0.46140  Biso   1.000  H
  C5       1.0000 0.74523  0.26460  0.38290  Biso   1.000  C
  C6       1.0000 0.72130  0.18140  0.34770  Biso   1.000  C
  H3       1.0000 0.73380  0.15660  0.31180  Biso   1.000  H
  C7       1.0000 0.67890  0.13480  0.36590  Biso   1.000  C
  H4       1.0000 0.66270  0.07910  0.34170  Biso   1.000  H
  C8       1.0000 0.82390  0.32780  0.40170  Biso   1.000  C
  C9       1.0000 0.84576  0.44290  0.40560  Biso   1.000  C
  H5       1.0000 0.83450  0.51180  0.38460  Biso   1.000  H
  C10      1.0000 0.88468  0.45560  0.44109  Biso   1.000  C
  H6       1.0000 0.89990  0.53300  0.44390  Biso   1.000  H
  C11      1.0000 0.90109  0.35090  0.47283  Biso   1.000  C
  C12      1.0000 0.87821  0.23590  0.46870  Biso   1.000  C
  H7       1.0000 0.88900  0.16650  0.48980  Biso   1.000  H
  C13      1.0000 0.83893  0.22440  0.43290  Biso   1.000  C
  H8       1.0000 0.82310  0.14780  0.43030  Biso   1.000  H
  C14      1.0000 0.94411  0.36060  0.50809  Biso   1.000  C
  C15      1.0000 0.04130  0.91150  0.35070  Biso   1.000  C
  H9       1.0000 0.01490  0.86670  0.36240  Biso   1.000  H
  C16      1.0000 0.09210  0.06000  0.33990  Biso   1.000  C
  H10      1.0000 0.10800  0.13630  0.34400  Biso   1.000  H
  C17      1.0000 0.10420  0.96570  0.30280  Biso   1.000  C
  H11      1.0000 0.12910  0.96610  0.27650  Biso   1.000  H
  N1       1.0000 0.05330  0.02610  0.37030  Biso   1.000  N
  N2       1.0000 0.07340  0.87050  0.31120  Biso   1.000  N
  C18      1.0000 0.06894  0.74880  0.28063  Biso   1.000  C
  C19      1.0000 0.06422  0.73880  0.21978  Biso   1.000  C
  H12      1.0000 0.06230  0.81100  0.19660  Biso   1.000  H
  C20      1.0000 0.06249  0.62010  0.19439  Biso   1.000  C
  H13      1.0000 0.05980  0.61190  0.15390  Biso   1.000  H
  C21      1.0000 0.06479  0.51430  0.22946  Biso   1.000  C
  C22      1.0000 0.07050  0.52320  0.28998  Biso   1.000  C
  H14      1.0000 0.07290  0.45100  0.31310  Biso   1.000  H
  C23      1.0000 0.07254  0.64240  0.31490  Biso   1.000  C
  H15      1.0000 0.07640  0.65060  0.35530  Biso   1.000  H
  C24      1.0000 0.09440  0.30170  0.21010  Biso   1.000  C
  H16      1.0000 0.11900  0.29860  0.23670  Biso   1.000  H
  C25      1.0000 0.08060  0.20910  0.17290  Biso   1.000  C
  H17      1.0000 0.09490  0.13050  0.16960  Biso   1.000  H
  C26      1.0000 0.03300  0.36450  0.15950  Biso   1.000  C
  H18      1.0000 0.00820  0.41370  0.14640  Biso   1.000  H
  N3       1.0000 0.06470  0.40090  0.20050  Biso   1.000  N
  N4       1.0000 0.04260  0.24740  0.14090  Biso   1.000  N
  N5       1.0000 0.59881  0.13330  0.49440  Biso   1.000  N
  N6       1.0000 0.55727  0.07080  0.49537  Biso   1.000  N
  N7       1.0000 0.54983  0.02090  0.44303  Biso   1.000  N
  N8       1.0000 0.58535  0.04930  0.40642  Biso   1.000  N
  N9       1.0000 0.95343  0.45190  0.54643  Biso   1.000  N
  N10      1.0000 0.99630  0.42160  0.56911  Biso   1.000  N
  N11      1.0000 0.01106  0.31650  0.54555  Biso   1.000  N
  N12      1.0000 0.97889  0.27600  0.50595  Biso   1.000  N
  O1       1.0000 0.78628  0.31590  0.36160  Biso   1.000  O
  Cd1      1.0000 0.00371  0.14397  0.43100  Biso   1.000  Cd
  N13      1.0000 0.05880  0.87220  0.30120  Biso   1.000  N
  N14      1.0000 0.03650  0.02830  0.35800  Biso   1.000  N
  C27      1.0000 0.07220  0.98190  0.27520  Biso   1.000  C
  H19      1.0000 0.08840  0.98990  0.24000  Biso   1.000  H
  C28      1.0000 0.05770  0.07740  0.31010  Biso   1.000  C
  H20      1.0000 0.06170  0.16300  0.30240  Biso   1.000  H
  C29      1.0000 0.04130  0.90220  0.35470  Biso   1.000  C
  H21      1.0000 0.03380  0.84490  0.38420  Biso   1.000  H
  C30      1.0000 0.06790  0.26200  0.22810  Biso   1.000  C
  H22      1.0000 0.08560  0.24840  0.26170  Biso   1.000  H
  C31      1.0000 0.05140  0.17250  0.19120  Biso   1.000  C
  H23      1.0000 0.05530  0.08590  0.19600  Biso   1.000  H
  C32      1.0000 0.03290  0.35400  0.15410  Biso   1.000  C
  H24      1.0000 0.02350  0.41590  0.12770  Biso   1.000  H
  N15      1.0000 0.05360  0.37650  0.20680  Biso   1.000  N
  N16      1.0000 0.02820  0.22850  0.14600  Biso   1.000  N
  C33      1.0000 0.88529  0.88240  0.43960  Biso   1.000  C
  C34      1.0000 0.84023  0.83110  0.41940  Biso   1.000  C
  C35      1.0000 0.81567  0.75020  0.45490  Biso   1.000  C
  H25      1.0000 0.82780  0.72740  0.49130  Biso   1.000  H
  C36      1.0000 0.77307  0.70240  0.43700  Biso   1.000  C
  H26      1.0000 0.75660  0.64780  0.46140  Biso   1.000  H
  C37      1.0000 0.75477  0.73540  0.38290  Biso   1.000  C
  C38      1.0000 0.77870  0.81860  0.34770  Biso   1.000  C
  H27      1.0000 0.76620  0.84340  0.31180  Biso   1.000  H
  C39      1.0000 0.82110  0.86520  0.36590  Biso   1.000  C
  H28      1.0000 0.83730  0.92090  0.34170  Biso   1.000  H
  C40      1.0000 0.67610  0.67220  0.40170  Biso   1.000  C
  C41      1.0000 0.65424  0.55710  0.40560  Biso   1.000  C
  H29      1.0000 0.66550  0.48820  0.38460  Biso   1.000  H
  C42      1.0000 0.61532  0.54440  0.44109  Biso   1.000  C
  H30      1.0000 0.60010  0.46700  0.44390  Biso   1.000  H
  C43      1.0000 0.59891  0.64910  0.47283  Biso   1.000  C
  C44      1.0000 0.62179  0.76410  0.46870  Biso   1.000  C
  H31      1.0000 0.61100  0.83350  0.48980  Biso   1.000  H
  C45      1.0000 0.66107  0.77560  0.43290  Biso   1.000  C
  H32      1.0000 0.67690  0.85220  0.43030  Biso   1.000  H
  C46      1.0000 0.55589  0.63940  0.50809  Biso   1.000  C
  C47      1.0000 0.45870  0.08850  0.35070  Biso   1.000  C
  H33      1.0000 0.48510  0.13330  0.36240  Biso   1.000  H
  C48      1.0000 0.40790  0.94000  0.33990  Biso   1.000  C
  H34      1.0000 0.39200  0.86370  0.34400  Biso   1.000  H
  C49      1.0000 0.39580  0.03430  0.30280  Biso   1.000  C
  H35      1.0000 0.37090  0.03390  0.27650  Biso   1.000  H
  N17      1.0000 0.44670  0.97390  0.37030  Biso   1.000  N
  N18      1.0000 0.42660  0.12950  0.31120  Biso   1.000  N
  C50      1.0000 0.43106  0.25120  0.28063  Biso   1.000  C
  C51      1.0000 0.43578  0.26120  0.21978  Biso   1.000  C
  H36      1.0000 0.43770  0.18900  0.19660  Biso   1.000  H
  C52      1.0000 0.43751  0.37990  0.19439  Biso   1.000  C
  H37      1.0000 0.44020  0.38810  0.15390  Biso   1.000  H
  C53      1.0000 0.43521  0.48570  0.22946  Biso   1.000  C
  C54      1.0000 0.42950  0.47680  0.28998  Biso   1.000  C
  H38      1.0000 0.42710  0.54900  0.31310  Biso   1.000  H
  C55      1.0000 0.42746  0.35760  0.31490  Biso   1.000  C
  H39      1.0000 0.42360  0.34940  0.35530  Biso   1.000  H
  C56      1.0000 0.40560  0.69830  0.21010  Biso   1.000  C
  H40      1.0000 0.38100  0.70140  0.23670  Biso   1.000  H
  C57      1.0000 0.41940  0.79090  0.17290  Biso   1.000  C
  H41      1.0000 0.40510  0.86950  0.16960  Biso   1.000  H
  C58      1.0000 0.46700  0.63550  0.15950  Biso   1.000  C
  H42      1.0000 0.49180  0.58630  0.14640  Biso   1.000  H
  N19      1.0000 0.43530  0.59910  0.20050  Biso   1.000  N
  N20      1.0000 0.45740  0.75260  0.14090  Biso   1.000  N
  N21      1.0000 0.90119  0.86670  0.49440  Biso   1.000  N
  N22      1.0000 0.94273  0.92920  0.49537  Biso   1.000  N
  N23      1.0000 0.95017  0.97910  0.44303  Biso   1.000  N
  N24      1.0000 0.91465  0.95070  0.40642  Biso   1.000  N
  N25      1.0000 0.54657  0.54810  0.54643  Biso   1.000  N
  N26      1.0000 0.50370  0.57840  0.56911  Biso   1.000  N
  N27      1.0000 0.48894  0.68350  0.54555  Biso   1.000  N
  N28      1.0000 0.52111  0.72400  0.50595  Biso   1.000  N
  O2       1.0000 0.71372  0.68410  0.36160  Biso   1.000  O
  Cd2      1.0000 0.49629  0.85603  0.43100  Biso   1.000  Cd
  N29      1.0000 0.44120  0.12780  0.30120  Biso   1.000  N
  N30      1.0000 0.46350  0.97170  0.35800  Biso   1.000  N
  C59      1.0000 0.42780  0.01810  0.27520  Biso   1.000  C
  H43      1.0000 0.41160  0.01010  0.24000  Biso   1.000  H
  C60      1.0000 0.44230  0.92260  0.31010  Biso   1.000  C
  H44      1.0000 0.43830  0.83700  0.30240  Biso   1.000  H
  C61      1.0000 0.45870  0.09780  0.35470  Biso   1.000  C
  H45      1.0000 0.46620  0.15510  0.38420  Biso   1.000  H
  C62      1.0000 0.43210  0.73800  0.22810  Biso   1.000  C
  H46      1.0000 0.41440  0.75160  0.26170  Biso   1.000  H
  C63      1.0000 0.44860  0.82750  0.19120  Biso   1.000  C
  H47      1.0000 0.44470  0.91410  0.19600  Biso   1.000  H
  C64      1.0000 0.46710  0.64600  0.15410  Biso   1.000  C
  H48      1.0000 0.47650  0.58410  0.12770  Biso   1.000  H
  N31      1.0000 0.44640  0.62350  0.20680  Biso   1.000  N
  N32      1.0000 0.47180  0.77150  0.14600  Biso   1.000  N
  C65      1.0000 0.38529  0.11760  0.06040  Biso   1.000  C
  C66      1.0000 0.34023  0.16890  0.08060  Biso   1.000  C
  C67      1.0000 0.31567  0.24980  0.04510  Biso   1.000  C
  H49      1.0000 0.32780  0.27260  0.00870  Biso   1.000  H
  C68      1.0000 0.27307  0.29760  0.06300  Biso   1.000  C
  H50      1.0000 0.25660  0.35220  0.03860  Biso   1.000  H
  C69      1.0000 0.25477  0.26460  0.11710  Biso   1.000  C
  C70      1.0000 0.27870  0.18140  0.15230  Biso   1.000  C
  H51      1.0000 0.26620  0.15660  0.18820  Biso   1.000  H
  C71      1.0000 0.32110  0.13480  0.13410  Biso   1.000  C
  H52      1.0000 0.33730  0.07910  0.15830  Biso   1.000  H
  C72      1.0000 0.17610  0.32780  0.09830  Biso   1.000  C
  C73      1.0000 0.15424  0.44290  0.09440  Biso   1.000  C
  H53      1.0000 0.16550  0.51180  0.11540  Biso   1.000  H
  C74      1.0000 0.11532  0.45560  0.05891  Biso   1.000  C
  H54      1.0000 0.10010  0.53300  0.05610  Biso   1.000  H
  C75      1.0000 0.09891  0.35090  0.02717  Biso   1.000  C
  C76      1.0000 0.12179  0.23590  0.03130  Biso   1.000  C
  H55      1.0000 0.11100  0.16650  0.01020  Biso   1.000  H
  C77      1.0000 0.16107  0.22440  0.06710  Biso   1.000  C
  H56      1.0000 0.17690  0.14780  0.06970  Biso   1.000  H
  C78      1.0000 0.05589  0.36060  0.99191  Biso   1.000  C
  C79      1.0000 0.95870  0.91150  0.14930  Biso   1.000  C
  H57      1.0000 0.98510  0.86670  0.13760  Biso   1.000  H
  C80      1.0000 0.90790  0.06000  0.16010  Biso   1.000  C
  H58      1.0000 0.89200  0.13630  0.15600  Biso   1.000  H
  C81      1.0000 0.89580  0.96570  0.19720  Biso   1.000  C
  H59      1.0000 0.87090  0.96610  0.22350  Biso   1.000  H
  N33      1.0000 0.94670  0.02610  0.12970  Biso   1.000  N
  N34      1.0000 0.92660  0.87050  0.18880  Biso   1.000  N
  C82      1.0000 0.93106  0.74880  0.21937  Biso   1.000  C
  C83      1.0000 0.93578  0.73880  0.28022  Biso   1.000  C
  H60      1.0000 0.93770  0.81100  0.30340  Biso   1.000  H
  C84      1.0000 0.93751  0.62010  0.30561  Biso   1.000  C
  H61      1.0000 0.94020  0.61190  0.34610  Biso   1.000  H
  C85      1.0000 0.93521  0.51430  0.27054  Biso   1.000  C
  C86      1.0000 0.92950  0.52320  0.21002  Biso   1.000  C
  H62      1.0000 0.92710  0.45100  0.18690  Biso   1.000  H
  C87      1.0000 0.92746  0.64240  0.18510  Biso   1.000  C
  H63      1.0000 0.92360  0.65060  0.14470  Biso   1.000  H
  C88      1.0000 0.90560  0.30170  0.28990  Biso   1.000  C
  H64      1.0000 0.88100  0.29860  0.26330  Biso   1.000  H
  C89      1.0000 0.91940  0.20910  0.32710  Biso   1.000  C
  H65      1.0000 0.90510  0.13050  0.33040  Biso   1.000  H
  C90      1.0000 0.96700  0.36450  0.34050  Biso   1.000  C
  H66      1.0000 0.99180  0.41370  0.35360  Biso   1.000  H
  N35      1.0000 0.93530  0.40090  0.29950  Biso   1.000  N
  N36      1.0000 0.95740  0.24740  0.35910  Biso   1.000  N
  N37      1.0000 0.40119  0.13330  0.00560  Biso   1.000  N
  N38      1.0000 0.44273  0.07080  0.00463  Biso   1.000  N
  N39      1.0000 0.45017  0.02090  0.05697  Biso   1.000  N
  N40      1.0000 0.41465  0.04930  0.09358  Biso   1.000  N
  N41      1.0000 0.04657  0.45190  0.95357  Biso   1.000  N
  N42      1.0000 0.00370  0.42160  0.93089  Biso   1.000  N
  N43      1.0000 0.98894  0.31650  0.95445  Biso   1.000  N
  N44      1.0000 0.02111  0.27600  0.99405  Biso   1.000  N
  O3       1.0000 0.21372  0.31590  0.13840  Biso   1.000  O
  Cd3      1.0000 0.99629  0.14397  0.06900  Biso   1.000  Cd
  N45      1.0000 0.94120  0.87220  0.19880  Biso   1.000  N
  N46      1.0000 0.96350  0.02830  0.14200  Biso   1.000  N
  C91      1.0000 0.92780  0.98190  0.22480  Biso   1.000  C
  H67      1.0000 0.91160  0.98990  0.26000  Biso   1.000  H
  C92      1.0000 0.94230  0.07740  0.18990  Biso   1.000  C
  H68      1.0000 0.93830  0.16300  0.19760  Biso   1.000  H
  C93      1.0000 0.95870  0.90220  0.14530  Biso   1.000  C
  H69      1.0000 0.96620  0.84490  0.11580  Biso   1.000  H
  C94      1.0000 0.93210  0.26200  0.27190  Biso   1.000  C
  H70      1.0000 0.91440  0.24840  0.23830  Biso   1.000  H
  C95      1.0000 0.94860  0.17250  0.30880  Biso   1.000  C
  H71      1.0000 0.94470  0.08590  0.30400  Biso   1.000  H
  C96      1.0000 0.96710  0.35400  0.34590  Biso   1.000  C
  H72      1.0000 0.97650  0.41590  0.37230  Biso   1.000  H
  N47      1.0000 0.94640  0.37650  0.29320  Biso   1.000  N
  N48      1.0000 0.97180  0.22850  0.35400  Biso   1.000  N
  C97      1.0000 0.11471  0.88240  0.06040  Biso   1.000  C
  C98      1.0000 0.15977  0.83110  0.08060  Biso   1.000  C
  C99      1.0000 0.18433  0.75020  0.04510  Biso   1.000  C
  H73      1.0000 0.17220  0.72740  0.00870  Biso   1.000  H
  C100     1.0000 0.22693  0.70240  0.06300  Biso   1.000  C
  H74      1.0000 0.24340  0.64780  0.03860  Biso   1.000  H
  C101     1.0000 0.24523  0.73540  0.11710  Biso   1.000  C
  C102     1.0000 0.22130  0.81860  0.15230  Biso   1.000  C
  H75      1.0000 0.23380  0.84340  0.18820  Biso   1.000  H
  C103     1.0000 0.17890  0.86520  0.13410  Biso   1.000  C
  H76      1.0000 0.16270  0.92090  0.15830  Biso   1.000  H
  C104     1.0000 0.32390  0.67220  0.09830  Biso   1.000  C
  C105     1.0000 0.34576  0.55710  0.09440  Biso   1.000  C
  H77      1.0000 0.33450  0.48820  0.11540  Biso   1.000  H
  C106     1.0000 0.38468  0.54440  0.05891  Biso   1.000  C
  H78      1.0000 0.39990  0.46700  0.05610  Biso   1.000  H
  C107     1.0000 0.40109  0.64910  0.02717  Biso   1.000  C
  C108     1.0000 0.37821  0.76410  0.03130  Biso   1.000  C
  H79      1.0000 0.38900  0.83350  0.01020  Biso   1.000  H
  C109     1.0000 0.33893  0.77560  0.06710  Biso   1.000  C
  H80      1.0000 0.32310  0.85220  0.06970  Biso   1.000  H
  C110     1.0000 0.44411  0.63940  0.99191  Biso   1.000  C
  C111     1.0000 0.54130  0.08850  0.14930  Biso   1.000  C
  H81      1.0000 0.51490  0.13330  0.13760  Biso   1.000  H
  C112     1.0000 0.59210  0.94000  0.16010  Biso   1.000  C
  H82      1.0000 0.60800  0.86370  0.15600  Biso   1.000  H
  C113     1.0000 0.60420  0.03430  0.19720  Biso   1.000  C
  H83      1.0000 0.62910  0.03390  0.22350  Biso   1.000  H
  N49      1.0000 0.55330  0.97390  0.12970  Biso   1.000  N
  N50      1.0000 0.57340  0.12950  0.18880  Biso   1.000  N
  C114     1.0000 0.56894  0.25120  0.21937  Biso   1.000  C
  C115     1.0000 0.56422  0.26120  0.28022  Biso   1.000  C
  H84      1.0000 0.56230  0.18900  0.30340  Biso   1.000  H
  C116     1.0000 0.56249  0.37990  0.30561  Biso   1.000  C
  H85      1.0000 0.55980  0.38810  0.34610  Biso   1.000  H
  C117     1.0000 0.56479  0.48570  0.27054  Biso   1.000  C
  C118     1.0000 0.57050  0.47680  0.21002  Biso   1.000  C
  H86      1.0000 0.57290  0.54900  0.18690  Biso   1.000  H
  C119     1.0000 0.57254  0.35760  0.18510  Biso   1.000  C
  H87      1.0000 0.57640  0.34940  0.14470  Biso   1.000  H
  C120     1.0000 0.59440  0.69830  0.28990  Biso   1.000  C
  H88      1.0000 0.61900  0.70140  0.26330  Biso   1.000  H
  C121     1.0000 0.58060  0.79090  0.32710  Biso   1.000  C
  H89      1.0000 0.59490  0.86950  0.33040  Biso   1.000  H
  C122     1.0000 0.53300  0.63550  0.34050  Biso   1.000  C
  H90      1.0000 0.50820  0.58630  0.35360  Biso   1.000  H
  N51      1.0000 0.56470  0.59910  0.29950  Biso   1.000  N
  N52      1.0000 0.54260  0.75260  0.35910  Biso   1.000  N
  N53      1.0000 0.09881  0.86670  0.00560  Biso   1.000  N
  N54      1.0000 0.05727  0.92920  0.00463  Biso   1.000  N
  N55      1.0000 0.04983  0.97910  0.05697  Biso   1.000  N
  N56      1.0000 0.08535  0.95070  0.09358  Biso   1.000  N
  N57      1.0000 0.45343  0.54810  0.95357  Biso   1.000  N
  N58      1.0000 0.49630  0.57840  0.93089  Biso   1.000  N
  N59      1.0000 0.51106  0.68350  0.95445  Biso   1.000  N
  N60      1.0000 0.47889  0.72400  0.99405  Biso   1.000  N
  O4       1.0000 0.28628  0.68410  0.13840  Biso   1.000  O
  Cd4      1.0000 0.50371  0.85603  0.06900  Biso   1.000  Cd
  N61      1.0000 0.55880  0.12780  0.19880  Biso   1.000  N
  N62      1.0000 0.53650  0.97170  0.14200  Biso   1.000  N
  C123     1.0000 0.57220  0.01810  0.22480  Biso   1.000  C
  H91      1.0000 0.58840  0.01010  0.26000  Biso   1.000  H
  C124     1.0000 0.55770  0.92260  0.18990  Biso   1.000  C
  H92      1.0000 0.56170  0.83700  0.19760  Biso   1.000  H
  C125     1.0000 0.54130  0.09780  0.14530  Biso   1.000  C
  H93      1.0000 0.53380  0.15510  0.11580  Biso   1.000  H
  C126     1.0000 0.56790  0.73800  0.27190  Biso   1.000  C
  H94      1.0000 0.58560  0.75160  0.23830  Biso   1.000  H
  C127     1.0000 0.55140  0.82750  0.30880  Biso   1.000  C
  H95      1.0000 0.55530  0.91410  0.30400  Biso   1.000  H
  C128     1.0000 0.53290  0.64600  0.34590  Biso   1.000  C
  H96      1.0000 0.52350  0.58410  0.37230  Biso   1.000  H
  N63      1.0000 0.55360  0.62350  0.29320  Biso   1.000  N
  N64      1.0000 0.52820  0.77150  0.35400  Biso   1.000  N
  C129     1.0000 0.38529  0.88240  0.56040  Biso   1.000  C
  C130     1.0000 0.34023  0.83110  0.58060  Biso   1.000  C
  C131     1.0000 0.31567  0.75020  0.54510  Biso   1.000  C
  H97      1.0000 0.32780  0.72740  0.50870  Biso   1.000  H
  C132     1.0000 0.27307  0.70240  0.56300  Biso   1.000  C
  H98      1.0000 0.25660  0.64780  0.53860  Biso   1.000  H
  C133     1.0000 0.25477  0.73540  0.61710  Biso   1.000  C
  C134     1.0000 0.27870  0.81860  0.65230  Biso   1.000  C
  H99      1.0000 0.26620  0.84340  0.68820  Biso   1.000  H
  C135     1.0000 0.32110  0.86520  0.63410  Biso   1.000  C
  H100     1.0000 0.33730  0.92090  0.65830  Biso   1.000  H
  C136     1.0000 0.17610  0.67220  0.59830  Biso   1.000  C
  C137     1.0000 0.15424  0.55710  0.59440  Biso   1.000  C
  H101     1.0000 0.16550  0.48820  0.61540  Biso   1.000  H
  C138     1.0000 0.11532  0.54440  0.55891  Biso   1.000  C
  H102     1.0000 0.10010  0.46700  0.55610  Biso   1.000  H
  C139     1.0000 0.09891  0.64910  0.52717  Biso   1.000  C
  C140     1.0000 0.12179  0.76410  0.53130  Biso   1.000  C
  H103     1.0000 0.11100  0.83350  0.51020  Biso   1.000  H
  C141     1.0000 0.16107  0.77560  0.56710  Biso   1.000  C
  H104     1.0000 0.17690  0.85220  0.56970  Biso   1.000  H
  C142     1.0000 0.05589  0.63940  0.49191  Biso   1.000  C
  C143     1.0000 0.95870  0.08850  0.64930  Biso   1.000  C
  H105     1.0000 0.98510  0.13330  0.63760  Biso   1.000  H
  C144     1.0000 0.90790  0.94000  0.66010  Biso   1.000  C
  H106     1.0000 0.89200  0.86370  0.65600  Biso   1.000  H
  C145     1.0000 0.89580  0.03430  0.69720  Biso   1.000  C
  H107     1.0000 0.87090  0.03390  0.72350  Biso   1.000  H
  N65      1.0000 0.94670  0.97390  0.62970  Biso   1.000  N
  N66      1.0000 0.92660  0.12950  0.68880  Biso   1.000  N
  C146     1.0000 0.93106  0.25120  0.71937  Biso   1.000  C
  C147     1.0000 0.93578  0.26120  0.78022  Biso   1.000  C
  H108     1.0000 0.93770  0.18900  0.80340  Biso   1.000  H
  C148     1.0000 0.93751  0.37990  0.80561  Biso   1.000  C
  H109     1.0000 0.94020  0.38810  0.84610  Biso   1.000  H
  C149     1.0000 0.93521  0.48570  0.77054  Biso   1.000  C
  C150     1.0000 0.92950  0.47680  0.71002  Biso   1.000  C
  H110     1.0000 0.92710  0.54900  0.68690  Biso   1.000  H
  C151     1.0000 0.92746  0.35760  0.68510  Biso   1.000  C
  H111     1.0000 0.92360  0.34940  0.64470  Biso   1.000  H
  C152     1.0000 0.90560  0.69830  0.78990  Biso   1.000  C
  H112     1.0000 0.88100  0.70140  0.76330  Biso   1.000  H
  C153     1.0000 0.91940  0.79090  0.82710  Biso   1.000  C
  H113     1.0000 0.90510  0.86950  0.83040  Biso   1.000  H
  C154     1.0000 0.96700  0.63550  0.84050  Biso   1.000  C
  H114     1.0000 0.99180  0.58630  0.85360  Biso   1.000  H
  N67      1.0000 0.93530  0.59910  0.79950  Biso   1.000  N
  N68      1.0000 0.95740  0.75260  0.85910  Biso   1.000  N
  N69      1.0000 0.40119  0.86670  0.50560  Biso   1.000  N
  N70      1.0000 0.44273  0.92920  0.50463  Biso   1.000  N
  N71      1.0000 0.45017  0.97910  0.55697  Biso   1.000  N
  N72      1.0000 0.41465  0.95070  0.59358  Biso   1.000  N
  N73      1.0000 0.04657  0.54810  0.45357  Biso   1.000  N
  N74      1.0000 0.00370  0.57840  0.43089  Biso   1.000  N
  N75      1.0000 0.98894  0.68350  0.45445  Biso   1.000  N
  N76      1.0000 0.02111  0.72400  0.49405  Biso   1.000  N
  O5       1.0000 0.21372  0.68410  0.63840  Biso   1.000  O
  Cd5      1.0000 0.99629  0.85603  0.56900  Biso   1.000  Cd
  N77      1.0000 0.94120  0.12780  0.69880  Biso   1.000  N
  N78      1.0000 0.96350  0.97170  0.64200  Biso   1.000  N
  C155     1.0000 0.92780  0.01810  0.72480  Biso   1.000  C
  H115     1.0000 0.91160  0.01010  0.76000  Biso   1.000  H
  C156     1.0000 0.94230  0.92260  0.68990  Biso   1.000  C
  H116     1.0000 0.93830  0.83700  0.69760  Biso   1.000  H
  C157     1.0000 0.95870  0.09780  0.64530  Biso   1.000  C
  H117     1.0000 0.96620  0.15510  0.61580  Biso   1.000  H
  C158     1.0000 0.93210  0.73800  0.77190  Biso   1.000  C
  H118     1.0000 0.91440  0.75160  0.73830  Biso   1.000  H
  C159     1.0000 0.94860  0.82750  0.80880  Biso   1.000  C
  H119     1.0000 0.94470  0.91410  0.80400  Biso   1.000  H
  C160     1.0000 0.96710  0.64600  0.84590  Biso   1.000  C
  H120     1.0000 0.97650  0.58410  0.87230  Biso   1.000  H
  N79      1.0000 0.94640  0.62350  0.79320  Biso   1.000  N
  N80      1.0000 0.97180  0.77150  0.85400  Biso   1.000  N
  C161     1.0000 0.11471  0.11760  0.56040  Biso   1.000  C
  C162     1.0000 0.15977  0.16890  0.58060  Biso   1.000  C
  C163     1.0000 0.18433  0.24980  0.54510  Biso   1.000  C
  H121     1.0000 0.17220  0.27260  0.50870  Biso   1.000  H
  C164     1.0000 0.22693  0.29760  0.56300  Biso   1.000  C
  H122     1.0000 0.24340  0.35220  0.53860  Biso   1.000  H
  C165     1.0000 0.24523  0.26460  0.61710  Biso   1.000  C
  C166     1.0000 0.22130  0.18140  0.65230  Biso   1.000  C
  H123     1.0000 0.23380  0.15660  0.68820  Biso   1.000  H
  C167     1.0000 0.17890  0.13480  0.63410  Biso   1.000  C
  H124     1.0000 0.16270  0.07910  0.65830  Biso   1.000  H
  C168     1.0000 0.32390  0.32780  0.59830  Biso   1.000  C
  C169     1.0000 0.34576  0.44290  0.59440  Biso   1.000  C
  H125     1.0000 0.33450  0.51180  0.61540  Biso   1.000  H
  C170     1.0000 0.38468  0.45560  0.55891  Biso   1.000  C
  H126     1.0000 0.39990  0.53300  0.55610  Biso   1.000  H
  C171     1.0000 0.40109  0.35090  0.52717  Biso   1.000  C
  C172     1.0000 0.37821  0.23590  0.53130  Biso   1.000  C
  H127     1.0000 0.38900  0.16650  0.51020  Biso   1.000  H
  C173     1.0000 0.33893  0.22440  0.56710  Biso   1.000  C
  H128     1.0000 0.32310  0.14780  0.56970  Biso   1.000  H
  C174     1.0000 0.44411  0.36060  0.49191  Biso   1.000  C
  C175     1.0000 0.54130  0.91150  0.64930  Biso   1.000  C
  H129     1.0000 0.51490  0.86670  0.63760  Biso   1.000  H
  C176     1.0000 0.59210  0.06000  0.66010  Biso   1.000  C
  H130     1.0000 0.60800  0.13630  0.65600  Biso   1.000  H
  C177     1.0000 0.60420  0.96570  0.69720  Biso   1.000  C
  H131     1.0000 0.62910  0.96610  0.72350  Biso   1.000  H
  N81      1.0000 0.55330  0.02610  0.62970  Biso   1.000  N
  N82      1.0000 0.57340  0.87050  0.68880  Biso   1.000  N
  C178     1.0000 0.56894  0.74880  0.71937  Biso   1.000  C
  C179     1.0000 0.56422  0.73880  0.78022  Biso   1.000  C
  H132     1.0000 0.56230  0.81100  0.80340  Biso   1.000  H
  C180     1.0000 0.56249  0.62010  0.80561  Biso   1.000  C
  H133     1.0000 0.55980  0.61190  0.84610  Biso   1.000  H
  C181     1.0000 0.56479  0.51430  0.77054  Biso   1.000  C
  C182     1.0000 0.57050  0.52320  0.71002  Biso   1.000  C
  H134     1.0000 0.57290  0.45100  0.68690  Biso   1.000  H
  C183     1.0000 0.57254  0.64240  0.68510  Biso   1.000  C
  H135     1.0000 0.57640  0.65060  0.64470  Biso   1.000  H
  C184     1.0000 0.59440  0.30170  0.78990  Biso   1.000  C
  H136     1.0000 0.61900  0.29860  0.76330  Biso   1.000  H
  C185     1.0000 0.58060  0.20910  0.82710  Biso   1.000  C
  H137     1.0000 0.59490  0.13050  0.83040  Biso   1.000  H
  C186     1.0000 0.53300  0.36450  0.84050  Biso   1.000  C
  H138     1.0000 0.50820  0.41370  0.85360  Biso   1.000  H
  N83      1.0000 0.56470  0.40090  0.79950  Biso   1.000  N
  N84      1.0000 0.54260  0.24740  0.85910  Biso   1.000  N
  N85      1.0000 0.09881  0.13330  0.50560  Biso   1.000  N
  N86      1.0000 0.05727  0.07080  0.50463  Biso   1.000  N
  N87      1.0000 0.04983  0.02090  0.55697  Biso   1.000  N
  N88      1.0000 0.08535  0.04930  0.59358  Biso   1.000  N
  N89      1.0000 0.45343  0.45190  0.45357  Biso   1.000  N
  N90      1.0000 0.49630  0.42160  0.43089  Biso   1.000  N
  N91      1.0000 0.51106  0.31650  0.45445  Biso   1.000  N
  N92      1.0000 0.47889  0.27600  0.49405  Biso   1.000  N
  O6       1.0000 0.28628  0.31590  0.63840  Biso   1.000  O
  Cd6      1.0000 0.50371  0.14397  0.56900  Biso   1.000  Cd
  N93      1.0000 0.55880  0.87220  0.69880  Biso   1.000  N
  N94      1.0000 0.53650  0.02830  0.64200  Biso   1.000  N
  C187     1.0000 0.57220  0.98190  0.72480  Biso   1.000  C
  H139     1.0000 0.58840  0.98990  0.76000  Biso   1.000  H
  C188     1.0000 0.55770  0.07740  0.68990  Biso   1.000  C
  H140     1.0000 0.56170  0.16300  0.69760  Biso   1.000  H
  C189     1.0000 0.54130  0.90220  0.64530  Biso   1.000  C
  H141     1.0000 0.53380  0.84490  0.61580  Biso   1.000  H
  C190     1.0000 0.56790  0.26200  0.77190  Biso   1.000  C
  H142     1.0000 0.58560  0.24840  0.73830  Biso   1.000  H
  C191     1.0000 0.55140  0.17250  0.80880  Biso   1.000  C
  H143     1.0000 0.55530  0.08590  0.80400  Biso   1.000  H
  C192     1.0000 0.53290  0.35400  0.84590  Biso   1.000  C
  H144     1.0000 0.52350  0.41590  0.87230  Biso   1.000  H
  N95      1.0000 0.55360  0.37650  0.79320  Biso   1.000  N
  N96      1.0000 0.52820  0.22850  0.85400  Biso   1.000  N
  C193     1.0000 0.61471  0.88240  0.93960  Biso   1.000  C
  C194     1.0000 0.65977  0.83110  0.91940  Biso   1.000  C
  C195     1.0000 0.68433  0.75020  0.95490  Biso   1.000  C
  H145     1.0000 0.67220  0.72740  0.99130  Biso   1.000  H
  C196     1.0000 0.72693  0.70240  0.93700  Biso   1.000  C
  H146     1.0000 0.74340  0.64780  0.96140  Biso   1.000  H
  C197     1.0000 0.74523  0.73540  0.88290  Biso   1.000  C
  C198     1.0000 0.72130  0.81860  0.84770  Biso   1.000  C
  H147     1.0000 0.73380  0.84340  0.81180  Biso   1.000  H
  C199     1.0000 0.67890  0.86520  0.86590  Biso   1.000  C
  H148     1.0000 0.66270  0.92090  0.84170  Biso   1.000  H
  C200     1.0000 0.82390  0.67220  0.90170  Biso   1.000  C
  C201     1.0000 0.84576  0.55710  0.90560  Biso   1.000  C
  H149     1.0000 0.83450  0.48820  0.88460  Biso   1.000  H
  C202     1.0000 0.88468  0.54440  0.94109  Biso   1.000  C
  H150     1.0000 0.89990  0.46700  0.94390  Biso   1.000  H
  C203     1.0000 0.90109  0.64910  0.97283  Biso   1.000  C
  C204     1.0000 0.87821  0.76410  0.96870  Biso   1.000  C
  H151     1.0000 0.88900  0.83350  0.98980  Biso   1.000  H
  C205     1.0000 0.83893  0.77560  0.93290  Biso   1.000  C
  H152     1.0000 0.82310  0.85220  0.93030  Biso   1.000  H
  C206     1.0000 0.94411  0.63940  0.00809  Biso   1.000  C
  C207     1.0000 0.04130  0.08850  0.85070  Biso   1.000  C
  H153     1.0000 0.01490  0.13330  0.86240  Biso   1.000  H
  C208     1.0000 0.09210  0.94000  0.83990  Biso   1.000  C
  H154     1.0000 0.10800  0.86370  0.84400  Biso   1.000  H
  C209     1.0000 0.10420  0.03430  0.80280  Biso   1.000  C
  H155     1.0000 0.12910  0.03390  0.77650  Biso   1.000  H
  N97      1.0000 0.05330  0.97390  0.87030  Biso   1.000  N
  N98      1.0000 0.07340  0.12950  0.81120  Biso   1.000  N
  C210     1.0000 0.06894  0.25120  0.78063  Biso   1.000  C
  C211     1.0000 0.06422  0.26120  0.71978  Biso   1.000  C
  H156     1.0000 0.06230  0.18900  0.69660  Biso   1.000  H
  C212     1.0000 0.06249  0.37990  0.69439  Biso   1.000  C
  H157     1.0000 0.05980  0.38810  0.65390  Biso   1.000  H
  C213     1.0000 0.06479  0.48570  0.72946  Biso   1.000  C
  C214     1.0000 0.07050  0.47680  0.78998  Biso   1.000  C
  H158     1.0000 0.07290  0.54900  0.81310  Biso   1.000  H
  C215     1.0000 0.07254  0.35760  0.81490  Biso   1.000  C
  H159     1.0000 0.07640  0.34940  0.85530  Biso   1.000  H
  C216     1.0000 0.09440  0.69830  0.71010  Biso   1.000  C
  H160     1.0000 0.11900  0.70140  0.73670  Biso   1.000  H
  C217     1.0000 0.08060  0.79090  0.67290  Biso   1.000  C
  H161     1.0000 0.09490  0.86950  0.66960  Biso   1.000  H
  C218     1.0000 0.03300  0.63550  0.65950  Biso   1.000  C
  H162     1.0000 0.00820  0.58630  0.64640  Biso   1.000  H
  N99      1.0000 0.06470  0.59910  0.70050  Biso   1.000  N
  N100     1.0000 0.04260  0.75260  0.64090  Biso   1.000  N
  N101     1.0000 0.59881  0.86670  0.99440  Biso   1.000  N
  N102     1.0000 0.55727  0.92920  0.99537  Biso   1.000  N
  N103     1.0000 0.54983  0.97910  0.94303  Biso   1.000  N
  N104     1.0000 0.58535  0.95070  0.90642  Biso   1.000  N
  N105     1.0000 0.95343  0.54810  0.04643  Biso   1.000  N
  N106     1.0000 0.99630  0.57840  0.06911  Biso   1.000  N
  N107     1.0000 0.01106  0.68350  0.04555  Biso   1.000  N
  N108     1.0000 0.97889  0.72400  0.00595  Biso   1.000  N
  O7       1.0000 0.78628  0.68410  0.86160  Biso   1.000  O
  Cd7      1.0000 0.00371  0.85603  0.93100  Biso   1.000  Cd
  N109     1.0000 0.05880  0.12780  0.80120  Biso   1.000  N
  N110     1.0000 0.03650  0.97170  0.85800  Biso   1.000  N
  C219     1.0000 0.07220  0.01810  0.77520  Biso   1.000  C
  H163     1.0000 0.08840  0.01010  0.74000  Biso   1.000  H
  C220     1.0000 0.05770  0.92260  0.81010  Biso   1.000  C
  H164     1.0000 0.06170  0.83700  0.80240  Biso   1.000  H
  C221     1.0000 0.04130  0.09780  0.85470  Biso   1.000  C
  H165     1.0000 0.03380  0.15510  0.88420  Biso   1.000  H
  C222     1.0000 0.06790  0.73800  0.72810  Biso   1.000  C
  H166     1.0000 0.08560  0.75160  0.76170  Biso   1.000  H
  C223     1.0000 0.05140  0.82750  0.69120  Biso   1.000  C
  H167     1.0000 0.05530  0.91410  0.69600  Biso   1.000  H
  C224     1.0000 0.03290  0.64600  0.65410  Biso   1.000  C
  H168     1.0000 0.02350  0.58410  0.62770  Biso   1.000  H
  N111     1.0000 0.05360  0.62350  0.70680  Biso   1.000  N
  N112     1.0000 0.02820  0.77150  0.64600  Biso   1.000  N
  C225     1.0000 0.88529  0.11760  0.93960  Biso   1.000  C
  C226     1.0000 0.84023  0.16890  0.91940  Biso   1.000  C
  C227     1.0000 0.81567  0.24980  0.95490  Biso   1.000  C
  H169     1.0000 0.82780  0.27260  0.99130  Biso   1.000  H
  C228     1.0000 0.77307  0.29760  0.93700  Biso   1.000  C
  H170     1.0000 0.75660  0.35220  0.96140  Biso   1.000  H
  C229     1.0000 0.75477  0.26460  0.88290  Biso   1.000  C
  C230     1.0000 0.77870  0.18140  0.84770  Biso   1.000  C
  H171     1.0000 0.76620  0.15660  0.81180  Biso   1.000  H
  C231     1.0000 0.82110  0.13480  0.86590  Biso   1.000  C
  H172     1.0000 0.83730  0.07910  0.84170  Biso   1.000  H
  C232     1.0000 0.67610  0.32780  0.90170  Biso   1.000  C
  C233     1.0000 0.65424  0.44290  0.90560  Biso   1.000  C
  H173     1.0000 0.66550  0.51180  0.88460  Biso   1.000  H
  C234     1.0000 0.61532  0.45560  0.94109  Biso   1.000  C
  H174     1.0000 0.60010  0.53300  0.94390  Biso   1.000  H
  C235     1.0000 0.59891  0.35090  0.97283  Biso   1.000  C
  C236     1.0000 0.62179  0.23590  0.96870  Biso   1.000  C
  H175     1.0000 0.61100  0.16650  0.98980  Biso   1.000  H
  C237     1.0000 0.66107  0.22440  0.93290  Biso   1.000  C
  H176     1.0000 0.67690  0.14780  0.93030  Biso   1.000  H
  C238     1.0000 0.55589  0.36060  0.00809  Biso   1.000  C
  C239     1.0000 0.45870  0.91150  0.85070  Biso   1.000  C
  H177     1.0000 0.48510  0.86670  0.86240  Biso   1.000  H
  C240     1.0000 0.40790  0.06000  0.83990  Biso   1.000  C
  H178     1.0000 0.39200  0.13630  0.84400  Biso   1.000  H
  C241     1.0000 0.39580  0.96570  0.80280  Biso   1.000  C
  H179     1.0000 0.37090  0.96610  0.77650  Biso   1.000  H
  N113     1.0000 0.44670  0.02610  0.87030  Biso   1.000  N
  N114     1.0000 0.42660  0.87050  0.81120  Biso   1.000  N
  C242     1.0000 0.43106  0.74880  0.78063  Biso   1.000  C
  C243     1.0000 0.43578  0.73880  0.71978  Biso   1.000  C
  H180     1.0000 0.43770  0.81100  0.69660  Biso   1.000  H
  C244     1.0000 0.43751  0.62010  0.69439  Biso   1.000  C
  H181     1.0000 0.44020  0.61190  0.65390  Biso   1.000  H
  C245     1.0000 0.43521  0.51430  0.72946  Biso   1.000  C
  C246     1.0000 0.42950  0.52320  0.78998  Biso   1.000  C
  H182     1.0000 0.42710  0.45100  0.81310  Biso   1.000  H
  C247     1.0000 0.42746  0.64240  0.81490  Biso   1.000  C
  H183     1.0000 0.42360  0.65060  0.85530  Biso   1.000  H
  C248     1.0000 0.40560  0.30170  0.71010  Biso   1.000  C
  H184     1.0000 0.38100  0.29860  0.73670  Biso   1.000  H
  C249     1.0000 0.41940  0.20910  0.67290  Biso   1.000  C
  H185     1.0000 0.40510  0.13050  0.66960  Biso   1.000  H
  C250     1.0000 0.46700  0.36450  0.65950  Biso   1.000  C
  H186     1.0000 0.49180  0.41370  0.64640  Biso   1.000  H
  N115     1.0000 0.43530  0.40090  0.70050  Biso   1.000  N
  N116     1.0000 0.45740  0.24740  0.64090  Biso   1.000  N
  N117     1.0000 0.90119  0.13330  0.99440  Biso   1.000  N
  N118     1.0000 0.94273  0.07080  0.99537  Biso   1.000  N
  N119     1.0000 0.95017  0.02090  0.94303  Biso   1.000  N
  N120     1.0000 0.91465  0.04930  0.90642  Biso   1.000  N
  N121     1.0000 0.54657  0.45190  0.04643  Biso   1.000  N
  N122     1.0000 0.50370  0.42160  0.06911  Biso   1.000  N
  N123     1.0000 0.48894  0.31650  0.04555  Biso   1.000  N
  N124     1.0000 0.52111  0.27600  0.00595  Biso   1.000  N
  O8       1.0000 0.71372  0.31590  0.86160  Biso   1.000  O
  Cd8      1.0000 0.49629  0.14397  0.93100  Biso   1.000  Cd
  N125     1.0000 0.44120  0.87220  0.80120  Biso   1.000  N
  N126     1.0000 0.46350  0.02830  0.85800  Biso   1.000  N
  C251     1.0000 0.42780  0.98190  0.77520  Biso   1.000  C
  H187     1.0000 0.41160  0.98990  0.74000  Biso   1.000  H
  C252     1.0000 0.44230  0.07740  0.81010  Biso   1.000  C
  H188     1.0000 0.43830  0.16300  0.80240  Biso   1.000  H
  C253     1.0000 0.45870  0.90220  0.85470  Biso   1.000  C
  H189     1.0000 0.46620  0.84490  0.88420  Biso   1.000  H
  C254     1.0000 0.43210  0.26200  0.72810  Biso   1.000  C
  H190     1.0000 0.41440  0.24840  0.76170  Biso   1.000  H
  C255     1.0000 0.44860  0.17250  0.69120  Biso   1.000  C
  H191     1.0000 0.44470  0.08590  0.69600  Biso   1.000  H
  C256     1.0000 0.46710  0.35400  0.65410  Biso   1.000  C
  H192     1.0000 0.47650  0.41590  0.62770  Biso   1.000  H
  N127     1.0000 0.44640  0.37650  0.70680  Biso   1.000  N
  N128     1.0000 0.47180  0.22850  0.64600  Biso   1.000  N
