data_image0
_cell_length_a       28.13
_cell_length_b       14.427
_cell_length_c       10.38
_cell_angle_alpha    90
_cell_angle_beta     90
_cell_angle_gamma    90

_symmetry_space_group_name_H-M    "P 1"
_symmetry_int_tables_number       1

loop_
  _symmetry_equiv_pos_as_xyz
  'x, y, z'

loop_
  _atom_site_label
  _atom_site_occupancy
  _atom_site_fract_x
  _atom_site_fract_y
  _atom_site_fract_z
  _atom_site_thermal_displace_type
  _atom_site_B_iso_or_equiv
  _atom_site_type_symbol
  Zn1      1.0000 0.19359  0.03501  0.56784  Biso   1.000  Zn
  O1       1.0000 0.12932  0.98640  0.56910  Biso   1.000  O
  N1       1.0000 0.19508  0.17100  0.59960  Biso   1.000  N
  N2       1.0000 0.23819  0.01510  0.41820  Biso   1.000  N
  N3       1.0000 0.27720  0.00940  0.23590  Biso   1.000  N
  C1       1.0000 0.10260  0.02930  0.47460  Biso   1.000  C
  N4       1.0000 0.21080  0.20440  0.72140  Biso   1.000  N
  C2       1.0000 0.23590  0.00070  0.29180  Biso   1.000  C
  N5       1.0000 0.28600  0.02750  0.44160  Biso   1.000  N
  C3       1.0000 0.04910  0.01230  0.48760  Biso   1.000  C
  O2       1.0000 0.11932  0.07000  0.38330  Biso   1.000  O
  N6       1.0000 0.19370  0.98810  0.22770  Biso   1.000  N
  N7       1.0000 0.30970  0.02710  0.33650  Biso   1.000  N
  C4       1.0000 0.01930  0.04270  0.39380  Biso   1.000  C
  C5       1.0000 0.03000  0.96370  0.59660  Biso   1.000  C
  H1       1.0000 0.16550  0.19610  0.36920  Biso   1.000  H
  H2       1.0000 0.16600  0.98820  0.27120  Biso   1.000  H
  H3       1.0000 0.19380  0.97870  0.14200  Biso   1.000  H
  H4       1.0000 0.03310  0.06820  0.31710  Biso   1.000  H
  H5       1.0000 0.05060  0.93540  0.65890  Biso   1.000  H
  H6       1.0000 0.16270  0.30390  0.37180  Biso   1.000  H
  Zn2      1.0000 0.30641  0.96499  0.06784  Biso   1.000  Zn
  O3       1.0000 0.37068  0.01360  0.06910  Biso   1.000  O
  N8       1.0000 0.30492  0.82900  0.09960  Biso   1.000  N
  N9       1.0000 0.26181  0.98490  0.91820  Biso   1.000  N
  N10      1.0000 0.22280  0.99060  0.73590  Biso   1.000  N
  C6       1.0000 0.39740  0.97070  0.97460  Biso   1.000  C
  N11      1.0000 0.28920  0.79560  0.22140  Biso   1.000  N
  C7       1.0000 0.26410  0.99930  0.79180  Biso   1.000  C
  N12      1.0000 0.21400  0.97250  0.94160  Biso   1.000  N
  C8       1.0000 0.45090  0.98770  0.98760  Biso   1.000  C
  O4       1.0000 0.38068  0.93000  0.88330  Biso   1.000  O
  N13      1.0000 0.30630  0.01190  0.72770  Biso   1.000  N
  N14      1.0000 0.19030  0.97290  0.83650  Biso   1.000  N
  C9       1.0000 0.48070  0.95730  0.89380  Biso   1.000  C
  C10      1.0000 0.47000  0.03630  0.09660  Biso   1.000  C
  H7       1.0000 0.33450  0.80390  0.86920  Biso   1.000  H
  H8       1.0000 0.33400  0.01180  0.77120  Biso   1.000  H
  H9       1.0000 0.30620  0.02130  0.64200  Biso   1.000  H
  H10      1.0000 0.46690  0.93180  0.81710  Biso   1.000  H
  H11      1.0000 0.44940  0.06460  0.15890  Biso   1.000  H
  H12      1.0000 0.33730  0.69610  0.87180  Biso   1.000  H
  Zn3      1.0000 0.80641  0.53501  0.43216  Biso   1.000  Zn
  O5       1.0000 0.87068  0.48640  0.43090  Biso   1.000  O
  N15      1.0000 0.80492  0.67100  0.40040  Biso   1.000  N
  N16      1.0000 0.76181  0.51510  0.58180  Biso   1.000  N
  N17      1.0000 0.72280  0.50940  0.76410  Biso   1.000  N
  C11      1.0000 0.89740  0.52930  0.52540  Biso   1.000  C
  N18      1.0000 0.78920  0.70440  0.27860  Biso   1.000  N
  C12      1.0000 0.76410  0.50070  0.70820  Biso   1.000  C
  N19      1.0000 0.71400  0.52750  0.55840  Biso   1.000  N
  C13      1.0000 0.95090  0.51230  0.51240  Biso   1.000  C
  O6       1.0000 0.88068  0.57000  0.61670  Biso   1.000  O
  N20      1.0000 0.80630  0.48810  0.77230  Biso   1.000  N
  N21      1.0000 0.69030  0.52710  0.66350  Biso   1.000  N
  C14      1.0000 0.98070  0.54270  0.60620  Biso   1.000  C
  C15      1.0000 0.97000  0.46370  0.40340  Biso   1.000  C
  H13      1.0000 0.83450  0.69610  0.63080  Biso   1.000  H
  H14      1.0000 0.83400  0.48820  0.72880  Biso   1.000  H
  H15      1.0000 0.80620  0.47870  0.85800  Biso   1.000  H
  H16      1.0000 0.96690  0.56820  0.68290  Biso   1.000  H
  H17      1.0000 0.94940  0.43540  0.34110  Biso   1.000  H
  H18      1.0000 0.83730  0.80390  0.62820  Biso   1.000  H
  Zn4      1.0000 0.69359  0.46499  0.93216  Biso   1.000  Zn
  O7       1.0000 0.62932  0.51360  0.93090  Biso   1.000  O
  N22      1.0000 0.69508  0.32900  0.90040  Biso   1.000  N
  N23      1.0000 0.73819  0.48490  0.08180  Biso   1.000  N
  N24      1.0000 0.77720  0.49060  0.26410  Biso   1.000  N
  C16      1.0000 0.60260  0.47070  0.02540  Biso   1.000  C
  N25      1.0000 0.71080  0.29560  0.77860  Biso   1.000  N
  C17      1.0000 0.73590  0.49930  0.20820  Biso   1.000  C
  N26      1.0000 0.78600  0.47250  0.05840  Biso   1.000  N
  C18      1.0000 0.54910  0.48770  0.01240  Biso   1.000  C
  O8       1.0000 0.61932  0.43000  0.11670  Biso   1.000  O
  N27      1.0000 0.69370  0.51190  0.27230  Biso   1.000  N
  N28      1.0000 0.80970  0.47290  0.16350  Biso   1.000  N
  C19      1.0000 0.51930  0.45730  0.10620  Biso   1.000  C
  C20      1.0000 0.53000  0.53630  0.90340  Biso   1.000  C
  H19      1.0000 0.66550  0.30390  0.13080  Biso   1.000  H
  H20      1.0000 0.66600  0.51180  0.22880  Biso   1.000  H
  H21      1.0000 0.69380  0.52130  0.35800  Biso   1.000  H
  H22      1.0000 0.53310  0.43180  0.18290  Biso   1.000  H
  H23      1.0000 0.55060  0.56460  0.84110  Biso   1.000  H
  H24      1.0000 0.66270  0.19610  0.12820  Biso   1.000  H
  Zn5      1.0000 0.80641  0.96499  0.43216  Biso   1.000  Zn
  O9       1.0000 0.87068  0.01360  0.43090  Biso   1.000  O
  N29      1.0000 0.80492  0.82900  0.40040  Biso   1.000  N
  N30      1.0000 0.76181  0.98490  0.58180  Biso   1.000  N
  N31      1.0000 0.72280  0.99060  0.76410  Biso   1.000  N
  C21      1.0000 0.89740  0.97070  0.52540  Biso   1.000  C
  N32      1.0000 0.78920  0.79560  0.27860  Biso   1.000  N
  C22      1.0000 0.76410  0.99930  0.70820  Biso   1.000  C
  N33      1.0000 0.71400  0.97250  0.55840  Biso   1.000  N
  C23      1.0000 0.95090  0.98770  0.51240  Biso   1.000  C
  O10      1.0000 0.88068  0.93000  0.61670  Biso   1.000  O
  N34      1.0000 0.80630  0.01190  0.77230  Biso   1.000  N
  N35      1.0000 0.69030  0.97290  0.66350  Biso   1.000  N
  C24      1.0000 0.98070  0.95730  0.60620  Biso   1.000  C
  C25      1.0000 0.97000  0.03630  0.40340  Biso   1.000  C
  H25      1.0000 0.83450  0.80390  0.63080  Biso   1.000  H
  H26      1.0000 0.83400  0.01180  0.72880  Biso   1.000  H
  H27      1.0000 0.80620  0.02130  0.85800  Biso   1.000  H
  H28      1.0000 0.96690  0.93180  0.68290  Biso   1.000  H
  H29      1.0000 0.94940  0.06460  0.34110  Biso   1.000  H
  H30      1.0000 0.83730  0.69610  0.62820  Biso   1.000  H
  Zn6      1.0000 0.69359  0.03501  0.93216  Biso   1.000  Zn
  O11      1.0000 0.62932  0.98640  0.93090  Biso   1.000  O
  N36      1.0000 0.69508  0.17100  0.90040  Biso   1.000  N
  N37      1.0000 0.73819  0.01510  0.08180  Biso   1.000  N
  N38      1.0000 0.77720  0.00940  0.26410  Biso   1.000  N
  C26      1.0000 0.60260  0.02930  0.02540  Biso   1.000  C
  N39      1.0000 0.71080  0.20440  0.77860  Biso   1.000  N
  C27      1.0000 0.73590  0.00070  0.20820  Biso   1.000  C
  N40      1.0000 0.78600  0.02750  0.05840  Biso   1.000  N
  C28      1.0000 0.54910  0.01230  0.01240  Biso   1.000  C
  O12      1.0000 0.61932  0.07000  0.11670  Biso   1.000  O
  N41      1.0000 0.69370  0.98810  0.27230  Biso   1.000  N
  N42      1.0000 0.80970  0.02710  0.16350  Biso   1.000  N
  C29      1.0000 0.51930  0.04270  0.10620  Biso   1.000  C
  C30      1.0000 0.53000  0.96370  0.90340  Biso   1.000  C
  H31      1.0000 0.66550  0.19610  0.13080  Biso   1.000  H
  H32      1.0000 0.66600  0.98820  0.22880  Biso   1.000  H
  H33      1.0000 0.69380  0.97870  0.35800  Biso   1.000  H
  H34      1.0000 0.53310  0.06820  0.18290  Biso   1.000  H
  H35      1.0000 0.55060  0.93540  0.84110  Biso   1.000  H
  H36      1.0000 0.66270  0.30390  0.12820  Biso   1.000  H
  Zn7      1.0000 0.19359  0.46499  0.56784  Biso   1.000  Zn
  O13      1.0000 0.12932  0.51360  0.56910  Biso   1.000  O
  N43      1.0000 0.19508  0.32900  0.59960  Biso   1.000  N
  N44      1.0000 0.23819  0.48490  0.41820  Biso   1.000  N
  N45      1.0000 0.27720  0.49060  0.23590  Biso   1.000  N
  C31      1.0000 0.10260  0.47070  0.47460  Biso   1.000  C
  N46      1.0000 0.21080  0.29560  0.72140  Biso   1.000  N
  C32      1.0000 0.23590  0.49930  0.29180  Biso   1.000  C
  N47      1.0000 0.28600  0.47250  0.44160  Biso   1.000  N
  C33      1.0000 0.04910  0.48770  0.48760  Biso   1.000  C
  O14      1.0000 0.11932  0.43000  0.38330  Biso   1.000  O
  N48      1.0000 0.19370  0.51190  0.22770  Biso   1.000  N
  N49      1.0000 0.30970  0.47290  0.33650  Biso   1.000  N
  C34      1.0000 0.01930  0.45730  0.39380  Biso   1.000  C
  C35      1.0000 0.03000  0.53630  0.59660  Biso   1.000  C
  H37      1.0000 0.16550  0.30390  0.36920  Biso   1.000  H
  H38      1.0000 0.16600  0.51180  0.27120  Biso   1.000  H
  H39      1.0000 0.19380  0.52130  0.14200  Biso   1.000  H
  H40      1.0000 0.03310  0.43180  0.31710  Biso   1.000  H
  H41      1.0000 0.05060  0.56460  0.65890  Biso   1.000  H
  H42      1.0000 0.16270  0.19610  0.37180  Biso   1.000  H
  Zn8      1.0000 0.30641  0.53501  0.06784  Biso   1.000  Zn
  O15      1.0000 0.37068  0.48640  0.06910  Biso   1.000  O
  N50      1.0000 0.30492  0.67100  0.09960  Biso   1.000  N
  N51      1.0000 0.26181  0.51510  0.91820  Biso   1.000  N
  N52      1.0000 0.22280  0.50940  0.73590  Biso   1.000  N
  C36      1.0000 0.39740  0.52930  0.97460  Biso   1.000  C
  N53      1.0000 0.28920  0.70440  0.22140  Biso   1.000  N
  C37      1.0000 0.26410  0.50070  0.79180  Biso   1.000  C
  N54      1.0000 0.21400  0.52750  0.94160  Biso   1.000  N
  C38      1.0000 0.45090  0.51230  0.98760  Biso   1.000  C
  O16      1.0000 0.38068  0.57000  0.88330  Biso   1.000  O
  N55      1.0000 0.30630  0.48810  0.72770  Biso   1.000  N
  N56      1.0000 0.19030  0.52710  0.83650  Biso   1.000  N
  C39      1.0000 0.48070  0.54270  0.89380  Biso   1.000  C
  C40      1.0000 0.47000  0.46370  0.09660  Biso   1.000  C
  H43      1.0000 0.33450  0.69610  0.86920  Biso   1.000  H
  H44      1.0000 0.33400  0.48820  0.77120  Biso   1.000  H
  H45      1.0000 0.30620  0.47870  0.64200  Biso   1.000  H
  H46      1.0000 0.46690  0.56820  0.81710  Biso   1.000  H
  H47      1.0000 0.44940  0.43540  0.15890  Biso   1.000  H
  H48      1.0000 0.33730  0.80390  0.87180  Biso   1.000  H
  C41      1.0000 0.18450  0.25000  0.53560  Biso   1.000  C
  N57      1.0000 0.16930  0.25000  0.41150  Biso   1.000  N
  C42      1.0000 0.31550  0.75000  0.03560  Biso   1.000  C
  N58      1.0000 0.33070  0.75000  0.91150  Biso   1.000  N
  C43      1.0000 0.81550  0.75000  0.46440  Biso   1.000  C
  N59      1.0000 0.83070  0.75000  0.58850  Biso   1.000  N
  C44      1.0000 0.68450  0.25000  0.96440  Biso   1.000  C
  N60      1.0000 0.66930  0.25000  0.08850  Biso   1.000  N
