data_image0
_cell_length_a       27.25
_cell_length_b       16.002
_cell_length_c       10.292
_cell_angle_alpha    90
_cell_angle_beta     90
_cell_angle_gamma    90

_symmetry_space_group_name_H-M    "P 1"
_symmetry_int_tables_number       1

loop_
  _symmetry_equiv_pos_as_xyz
  'x, y, z'

loop_
  _atom_site_label
  _atom_site_occupancy
  _atom_site_fract_x
  _atom_site_fract_y
  _atom_site_fract_z
  _atom_site_thermal_displace_type
  _atom_site_B_iso_or_equiv
  _atom_site_type_symbol
  Zn1      1.0000 0.19922  0.05828  0.55555  Biso   1.000  Zn
  O1       1.0000 0.13113  0.02240  0.56140  Biso   1.000  O
  N1       1.0000 0.20926  0.18077  0.56070  Biso   1.000  N
  N2       1.0000 0.23929  0.01082  0.41170  Biso   1.000  N
  N3       1.0000 0.22326  0.01954  0.72920  Biso   1.000  N
  C1       1.0000 0.10205  0.04460  0.46880  Biso   1.000  C
  N4       1.0000 0.24845  0.20970  0.62960  Biso   1.000  N
  C2       1.0000 0.23679  0.01416  0.28200  Biso   1.000  C
  N5       1.0000 0.28282  0.97110  0.43680  Biso   1.000  N
  C3       1.0000 0.04951  0.02070  0.48440  Biso   1.000  C
  O2       1.0000 0.11631  0.08448  0.37190  Biso   1.000  O
  N6       1.0000 0.20121  0.05170  0.21640  Biso   1.000  N
  N7       1.0000 0.30435  0.95380  0.32960  Biso   1.000  N
  C4       1.0000 0.01553  0.03970  0.38730  Biso   1.000  C
  C5       1.0000 0.03285  0.98230  0.59650  Biso   1.000  C
  H1       1.0000 0.13460  0.20130  0.41350  Biso   1.000  H
  H2       1.0000 0.17780  0.08040  0.25910  Biso   1.000  H
  H3       1.0000 0.20130  0.05070  0.12900  Biso   1.000  H
  H4       1.0000 0.02620  0.06680  0.30500  Biso   1.000  H
  N8       1.0000 0.05820  0.97150  0.68900  Biso   1.000  N
  H5       1.0000 0.04590  0.95120  0.75890  Biso   1.000  H
  H6       1.0000 0.08890  0.98390  0.68530  Biso   1.000  H
  H7       1.0000 0.05430  0.97630  0.65830  Biso   1.000  H
  N9       1.0000 0.02640  0.07980  0.27510  Biso   1.000  N
  H8       1.0000 0.00360  0.09000  0.21940  Biso   1.000  H
  H9       1.0000 0.05610  0.09520  0.25950  Biso   1.000  H
  Zn2      1.0000 0.30078  0.94172  0.05555  Biso   1.000  Zn
  O3       1.0000 0.36887  0.97760  0.06140  Biso   1.000  O
  N10      1.0000 0.29074  0.81923  0.06070  Biso   1.000  N
  N11      1.0000 0.26071  0.98918  0.91170  Biso   1.000  N
  N12      1.0000 0.27674  0.98046  0.22920  Biso   1.000  N
  C6       1.0000 0.39795  0.95540  0.96880  Biso   1.000  C
  N13      1.0000 0.25155  0.79030  0.12960  Biso   1.000  N
  C7       1.0000 0.26321  0.98584  0.78200  Biso   1.000  C
  N14      1.0000 0.21718  0.02890  0.93680  Biso   1.000  N
  C8       1.0000 0.45049  0.97930  0.98440  Biso   1.000  C
  O4       1.0000 0.38369  0.91552  0.87190  Biso   1.000  O
  N15      1.0000 0.29879  0.94830  0.71640  Biso   1.000  N
  N16      1.0000 0.19565  0.04620  0.82960  Biso   1.000  N
  C9       1.0000 0.48447  0.96030  0.88730  Biso   1.000  C
  C10      1.0000 0.46715  0.01770  0.09650  Biso   1.000  C
  H10      1.0000 0.36540  0.79870  0.91350  Biso   1.000  H
  H11      1.0000 0.32220  0.91960  0.75910  Biso   1.000  H
  H12      1.0000 0.29870  0.94930  0.62900  Biso   1.000  H
  H13      1.0000 0.47380  0.93320  0.80500  Biso   1.000  H
  N17      1.0000 0.44180  0.02850  0.18900  Biso   1.000  N
  H14      1.0000 0.45410  0.04880  0.25890  Biso   1.000  H
  H15      1.0000 0.41110  0.01610  0.18530  Biso   1.000  H
  H16      1.0000 0.44570  0.02370  0.15830  Biso   1.000  H
  N18      1.0000 0.47360  0.92020  0.77510  Biso   1.000  N
  H17      1.0000 0.49640  0.91000  0.71940  Biso   1.000  H
  H18      1.0000 0.44390  0.90480  0.75950  Biso   1.000  H
  Zn3      1.0000 0.80078  0.55828  0.44445  Biso   1.000  Zn
  O5       1.0000 0.86887  0.52240  0.43860  Biso   1.000  O
  N19      1.0000 0.79074  0.68077  0.43930  Biso   1.000  N
  N20      1.0000 0.76071  0.51082  0.58830  Biso   1.000  N
  N21      1.0000 0.77674  0.51954  0.27080  Biso   1.000  N
  C11      1.0000 0.89795  0.54460  0.53120  Biso   1.000  C
  N22      1.0000 0.75155  0.70970  0.37040  Biso   1.000  N
  C12      1.0000 0.76321  0.51416  0.71800  Biso   1.000  C
  N23      1.0000 0.71718  0.47110  0.56320  Biso   1.000  N
  C13      1.0000 0.95049  0.52070  0.51560  Biso   1.000  C
  O6       1.0000 0.88369  0.58448  0.62810  Biso   1.000  O
  N24      1.0000 0.79879  0.55170  0.78360  Biso   1.000  N
  N25      1.0000 0.69565  0.45380  0.67040  Biso   1.000  N
  C14      1.0000 0.98447  0.53970  0.61270  Biso   1.000  C
  C15      1.0000 0.96715  0.48230  0.40350  Biso   1.000  C
  H19      1.0000 0.86540  0.70130  0.58650  Biso   1.000  H
  H20      1.0000 0.82220  0.58040  0.74090  Biso   1.000  H
  H21      1.0000 0.79870  0.55070  0.87100  Biso   1.000  H
  H22      1.0000 0.97380  0.56680  0.69500  Biso   1.000  H
  N26      1.0000 0.94180  0.47150  0.31100  Biso   1.000  N
  H23      1.0000 0.95410  0.45120  0.24110  Biso   1.000  H
  H24      1.0000 0.91110  0.48390  0.31470  Biso   1.000  H
  H25      1.0000 0.94570  0.47630  0.34170  Biso   1.000  H
  N27      1.0000 0.97360  0.57980  0.72490  Biso   1.000  N
  H26      1.0000 0.99640  0.59000  0.78060  Biso   1.000  H
  H27      1.0000 0.94390  0.59520  0.74050  Biso   1.000  H
  Zn4      1.0000 0.69922  0.44172  0.94445  Biso   1.000  Zn
  O7       1.0000 0.63113  0.47760  0.93860  Biso   1.000  O
  N28      1.0000 0.70926  0.31923  0.93930  Biso   1.000  N
  N29      1.0000 0.73929  0.48918  0.08830  Biso   1.000  N
  N30      1.0000 0.72326  0.48046  0.77080  Biso   1.000  N
  C16      1.0000 0.60205  0.45540  0.03120  Biso   1.000  C
  N31      1.0000 0.74845  0.29030  0.87040  Biso   1.000  N
  C17      1.0000 0.73679  0.48584  0.21800  Biso   1.000  C
  N32      1.0000 0.78282  0.52890  0.06320  Biso   1.000  N
  C18      1.0000 0.54951  0.47930  0.01560  Biso   1.000  C
  O8       1.0000 0.61631  0.41552  0.12810  Biso   1.000  O
  N33      1.0000 0.70121  0.44830  0.28360  Biso   1.000  N
  N34      1.0000 0.80435  0.54620  0.17040  Biso   1.000  N
  C19      1.0000 0.51553  0.46030  0.11270  Biso   1.000  C
  C20      1.0000 0.53285  0.51770  0.90350  Biso   1.000  C
  H28      1.0000 0.63460  0.29870  0.08650  Biso   1.000  H
  H29      1.0000 0.67780  0.41960  0.24090  Biso   1.000  H
  H30      1.0000 0.70130  0.44930  0.37100  Biso   1.000  H
  H31      1.0000 0.52620  0.43320  0.19500  Biso   1.000  H
  N35      1.0000 0.55820  0.52850  0.81100  Biso   1.000  N
  H32      1.0000 0.54590  0.54880  0.74110  Biso   1.000  H
  H33      1.0000 0.58890  0.51610  0.81470  Biso   1.000  H
  H34      1.0000 0.55430  0.52370  0.84170  Biso   1.000  H
  N36      1.0000 0.52640  0.42020  0.22490  Biso   1.000  N
  H35      1.0000 0.50360  0.41000  0.28060  Biso   1.000  H
  H36      1.0000 0.55610  0.40480  0.24050  Biso   1.000  H
  Zn5      1.0000 0.80078  0.94172  0.44445  Biso   1.000  Zn
  O9       1.0000 0.86887  0.97760  0.43860  Biso   1.000  O
  N37      1.0000 0.79074  0.81923  0.43930  Biso   1.000  N
  N38      1.0000 0.76071  0.98918  0.58830  Biso   1.000  N
  N39      1.0000 0.77674  0.98046  0.27080  Biso   1.000  N
  C21      1.0000 0.89795  0.95540  0.53120  Biso   1.000  C
  N40      1.0000 0.75155  0.79030  0.37040  Biso   1.000  N
  C22      1.0000 0.76321  0.98584  0.71800  Biso   1.000  C
  N41      1.0000 0.71718  0.02890  0.56320  Biso   1.000  N
  C23      1.0000 0.95049  0.97930  0.51560  Biso   1.000  C
  O10      1.0000 0.88369  0.91552  0.62810  Biso   1.000  O
  N42      1.0000 0.79879  0.94830  0.78360  Biso   1.000  N
  N43      1.0000 0.69565  0.04620  0.67040  Biso   1.000  N
  C24      1.0000 0.98447  0.96030  0.61270  Biso   1.000  C
  C25      1.0000 0.96715  0.01770  0.40350  Biso   1.000  C
  H37      1.0000 0.86540  0.79870  0.58650  Biso   1.000  H
  H38      1.0000 0.82220  0.91960  0.74090  Biso   1.000  H
  H39      1.0000 0.79870  0.94930  0.87100  Biso   1.000  H
  H40      1.0000 0.97380  0.93320  0.69500  Biso   1.000  H
  N44      1.0000 0.94180  0.02850  0.31100  Biso   1.000  N
  H41      1.0000 0.95410  0.04880  0.24110  Biso   1.000  H
  H42      1.0000 0.91110  0.01610  0.31470  Biso   1.000  H
  H43      1.0000 0.94570  0.02370  0.34170  Biso   1.000  H
  N45      1.0000 0.97360  0.92020  0.72490  Biso   1.000  N
  H44      1.0000 0.99640  0.91000  0.78060  Biso   1.000  H
  H45      1.0000 0.94390  0.90480  0.74050  Biso   1.000  H
  Zn6      1.0000 0.69922  0.05828  0.94445  Biso   1.000  Zn
  O11      1.0000 0.63113  0.02240  0.93860  Biso   1.000  O
  N46      1.0000 0.70926  0.18077  0.93930  Biso   1.000  N
  N47      1.0000 0.73929  0.01082  0.08830  Biso   1.000  N
  N48      1.0000 0.72326  0.01954  0.77080  Biso   1.000  N
  C26      1.0000 0.60205  0.04460  0.03120  Biso   1.000  C
  N49      1.0000 0.74845  0.20970  0.87040  Biso   1.000  N
  C27      1.0000 0.73679  0.01416  0.21800  Biso   1.000  C
  N50      1.0000 0.78282  0.97110  0.06320  Biso   1.000  N
  C28      1.0000 0.54951  0.02070  0.01560  Biso   1.000  C
  O12      1.0000 0.61631  0.08448  0.12810  Biso   1.000  O
  N51      1.0000 0.70121  0.05170  0.28360  Biso   1.000  N
  N52      1.0000 0.80435  0.95380  0.17040  Biso   1.000  N
  C29      1.0000 0.51553  0.03970  0.11270  Biso   1.000  C
  C30      1.0000 0.53285  0.98230  0.90350  Biso   1.000  C
  H46      1.0000 0.63460  0.20130  0.08650  Biso   1.000  H
  H47      1.0000 0.67780  0.08040  0.24090  Biso   1.000  H
  H48      1.0000 0.70130  0.05070  0.37100  Biso   1.000  H
  H49      1.0000 0.52620  0.06680  0.19500  Biso   1.000  H
  N53      1.0000 0.55820  0.97150  0.81100  Biso   1.000  N
  H50      1.0000 0.54590  0.95120  0.74110  Biso   1.000  H
  H51      1.0000 0.58890  0.98390  0.81470  Biso   1.000  H
  H52      1.0000 0.55430  0.97630  0.84170  Biso   1.000  H
  N54      1.0000 0.52640  0.07980  0.22490  Biso   1.000  N
  H53      1.0000 0.50360  0.09000  0.28060  Biso   1.000  H
  H54      1.0000 0.55610  0.09520  0.24050  Biso   1.000  H
  Zn7      1.0000 0.19922  0.44172  0.55555  Biso   1.000  Zn
  O13      1.0000 0.13113  0.47760  0.56140  Biso   1.000  O
  N55      1.0000 0.20926  0.31923  0.56070  Biso   1.000  N
  N56      1.0000 0.23929  0.48918  0.41170  Biso   1.000  N
  N57      1.0000 0.22326  0.48046  0.72920  Biso   1.000  N
  C31      1.0000 0.10205  0.45540  0.46880  Biso   1.000  C
  N58      1.0000 0.24845  0.29030  0.62960  Biso   1.000  N
  C32      1.0000 0.23679  0.48584  0.28200  Biso   1.000  C
  N59      1.0000 0.28282  0.52890  0.43680  Biso   1.000  N
  C33      1.0000 0.04951  0.47930  0.48440  Biso   1.000  C
  O14      1.0000 0.11631  0.41552  0.37190  Biso   1.000  O
  N60      1.0000 0.20121  0.44830  0.21640  Biso   1.000  N
  N61      1.0000 0.30435  0.54620  0.32960  Biso   1.000  N
  C34      1.0000 0.01553  0.46030  0.38730  Biso   1.000  C
  C35      1.0000 0.03285  0.51770  0.59650  Biso   1.000  C
  H55      1.0000 0.13460  0.29870  0.41350  Biso   1.000  H
  H56      1.0000 0.17780  0.41960  0.25910  Biso   1.000  H
  H57      1.0000 0.20130  0.44930  0.12900  Biso   1.000  H
  H58      1.0000 0.02620  0.43320  0.30500  Biso   1.000  H
  N62      1.0000 0.05820  0.52850  0.68900  Biso   1.000  N
  H59      1.0000 0.04590  0.54880  0.75890  Biso   1.000  H
  H60      1.0000 0.08890  0.51610  0.68530  Biso   1.000  H
  H61      1.0000 0.05430  0.52370  0.65830  Biso   1.000  H
  N63      1.0000 0.02640  0.42020  0.27510  Biso   1.000  N
  H62      1.0000 0.00360  0.41000  0.21940  Biso   1.000  H
  H63      1.0000 0.05610  0.40480  0.25950  Biso   1.000  H
  Zn8      1.0000 0.30078  0.55828  0.05555  Biso   1.000  Zn
  O15      1.0000 0.36887  0.52240  0.06140  Biso   1.000  O
  N64      1.0000 0.29074  0.68077  0.06070  Biso   1.000  N
  N65      1.0000 0.26071  0.51082  0.91170  Biso   1.000  N
  N66      1.0000 0.27674  0.51954  0.22920  Biso   1.000  N
  C36      1.0000 0.39795  0.54460  0.96880  Biso   1.000  C
  N67      1.0000 0.25155  0.70970  0.12960  Biso   1.000  N
  C37      1.0000 0.26321  0.51416  0.78200  Biso   1.000  C
  N68      1.0000 0.21718  0.47110  0.93680  Biso   1.000  N
  C38      1.0000 0.45049  0.52070  0.98440  Biso   1.000  C
  O16      1.0000 0.38369  0.58448  0.87190  Biso   1.000  O
  N69      1.0000 0.29879  0.55170  0.71640  Biso   1.000  N
  N70      1.0000 0.19565  0.45380  0.82960  Biso   1.000  N
  C39      1.0000 0.48447  0.53970  0.88730  Biso   1.000  C
  C40      1.0000 0.46715  0.48230  0.09650  Biso   1.000  C
  H64      1.0000 0.36540  0.70130  0.91350  Biso   1.000  H
  H65      1.0000 0.32220  0.58040  0.75910  Biso   1.000  H
  H66      1.0000 0.29870  0.55070  0.62900  Biso   1.000  H
  H67      1.0000 0.47380  0.56680  0.80500  Biso   1.000  H
  N71      1.0000 0.44180  0.47150  0.18900  Biso   1.000  N
  H68      1.0000 0.45410  0.45120  0.25890  Biso   1.000  H
  H69      1.0000 0.41110  0.48390  0.18530  Biso   1.000  H
  H70      1.0000 0.44570  0.47630  0.15830  Biso   1.000  H
  N72      1.0000 0.47360  0.57980  0.77510  Biso   1.000  N
  H71      1.0000 0.49640  0.59000  0.71940  Biso   1.000  H
  H72      1.0000 0.44390  0.59520  0.75950  Biso   1.000  H
  C41      1.0000 0.18699  0.25000  0.51670  Biso   1.000  C
  N73      1.0000 0.14840  0.25000  0.43770  Biso   1.000  N
  C42      1.0000 0.31301  0.75000  0.01670  Biso   1.000  C
  N74      1.0000 0.35160  0.75000  0.93770  Biso   1.000  N
  C43      1.0000 0.81301  0.75000  0.48330  Biso   1.000  C
  N75      1.0000 0.85160  0.75000  0.56230  Biso   1.000  N
  C44      1.0000 0.68699  0.25000  0.98330  Biso   1.000  C
  N76      1.0000 0.64840  0.25000  0.06230  Biso   1.000  N
