data_image0
_cell_length_a       27.55
_cell_length_b       13.281
_cell_length_c       20.356
_cell_angle_alpha    90
_cell_angle_beta     97.03
_cell_angle_gamma    90

_symmetry_space_group_name_H-M    "P 1"
_symmetry_int_tables_number       1

loop_
  _symmetry_equiv_pos_as_xyz
  'x, y, z'

loop_
  _atom_site_label
  _atom_site_occupancy
  _atom_site_fract_x
  _atom_site_fract_y
  _atom_site_fract_z
  _atom_site_thermal_displace_type
  _atom_site_B_iso_or_equiv
  _atom_site_type_symbol
  Mo1      1.0000 0.85686  0.47143  0.86109  Biso   1.000  Mo
  Cu1      1.0000 0.78812  0.42052  0.76046  Biso   1.000  Cu
  Cu2      1.0000 0.80964  0.64943  0.86923  Biso   1.000  Cu
  Cu3      1.0000 0.91189  0.54552  0.77150  Biso   1.000  Cu
  S1       1.0000 0.87063  0.39560  0.76608  Biso   1.000  S
  S2       1.0000 0.89240  0.62512  0.86395  Biso   1.000  S
  S3       1.0000 0.77500  0.49139  0.85948  Biso   1.000  S
  N1       1.0000 0.76740  0.52880  0.68310  Biso   1.000  N
  N2       1.0000 0.81890  0.70770  0.96870  Biso   1.000  N
  N3       1.0000 0.61480  0.86480  0.30810  Biso   1.000  N
  N4       1.0000 0.74830  0.31220  0.71560  Biso   1.000  N
  C1       1.0000 0.72610  0.25330  0.68280  Biso   1.000  C
  C2       1.0000 0.67100  0.73910  0.35770  Biso   1.000  C
  C3       1.0000 0.73410  0.59950  0.68820  Biso   1.000  C
  H1       1.0000 0.75940  0.65310  0.69840  Biso   1.000  H
  C4       1.0000 0.64920  0.79480  0.30450  Biso   1.000  C
  H2       1.0000 0.65950  0.78230  0.26240  Biso   1.000  H
  C5       1.0000 0.84630  0.65800  0.01740  Biso   1.000  C
  H3       1.0000 0.85680  0.59170  0.00880  Biso   1.000  H
  C6       1.0000 0.85990  0.69920  0.08000  Biso   1.000  C
  C7       1.0000 0.77870  0.50700  0.62310  Biso   1.000  C
  H4       1.0000 0.80320  0.45740  0.61980  Biso   1.000  H
  C8       1.0000 0.59990  0.88030  0.36750  Biso   1.000  C
  H5       1.0000 0.57560  0.92980  0.37140  Biso   1.000  H
  C9       1.0000 0.80420  0.79950  0.98120  Biso   1.000  C
  H6       1.0000 0.78440  0.83440  0.94710  Biso   1.000  H
  C10      1.0000 0.75730  0.55200  0.56470  Biso   1.000  C
  H7       1.0000 0.73600  0.49570  0.54530  Biso   1.000  H
  C11      1.0000 0.97950  0.52410  0.75580  Biso   1.000  C
  N5       1.0000 0.01910  0.54020  0.74250  Biso   1.000  N
  C12      1.0000 0.83830  0.75610  0.58740  Biso   1.000  C
  C13      1.0000 0.68620  0.69470  0.52960  Biso   1.000  C
  C14      1.0000 0.79140  0.84390  0.50400  Biso   1.000  C
  C15      1.0000 0.70700  0.65750  0.64340  Biso   1.000  C
  C16      1.0000 0.61880  0.82680  0.42390  Biso   1.000  C
  C17      1.0000 0.77050  0.88220  0.43990  Biso   1.000  C
  C18      1.0000 0.66960  0.71870  0.48890  Biso   1.000  C
  C19      1.0000 0.81610  0.84820  0.04200  Biso   1.000  C
  C20      1.0000 0.64640  0.77070  0.42550  Biso   1.000  C
  C21      1.0000 0.80840  0.81830  0.53350  Biso   1.000  C
  C22      1.0000 0.78360  0.85550  0.38150  Biso   1.000  C
  C23      1.0000 0.71320  0.63780  0.58310  Biso   1.000  C
  Mo2      1.0000 0.35686  0.97143  0.86109  Biso   1.000  Mo
  Cu4      1.0000 0.28812  0.92052  0.76046  Biso   1.000  Cu
  Cu5      1.0000 0.30964  0.14943  0.86923  Biso   1.000  Cu
  Cu6      1.0000 0.41189  0.04552  0.77150  Biso   1.000  Cu
  S4       1.0000 0.37063  0.89560  0.76608  Biso   1.000  S
  S5       1.0000 0.39240  0.12512  0.86395  Biso   1.000  S
  S6       1.0000 0.27500  0.99139  0.85948  Biso   1.000  S
  N6       1.0000 0.26740  0.02880  0.68310  Biso   1.000  N
  N7       1.0000 0.31890  0.20770  0.96870  Biso   1.000  N
  N8       1.0000 0.11480  0.36480  0.30810  Biso   1.000  N
  N9       1.0000 0.24830  0.81220  0.71560  Biso   1.000  N
  C24      1.0000 0.22610  0.75330  0.68280  Biso   1.000  C
  C25      1.0000 0.17100  0.23910  0.35770  Biso   1.000  C
  C26      1.0000 0.23410  0.09950  0.68820  Biso   1.000  C
  H8       1.0000 0.25940  0.15310  0.69840  Biso   1.000  H
  C27      1.0000 0.14920  0.29480  0.30450  Biso   1.000  C
  H9       1.0000 0.15950  0.28230  0.26240  Biso   1.000  H
  C28      1.0000 0.34630  0.15800  0.01740  Biso   1.000  C
  H10      1.0000 0.35680  0.09170  0.00880  Biso   1.000  H
  C29      1.0000 0.35990  0.19920  0.08000  Biso   1.000  C
  C30      1.0000 0.27870  0.00700  0.62310  Biso   1.000  C
  H11      1.0000 0.30320  0.95740  0.61980  Biso   1.000  H
  C31      1.0000 0.09990  0.38030  0.36750  Biso   1.000  C
  H12      1.0000 0.07560  0.42980  0.37140  Biso   1.000  H
  C32      1.0000 0.30420  0.29950  0.98120  Biso   1.000  C
  H13      1.0000 0.28440  0.33440  0.94710  Biso   1.000  H
  C33      1.0000 0.25730  0.05200  0.56470  Biso   1.000  C
  H14      1.0000 0.23600  0.99570  0.54530  Biso   1.000  H
  C34      1.0000 0.47950  0.02410  0.75580  Biso   1.000  C
  N10      1.0000 0.51910  0.04020  0.74250  Biso   1.000  N
  C35      1.0000 0.33830  0.25610  0.58740  Biso   1.000  C
  C36      1.0000 0.18620  0.19470  0.52960  Biso   1.000  C
  C37      1.0000 0.29140  0.34390  0.50400  Biso   1.000  C
  C38      1.0000 0.20700  0.15750  0.64340  Biso   1.000  C
  C39      1.0000 0.11880  0.32680  0.42390  Biso   1.000  C
  C40      1.0000 0.27050  0.38220  0.43990  Biso   1.000  C
  C41      1.0000 0.16960  0.21870  0.48890  Biso   1.000  C
  C42      1.0000 0.31610  0.34820  0.04200  Biso   1.000  C
  C43      1.0000 0.14640  0.27070  0.42550  Biso   1.000  C
  C44      1.0000 0.30840  0.31830  0.53350  Biso   1.000  C
  C45      1.0000 0.28360  0.35550  0.38150  Biso   1.000  C
  C46      1.0000 0.21320  0.13780  0.58310  Biso   1.000  C
  Mo3      1.0000 0.14314  0.47143  0.63891  Biso   1.000  Mo
  Cu7      1.0000 0.21188  0.42052  0.73954  Biso   1.000  Cu
  Cu8      1.0000 0.19036  0.64943  0.63077  Biso   1.000  Cu
  Cu9      1.0000 0.08811  0.54552  0.72850  Biso   1.000  Cu
  S7       1.0000 0.12937  0.39560  0.73392  Biso   1.000  S
  S8       1.0000 0.10760  0.62512  0.63605  Biso   1.000  S
  S9       1.0000 0.22500  0.49139  0.64052  Biso   1.000  S
  N11      1.0000 0.23260  0.52880  0.81690  Biso   1.000  N
  N12      1.0000 0.18110  0.70770  0.53130  Biso   1.000  N
  N13      1.0000 0.38520  0.86480  0.19190  Biso   1.000  N
  N14      1.0000 0.25170  0.31220  0.78440  Biso   1.000  N
  C47      1.0000 0.27390  0.25330  0.81720  Biso   1.000  C
  C48      1.0000 0.32900  0.73910  0.14230  Biso   1.000  C
  C49      1.0000 0.26590  0.59950  0.81180  Biso   1.000  C
  H15      1.0000 0.24060  0.65310  0.80160  Biso   1.000  H
  C50      1.0000 0.35080  0.79480  0.19550  Biso   1.000  C
  H16      1.0000 0.34050  0.78230  0.23760  Biso   1.000  H
  C51      1.0000 0.15370  0.65800  0.48260  Biso   1.000  C
  H17      1.0000 0.14320  0.59170  0.49120  Biso   1.000  H
  C52      1.0000 0.14010  0.69920  0.42000  Biso   1.000  C
  C53      1.0000 0.22130  0.50700  0.87690  Biso   1.000  C
  H18      1.0000 0.19680  0.45740  0.88020  Biso   1.000  H
  C54      1.0000 0.40010  0.88030  0.13250  Biso   1.000  C
  H19      1.0000 0.42440  0.92980  0.12860  Biso   1.000  H
  C55      1.0000 0.19580  0.79950  0.51880  Biso   1.000  C
  H20      1.0000 0.21560  0.83440  0.55290  Biso   1.000  H
  C56      1.0000 0.24270  0.55200  0.93530  Biso   1.000  C
  H21      1.0000 0.26400  0.49570  0.95470  Biso   1.000  H
  C57      1.0000 0.02050  0.52410  0.74420  Biso   1.000  C
  N15      1.0000 0.98090  0.54020  0.75750  Biso   1.000  N
  C58      1.0000 0.16170  0.75610  0.91260  Biso   1.000  C
  C59      1.0000 0.31380  0.69470  0.97040  Biso   1.000  C
  C60      1.0000 0.20860  0.84390  0.99600  Biso   1.000  C
  C61      1.0000 0.29300  0.65750  0.85660  Biso   1.000  C
  C62      1.0000 0.38120  0.82680  0.07610  Biso   1.000  C
  C63      1.0000 0.22950  0.88220  0.06010  Biso   1.000  C
  C64      1.0000 0.33040  0.71870  0.01110  Biso   1.000  C
  C65      1.0000 0.18390  0.84820  0.45800  Biso   1.000  C
  C66      1.0000 0.35360  0.77070  0.07450  Biso   1.000  C
  C67      1.0000 0.19160  0.81830  0.96650  Biso   1.000  C
  C68      1.0000 0.21640  0.85550  0.11850  Biso   1.000  C
  C69      1.0000 0.28680  0.63780  0.91690  Biso   1.000  C
  Mo4      1.0000 0.64314  0.97143  0.63891  Biso   1.000  Mo
  Cu10     1.0000 0.71188  0.92052  0.73954  Biso   1.000  Cu
  Cu11     1.0000 0.69036  0.14943  0.63077  Biso   1.000  Cu
  Cu12     1.0000 0.58811  0.04552  0.72850  Biso   1.000  Cu
  S10      1.0000 0.62937  0.89560  0.73392  Biso   1.000  S
  S11      1.0000 0.60760  0.12512  0.63605  Biso   1.000  S
  S12      1.0000 0.72500  0.99139  0.64052  Biso   1.000  S
  N16      1.0000 0.73260  0.02880  0.81690  Biso   1.000  N
  N17      1.0000 0.68110  0.20770  0.53130  Biso   1.000  N
  N18      1.0000 0.88520  0.36480  0.19190  Biso   1.000  N
  N19      1.0000 0.75170  0.81220  0.78440  Biso   1.000  N
  C70      1.0000 0.77390  0.75330  0.81720  Biso   1.000  C
  C71      1.0000 0.82900  0.23910  0.14230  Biso   1.000  C
  C72      1.0000 0.76590  0.09950  0.81180  Biso   1.000  C
  H22      1.0000 0.74060  0.15310  0.80160  Biso   1.000  H
  C73      1.0000 0.85080  0.29480  0.19550  Biso   1.000  C
  H23      1.0000 0.84050  0.28230  0.23760  Biso   1.000  H
  C74      1.0000 0.65370  0.15800  0.48260  Biso   1.000  C
  H24      1.0000 0.64320  0.09170  0.49120  Biso   1.000  H
  C75      1.0000 0.64010  0.19920  0.42000  Biso   1.000  C
  C76      1.0000 0.72130  0.00700  0.87690  Biso   1.000  C
  H25      1.0000 0.69680  0.95740  0.88020  Biso   1.000  H
  C77      1.0000 0.90010  0.38030  0.13250  Biso   1.000  C
  H26      1.0000 0.92440  0.42980  0.12860  Biso   1.000  H
  C78      1.0000 0.69580  0.29950  0.51880  Biso   1.000  C
  H27      1.0000 0.71560  0.33440  0.55290  Biso   1.000  H
  C79      1.0000 0.74270  0.05200  0.93530  Biso   1.000  C
  H28      1.0000 0.76400  0.99570  0.95470  Biso   1.000  H
  C80      1.0000 0.52050  0.02410  0.74420  Biso   1.000  C
  N20      1.0000 0.48090  0.04020  0.75750  Biso   1.000  N
  C81      1.0000 0.66170  0.25610  0.91260  Biso   1.000  C
  C82      1.0000 0.81380  0.19470  0.97040  Biso   1.000  C
  C83      1.0000 0.70860  0.34390  0.99600  Biso   1.000  C
  C84      1.0000 0.79300  0.15750  0.85660  Biso   1.000  C
  C85      1.0000 0.88120  0.32680  0.07610  Biso   1.000  C
  C86      1.0000 0.72950  0.38220  0.06010  Biso   1.000  C
  C87      1.0000 0.83040  0.21870  0.01110  Biso   1.000  C
  C88      1.0000 0.68390  0.34820  0.45800  Biso   1.000  C
  C89      1.0000 0.85360  0.27070  0.07450  Biso   1.000  C
  C90      1.0000 0.69160  0.31830  0.96650  Biso   1.000  C
  C91      1.0000 0.71640  0.35550  0.11850  Biso   1.000  C
  C92      1.0000 0.78680  0.13780  0.91690  Biso   1.000  C
  Mo5      1.0000 0.14314  0.52857  0.13891  Biso   1.000  Mo
  Cu13     1.0000 0.21188  0.57948  0.23954  Biso   1.000  Cu
  Cu14     1.0000 0.19036  0.35057  0.13077  Biso   1.000  Cu
  Cu15     1.0000 0.08811  0.45448  0.22850  Biso   1.000  Cu
  S13      1.0000 0.12937  0.60440  0.23392  Biso   1.000  S
  S14      1.0000 0.10760  0.37488  0.13605  Biso   1.000  S
  S15      1.0000 0.22500  0.50861  0.14052  Biso   1.000  S
  N21      1.0000 0.23260  0.47120  0.31690  Biso   1.000  N
  N22      1.0000 0.18110  0.29230  0.03130  Biso   1.000  N
  N23      1.0000 0.38520  0.13520  0.69190  Biso   1.000  N
  N24      1.0000 0.25170  0.68780  0.28440  Biso   1.000  N
  C93      1.0000 0.27390  0.74670  0.31720  Biso   1.000  C
  C94      1.0000 0.32900  0.26090  0.64230  Biso   1.000  C
  C95      1.0000 0.26590  0.40050  0.31180  Biso   1.000  C
  H29      1.0000 0.24060  0.34690  0.30160  Biso   1.000  H
  C96      1.0000 0.35080  0.20520  0.69550  Biso   1.000  C
  H30      1.0000 0.34050  0.21770  0.73760  Biso   1.000  H
  C97      1.0000 0.15370  0.34200  0.98260  Biso   1.000  C
  H31      1.0000 0.14320  0.40830  0.99120  Biso   1.000  H
  C98      1.0000 0.14010  0.30080  0.92000  Biso   1.000  C
  C99      1.0000 0.22130  0.49300  0.37690  Biso   1.000  C
  H32      1.0000 0.19680  0.54260  0.38020  Biso   1.000  H
  C100     1.0000 0.40010  0.11970  0.63250  Biso   1.000  C
  H33      1.0000 0.42440  0.07020  0.62860  Biso   1.000  H
  C101     1.0000 0.19580  0.20050  0.01880  Biso   1.000  C
  H34      1.0000 0.21560  0.16560  0.05290  Biso   1.000  H
  C102     1.0000 0.24270  0.44800  0.43530  Biso   1.000  C
  H35      1.0000 0.26400  0.50430  0.45470  Biso   1.000  H
  C103     1.0000 0.02050  0.47590  0.24420  Biso   1.000  C
  N25      1.0000 0.98090  0.45980  0.25750  Biso   1.000  N
  C104     1.0000 0.16170  0.24390  0.41260  Biso   1.000  C
  C105     1.0000 0.31380  0.30530  0.47040  Biso   1.000  C
  C106     1.0000 0.20860  0.15610  0.49600  Biso   1.000  C
  C107     1.0000 0.29300  0.34250  0.35660  Biso   1.000  C
  C108     1.0000 0.38120  0.17320  0.57610  Biso   1.000  C
  C109     1.0000 0.22950  0.11780  0.56010  Biso   1.000  C
  C110     1.0000 0.33040  0.28130  0.51110  Biso   1.000  C
  C111     1.0000 0.18390  0.15180  0.95800  Biso   1.000  C
  C112     1.0000 0.35360  0.22930  0.57450  Biso   1.000  C
  C113     1.0000 0.19160  0.18170  0.46650  Biso   1.000  C
  C114     1.0000 0.21640  0.14450  0.61850  Biso   1.000  C
  C115     1.0000 0.28680  0.36220  0.41690  Biso   1.000  C
  Mo6      1.0000 0.64314  0.02857  0.13891  Biso   1.000  Mo
  Cu16     1.0000 0.71188  0.07948  0.23954  Biso   1.000  Cu
  Cu17     1.0000 0.69036  0.85057  0.13077  Biso   1.000  Cu
  Cu18     1.0000 0.58811  0.95448  0.22850  Biso   1.000  Cu
  S16      1.0000 0.62937  0.10440  0.23392  Biso   1.000  S
  S17      1.0000 0.60760  0.87488  0.13605  Biso   1.000  S
  S18      1.0000 0.72500  0.00861  0.14052  Biso   1.000  S
  N26      1.0000 0.73260  0.97120  0.31690  Biso   1.000  N
  N27      1.0000 0.68110  0.79230  0.03130  Biso   1.000  N
  N28      1.0000 0.88520  0.63520  0.69190  Biso   1.000  N
  N29      1.0000 0.75170  0.18780  0.28440  Biso   1.000  N
  C116     1.0000 0.77390  0.24670  0.31720  Biso   1.000  C
  C117     1.0000 0.82900  0.76090  0.64230  Biso   1.000  C
  C118     1.0000 0.76590  0.90050  0.31180  Biso   1.000  C
  H36      1.0000 0.74060  0.84690  0.30160  Biso   1.000  H
  C119     1.0000 0.85080  0.70520  0.69550  Biso   1.000  C
  H37      1.0000 0.84050  0.71770  0.73760  Biso   1.000  H
  C120     1.0000 0.65370  0.84200  0.98260  Biso   1.000  C
  H38      1.0000 0.64320  0.90830  0.99120  Biso   1.000  H
  C121     1.0000 0.64010  0.80080  0.92000  Biso   1.000  C
  C122     1.0000 0.72130  0.99300  0.37690  Biso   1.000  C
  H39      1.0000 0.69680  0.04260  0.38020  Biso   1.000  H
  C123     1.0000 0.90010  0.61970  0.63250  Biso   1.000  C
  H40      1.0000 0.92440  0.57020  0.62860  Biso   1.000  H
  C124     1.0000 0.69580  0.70050  0.01880  Biso   1.000  C
  H41      1.0000 0.71560  0.66560  0.05290  Biso   1.000  H
  C125     1.0000 0.74270  0.94800  0.43530  Biso   1.000  C
  H42      1.0000 0.76400  0.00430  0.45470  Biso   1.000  H
  C126     1.0000 0.52050  0.97590  0.24420  Biso   1.000  C
  N30      1.0000 0.48090  0.95980  0.25750  Biso   1.000  N
  C127     1.0000 0.66170  0.74390  0.41260  Biso   1.000  C
  C128     1.0000 0.81380  0.80530  0.47040  Biso   1.000  C
  C129     1.0000 0.70860  0.65610  0.49600  Biso   1.000  C
  C130     1.0000 0.79300  0.84250  0.35660  Biso   1.000  C
  C131     1.0000 0.88120  0.67320  0.57610  Biso   1.000  C
  C132     1.0000 0.72950  0.61780  0.56010  Biso   1.000  C
  C133     1.0000 0.83040  0.78130  0.51110  Biso   1.000  C
  C134     1.0000 0.68390  0.65180  0.95800  Biso   1.000  C
  C135     1.0000 0.85360  0.72930  0.57450  Biso   1.000  C
  C136     1.0000 0.69160  0.68170  0.46650  Biso   1.000  C
  C137     1.0000 0.71640  0.64450  0.61850  Biso   1.000  C
  C138     1.0000 0.78680  0.86220  0.41690  Biso   1.000  C
  Mo7      1.0000 0.85686  0.52857  0.36109  Biso   1.000  Mo
  Cu19     1.0000 0.78812  0.57948  0.26046  Biso   1.000  Cu
  Cu20     1.0000 0.80964  0.35057  0.36923  Biso   1.000  Cu
  Cu21     1.0000 0.91189  0.45448  0.27150  Biso   1.000  Cu
  S19      1.0000 0.87063  0.60440  0.26608  Biso   1.000  S
  S20      1.0000 0.89240  0.37488  0.36395  Biso   1.000  S
  S21      1.0000 0.77500  0.50861  0.35948  Biso   1.000  S
  N31      1.0000 0.76740  0.47120  0.18310  Biso   1.000  N
  N32      1.0000 0.81890  0.29230  0.46870  Biso   1.000  N
  N33      1.0000 0.61480  0.13520  0.80810  Biso   1.000  N
  N34      1.0000 0.74830  0.68780  0.21560  Biso   1.000  N
  C139     1.0000 0.72610  0.74670  0.18280  Biso   1.000  C
  C140     1.0000 0.67100  0.26090  0.85770  Biso   1.000  C
  C141     1.0000 0.73410  0.40050  0.18820  Biso   1.000  C
  H43      1.0000 0.75940  0.34690  0.19840  Biso   1.000  H
  C142     1.0000 0.64920  0.20520  0.80450  Biso   1.000  C
  H44      1.0000 0.65950  0.21770  0.76240  Biso   1.000  H
  C143     1.0000 0.84630  0.34200  0.51740  Biso   1.000  C
  H45      1.0000 0.85680  0.40830  0.50880  Biso   1.000  H
  C144     1.0000 0.85990  0.30080  0.58000  Biso   1.000  C
  C145     1.0000 0.77870  0.49300  0.12310  Biso   1.000  C
  H46      1.0000 0.80320  0.54260  0.11980  Biso   1.000  H
  C146     1.0000 0.59990  0.11970  0.86750  Biso   1.000  C
  H47      1.0000 0.57560  0.07020  0.87140  Biso   1.000  H
  C147     1.0000 0.80420  0.20050  0.48120  Biso   1.000  C
  H48      1.0000 0.78440  0.16560  0.44710  Biso   1.000  H
  C148     1.0000 0.75730  0.44800  0.06470  Biso   1.000  C
  H49      1.0000 0.73600  0.50430  0.04530  Biso   1.000  H
  C149     1.0000 0.97950  0.47590  0.25580  Biso   1.000  C
  N35      1.0000 0.01910  0.45980  0.24250  Biso   1.000  N
  C150     1.0000 0.83830  0.24390  0.08740  Biso   1.000  C
  C151     1.0000 0.68620  0.30530  0.02960  Biso   1.000  C
  C152     1.0000 0.79140  0.15610  0.00400  Biso   1.000  C
  C153     1.0000 0.70700  0.34250  0.14340  Biso   1.000  C
  C154     1.0000 0.61880  0.17320  0.92390  Biso   1.000  C
  C155     1.0000 0.77050  0.11780  0.93990  Biso   1.000  C
  C156     1.0000 0.66960  0.28130  0.98890  Biso   1.000  C
  C157     1.0000 0.81610  0.15180  0.54200  Biso   1.000  C
  C158     1.0000 0.64640  0.22930  0.92550  Biso   1.000  C
  C159     1.0000 0.80840  0.18170  0.03350  Biso   1.000  C
  C160     1.0000 0.78360  0.14450  0.88150  Biso   1.000  C
  C161     1.0000 0.71320  0.36220  0.08310  Biso   1.000  C
  Mo8      1.0000 0.35686  0.02857  0.36109  Biso   1.000  Mo
  Cu22     1.0000 0.28812  0.07948  0.26046  Biso   1.000  Cu
  Cu23     1.0000 0.30964  0.85057  0.36923  Biso   1.000  Cu
  Cu24     1.0000 0.41189  0.95448  0.27150  Biso   1.000  Cu
  S22      1.0000 0.37063  0.10440  0.26608  Biso   1.000  S
  S23      1.0000 0.39240  0.87488  0.36395  Biso   1.000  S
  S24      1.0000 0.27500  0.00861  0.35948  Biso   1.000  S
  N36      1.0000 0.26740  0.97120  0.18310  Biso   1.000  N
  N37      1.0000 0.31890  0.79230  0.46870  Biso   1.000  N
  N38      1.0000 0.11480  0.63520  0.80810  Biso   1.000  N
  N39      1.0000 0.24830  0.18780  0.21560  Biso   1.000  N
  C162     1.0000 0.22610  0.24670  0.18280  Biso   1.000  C
  C163     1.0000 0.17100  0.76090  0.85770  Biso   1.000  C
  C164     1.0000 0.23410  0.90050  0.18820  Biso   1.000  C
  H50      1.0000 0.25940  0.84690  0.19840  Biso   1.000  H
  C165     1.0000 0.14920  0.70520  0.80450  Biso   1.000  C
  H51      1.0000 0.15950  0.71770  0.76240  Biso   1.000  H
  C166     1.0000 0.34630  0.84200  0.51740  Biso   1.000  C
  H52      1.0000 0.35680  0.90830  0.50880  Biso   1.000  H
  C167     1.0000 0.35990  0.80080  0.58000  Biso   1.000  C
  C168     1.0000 0.27870  0.99300  0.12310  Biso   1.000  C
  H53      1.0000 0.30320  0.04260  0.11980  Biso   1.000  H
  C169     1.0000 0.09990  0.61970  0.86750  Biso   1.000  C
  H54      1.0000 0.07560  0.57020  0.87140  Biso   1.000  H
  C170     1.0000 0.30420  0.70050  0.48120  Biso   1.000  C
  H55      1.0000 0.28440  0.66560  0.44710  Biso   1.000  H
  C171     1.0000 0.25730  0.94800  0.06470  Biso   1.000  C
  H56      1.0000 0.23600  0.00430  0.04530  Biso   1.000  H
  C172     1.0000 0.47950  0.97590  0.25580  Biso   1.000  C
  N40      1.0000 0.51910  0.95980  0.24250  Biso   1.000  N
  C173     1.0000 0.33830  0.74390  0.08740  Biso   1.000  C
  C174     1.0000 0.18620  0.80530  0.02960  Biso   1.000  C
  C175     1.0000 0.29140  0.65610  0.00400  Biso   1.000  C
  C176     1.0000 0.20700  0.84250  0.14340  Biso   1.000  C
  C177     1.0000 0.11880  0.67320  0.92390  Biso   1.000  C
  C178     1.0000 0.27050  0.61780  0.93990  Biso   1.000  C
  C179     1.0000 0.16960  0.78130  0.98890  Biso   1.000  C
  C180     1.0000 0.31610  0.65180  0.54200  Biso   1.000  C
  C181     1.0000 0.14640  0.72930  0.92550  Biso   1.000  C
  C182     1.0000 0.30840  0.68170  0.03350  Biso   1.000  C
  C183     1.0000 0.28360  0.64450  0.88150  Biso   1.000  C
  C184     1.0000 0.21320  0.86220  0.08310  Biso   1.000  C
