data_image0
_cell_length_a       17.66
_cell_length_b       20.309
_cell_length_c       17.565
_cell_angle_alpha    90
_cell_angle_beta     115.926
_cell_angle_gamma    90

_symmetry_space_group_name_H-M    "P 1"
_symmetry_int_tables_number       1

loop_
  _symmetry_equiv_pos_as_xyz
  'x, y, z'

loop_
  _atom_site_label
  _atom_site_occupancy
  _atom_site_fract_x
  _atom_site_fract_y
  _atom_site_fract_z
  _atom_site_thermal_displace_type
  _atom_site_B_iso_or_equiv
  _atom_site_type_symbol
  Ge1      1.0000 0.49707  0.71853  0.98554  Biso   1.000  Ge
  Ge2      1.0000 0.62941  0.66531  0.16818  Biso   1.000  Ge
  Ge3      1.0000 0.58144  0.55573  0.27231  Biso   1.000  Ge
  Ge4      1.0000 0.39356  0.49379  0.18791  Biso   1.000  Ge
  Ge5      1.0000 0.25971  0.54691  0.00613  Biso   1.000  Ge
  Ge6      1.0000 0.30528  0.65906  0.90189  Biso   1.000  Ge
  Ge7      1.0000 0.21585  0.60264  0.61896  Biso   1.000  Ge
  Tb1      1.0000 0.41903  0.65208  0.12087  Biso   1.000  Tb
  Tb2      1.0000 0.06368  0.49629  0.64092  Biso   1.000  Tb
  Tb3      1.0000 0.28663  0.50272  0.81464  Biso   1.000  Tb
  Tb4      1.0000 0.33159  0.38983  0.99830  Biso   1.000  Tb
  Tb5      1.0000 0.54731  0.38551  0.18817  Biso   1.000  Tb
  N1       1.0000 0.98930  0.44400  0.73230  Biso   1.000  N
  O1       1.0000 0.53520  0.70720  0.09830  Biso   1.000  O
  O2       1.0000 0.56940  0.63450  0.22300  Biso   1.000  O
  O3       1.0000 0.47050  0.55430  0.24160  Biso   1.000  O
  O4       1.0000 0.32870  0.55690  0.11690  Biso   1.000  O
  O5       1.0000 0.29140  0.62930  0.99140  Biso   1.000  O
  O6       1.0000 0.39300  0.70800  0.97210  Biso   1.000  O
  O7       1.0000 0.53360  0.65330  0.94710  Biso   1.000  O
  O8       1.0000 0.64460  0.59470  0.12030  Biso   1.000  O
  O9       1.0000 0.59930  0.49160  0.21640  Biso   1.000  O
  O10      1.0000 0.42030  0.44160  0.12590  Biso   1.000  O
  O11      1.0000 0.30300  0.49860  0.95420  Biso   1.000  O
  O12      1.0000 0.34950  0.60410  0.85710  Biso   1.000  O
  O13      1.0000 0.41000  0.72610  0.81140  Biso   1.000  O
  O14      1.0000 0.39080  0.81250  0.72810  Biso   1.000  O
  O15      1.0000 0.68030  0.71330  0.07440  Biso   1.000  O
  O16      1.0000 0.76950  0.78970  0.07940  Biso   1.000  O
  O17      1.0000 0.73080  0.57450  0.29890  Biso   1.000  O
  O18      1.0000 0.85120  0.56550  0.41590  Biso   1.000  O
  O19      1.0000 0.54230  0.39220  0.42900  Biso   1.000  O
  O20      1.0000 0.51320  0.42210  0.30050  Biso   1.000  O
  O21      1.0000 0.24610  0.44020  0.05590  Biso   1.000  O
  O22      1.0000 0.14780  0.38150  0.07170  Biso   1.000  O
  O23      1.0000 0.18870  0.58360  0.83210  Biso   1.000  O
  O24      1.0000 0.06240  0.59210  0.72150  Biso   1.000  O
  O25      1.0000 0.04320  0.56450  0.52120  Biso   1.000  O
  O26      1.0000 0.99040  0.61550  0.40020  Biso   1.000  O
  O27      1.0000 0.18230  0.38460  0.88640  Biso   1.000  O
  O28      1.0000 0.15180  0.44730  0.77200  Biso   1.000  O
  O29      1.0000 0.19530  0.54910  0.68260  Biso   1.000  O
  O30      1.0000 0.32570  0.62560  0.67030  Biso   1.000  O
  O31      1.0000 0.92220  0.53520  0.58130  Biso   1.000  O
  H1       1.0000 0.89810  0.54610  0.52940  Biso   1.000  H
  H2       1.0000 0.89880  0.55600  0.60740  Biso   1.000  H
  C1       1.0000 0.51690  0.80500  0.95320  Biso   1.000  C
  H3       1.0000 0.52980  0.83490  0.00030  Biso   1.000  H
  H4       1.0000 0.56560  0.80330  0.94140  Biso   1.000  H
  C2       1.0000 0.44150  0.83210  0.87520  Biso   1.000  C
  H5       1.0000 0.39470  0.83880  0.88930  Biso   1.000  H
  H6       1.0000 0.45650  0.87450  0.86030  Biso   1.000  H
  C3       1.0000 0.41400  0.78660  0.79980  Biso   1.000  C
  C4       1.0000 0.71830  0.72120  0.24200  Biso   1.000  C
  H7       1.0000 0.70520  0.73660  0.28720  Biso   1.000  H
  H8       1.0000 0.77010  0.69590  0.26750  Biso   1.000  H
  C5       1.0000 0.73170  0.78040  0.19580  Biso   1.000  C
  H9       1.0000 0.68780  0.81270  0.18560  Biso   1.000  H
  H10      1.0000 0.78550  0.80080  0.23100  Biso   1.000  H
  C6       1.0000 0.73010  0.75970  0.11210  Biso   1.000  C
  C7       1.0000 0.64030  0.55940  0.39430  Biso   1.000  C
  H11      1.0000 0.60450  0.58100  0.41570  Biso   1.000  H
  H12      1.0000 0.65010  0.51480  0.41630  Biso   1.000  H
  C8       1.0000 0.72530  0.59600  0.42800  Biso   1.000  C
  H13      1.0000 0.71530  0.64310  0.42410  Biso   1.000  H
  H14      1.0000 0.75850  0.58490  0.48720  Biso   1.000  H
  C9       1.0000 0.77350  0.57780  0.37860  Biso   1.000  C
  C10      1.0000 0.34790  0.45900  0.26160  Biso   1.000  C
  H15      1.0000 0.30400  0.48830  0.26030  Biso   1.000  H
  H16      1.0000 0.32220  0.41650  0.23990  Biso   1.000  H
  C11      1.0000 0.41350  0.45060  0.35310  Biso   1.000  C
  H17      1.0000 0.38980  0.42400  0.38320  Biso   1.000  H
  H18      1.0000 0.42710  0.49340  0.38010  Biso   1.000  H
  C12      1.0000 0.49480  0.41770  0.35990  Biso   1.000  C
  C13      1.0000 0.14210  0.54410  0.98210  Biso   1.000  C
  H19      1.0000 0.12400  0.58790  0.98870  Biso   1.000  H
  H20      1.0000 0.10930  0.53090  0.92360  Biso   1.000  H
  C14      1.0000 0.12400  0.49590  0.04040  Biso   1.000  C
  H21      1.0000 0.13650  0.51740  0.09390  Biso   1.000  H
  H22      1.0000 0.06470  0.48440  0.01430  Biso   1.000  H
  C15      1.0000 0.17670  0.43300  0.05680  Biso   1.000  C
  C16      1.0000 0.21580  0.71810  0.83020  Biso   1.000  C
  H23      1.0000 0.21980  0.75870  0.86080  Biso   1.000  H
  H24      1.0000 0.22390  0.72890  0.78040  Biso   1.000  H
  C17      1.0000 0.12730  0.68910  0.80180  Biso   1.000  C
  H25      1.0000 0.10950  0.69560  0.84620  Biso   1.000  H
  H26      1.0000 0.08820  0.71230  0.75180  Biso   1.000  H
  C18      1.0000 0.12470  0.61630  0.78200  Biso   1.000  C
  C19      1.0000 0.15140  0.68300  0.58970  Biso   1.000  C
  H27      1.0000 0.14570  0.69820  0.63930  Biso   1.000  H
  H28      1.0000 0.18330  0.71600  0.57630  Biso   1.000  H
  C20      1.0000 0.06700  0.67920  0.51880  Biso   1.000  C
  H29      1.0000 0.02820  0.69760  0.53870  Biso   1.000  H
  H30      1.0000 0.06670  0.70870  0.47530  Biso   1.000  H
  C21      1.0000 0.03080  0.61710  0.47720  Biso   1.000  C
  C22      1.0000 0.13120  0.41200  0.82180  Biso   1.000  C
  C23      1.0000 0.04110  0.40840  0.80080  Biso   1.000  C
  C24      1.0000 0.01170  0.37040  0.84760  Biso   1.000  C
  H31      1.0000 0.04990  0.34770  0.89480  Biso   1.000  H
  C25      1.0000 0.92700  0.36560  0.82550  Biso   1.000  C
  H32      1.0000 0.90660  0.33980  0.85620  Biso   1.000  H
  C26      1.0000 0.87310  0.40150  0.75420  Biso   1.000  C
  H33      1.0000 0.81520  0.40020  0.73640  Biso   1.000  H
  C27      1.0000 0.90710  0.43930  0.71020  Biso   1.000  C
  H34      1.0000 0.87030  0.46250  0.66280  Biso   1.000  H
  Tb6      1.0000 0.07570  0.52440  0.63080  Biso   1.000  Tb
  Ge8      1.0000 0.50293  0.21853  0.51446  Biso   1.000  Ge
  Ge9      1.0000 0.37059  0.16531  0.33182  Biso   1.000  Ge
  Ge10     1.0000 0.41856  0.05573  0.22769  Biso   1.000  Ge
  Ge11     1.0000 0.60644  0.99379  0.31209  Biso   1.000  Ge
  Ge12     1.0000 0.74029  0.04691  0.49387  Biso   1.000  Ge
  Ge13     1.0000 0.69472  0.15906  0.59811  Biso   1.000  Ge
  Ge14     1.0000 0.78415  0.10264  0.88104  Biso   1.000  Ge
  Tb7      1.0000 0.58097  0.15208  0.37913  Biso   1.000  Tb
  Tb8      1.0000 0.93632  0.99629  0.85908  Biso   1.000  Tb
  Tb9      1.0000 0.71337  0.00272  0.68536  Biso   1.000  Tb
  Tb10     1.0000 0.66841  0.88983  0.50170  Biso   1.000  Tb
  Tb11     1.0000 0.45269  0.88551  0.31183  Biso   1.000  Tb
  N2       1.0000 0.01070  0.94400  0.76770  Biso   1.000  N
  O32      1.0000 0.46480  0.20720  0.40170  Biso   1.000  O
  O33      1.0000 0.43060  0.13450  0.27700  Biso   1.000  O
  O34      1.0000 0.52950  0.05430  0.25840  Biso   1.000  O
  O35      1.0000 0.67130  0.05690  0.38310  Biso   1.000  O
  O36      1.0000 0.70860  0.12930  0.50860  Biso   1.000  O
  O37      1.0000 0.60700  0.20800  0.52790  Biso   1.000  O
  O38      1.0000 0.46640  0.15330  0.55290  Biso   1.000  O
  O39      1.0000 0.35540  0.09470  0.37970  Biso   1.000  O
  O40      1.0000 0.40070  0.99160  0.28360  Biso   1.000  O
  O41      1.0000 0.57970  0.94160  0.37410  Biso   1.000  O
  O42      1.0000 0.69700  0.99860  0.54580  Biso   1.000  O
  O43      1.0000 0.65050  0.10410  0.64290  Biso   1.000  O
  O44      1.0000 0.59000  0.22610  0.68860  Biso   1.000  O
  O45      1.0000 0.60920  0.31250  0.77190  Biso   1.000  O
  O46      1.0000 0.31970  0.21330  0.42560  Biso   1.000  O
  O47      1.0000 0.23050  0.28970  0.42060  Biso   1.000  O
  O48      1.0000 0.26920  0.07450  0.20110  Biso   1.000  O
  O49      1.0000 0.14880  0.06550  0.08410  Biso   1.000  O
  O50      1.0000 0.45770  0.89220  0.07100  Biso   1.000  O
  O51      1.0000 0.48680  0.92210  0.19950  Biso   1.000  O
  O52      1.0000 0.75390  0.94020  0.44410  Biso   1.000  O
  O53      1.0000 0.85220  0.88150  0.42830  Biso   1.000  O
  O54      1.0000 0.81130  0.08360  0.66790  Biso   1.000  O
  O55      1.0000 0.93760  0.09210  0.77850  Biso   1.000  O
  O56      1.0000 0.95680  0.06450  0.97880  Biso   1.000  O
  O57      1.0000 0.00960  0.11550  0.09980  Biso   1.000  O
  O58      1.0000 0.81770  0.88460  0.61360  Biso   1.000  O
  O59      1.0000 0.84820  0.94730  0.72800  Biso   1.000  O
  O60      1.0000 0.80470  0.04910  0.81740  Biso   1.000  O
  O61      1.0000 0.67430  0.12560  0.82970  Biso   1.000  O
  O62      1.0000 0.07780  0.03520  0.91870  Biso   1.000  O
  H35      1.0000 0.10190  0.04610  0.97060  Biso   1.000  H
  H36      1.0000 0.10120  0.05600  0.89260  Biso   1.000  H
  C28      1.0000 0.48310  0.30500  0.54680  Biso   1.000  C
  H37      1.0000 0.47020  0.33490  0.49970  Biso   1.000  H
  H38      1.0000 0.43440  0.30330  0.55860  Biso   1.000  H
  C29      1.0000 0.55850  0.33210  0.62480  Biso   1.000  C
  H39      1.0000 0.60530  0.33880  0.61070  Biso   1.000  H
  H40      1.0000 0.54350  0.37450  0.63970  Biso   1.000  H
  C30      1.0000 0.58600  0.28660  0.70020  Biso   1.000  C
  C31      1.0000 0.28170  0.22120  0.25800  Biso   1.000  C
  H41      1.0000 0.29480  0.23660  0.21280  Biso   1.000  H
  H42      1.0000 0.22990  0.19590  0.23250  Biso   1.000  H
  C32      1.0000 0.26830  0.28040  0.30420  Biso   1.000  C
  H43      1.0000 0.31220  0.31270  0.31440  Biso   1.000  H
  H44      1.0000 0.21450  0.30080  0.26900  Biso   1.000  H
  C33      1.0000 0.26990  0.25970  0.38790  Biso   1.000  C
  C34      1.0000 0.35970  0.05940  0.10570  Biso   1.000  C
  H45      1.0000 0.39550  0.08100  0.08430  Biso   1.000  H
  H46      1.0000 0.34990  0.01480  0.08370  Biso   1.000  H
  C35      1.0000 0.27470  0.09600  0.07200  Biso   1.000  C
  H47      1.0000 0.28470  0.14310  0.07590  Biso   1.000  H
  H48      1.0000 0.24150  0.08490  0.01280  Biso   1.000  H
  C36      1.0000 0.22650  0.07780  0.12140  Biso   1.000  C
  C37      1.0000 0.65210  0.95900  0.23840  Biso   1.000  C
  H49      1.0000 0.69600  0.98830  0.23970  Biso   1.000  H
  H50      1.0000 0.67780  0.91650  0.26010  Biso   1.000  H
  C38      1.0000 0.58650  0.95060  0.14690  Biso   1.000  C
  H51      1.0000 0.61020  0.92400  0.11680  Biso   1.000  H
  H52      1.0000 0.57290  0.99340  0.11990  Biso   1.000  H
  C39      1.0000 0.50520  0.91770  0.14010  Biso   1.000  C
  C40      1.0000 0.85790  0.04410  0.51790  Biso   1.000  C
  H53      1.0000 0.87600  0.08790  0.51130  Biso   1.000  H
  H54      1.0000 0.89070  0.03090  0.57640  Biso   1.000  H
  C41      1.0000 0.87600  0.99590  0.45960  Biso   1.000  C
  H55      1.0000 0.86350  0.01740  0.40610  Biso   1.000  H
  H56      1.0000 0.93530  0.98440  0.48570  Biso   1.000  H
  C42      1.0000 0.82330  0.93300  0.44320  Biso   1.000  C
  C43      1.0000 0.78420  0.21810  0.66980  Biso   1.000  C
  H57      1.0000 0.78020  0.25870  0.63920  Biso   1.000  H
  H58      1.0000 0.77610  0.22890  0.71960  Biso   1.000  H
  C44      1.0000 0.87270  0.18910  0.69820  Biso   1.000  C
  H59      1.0000 0.89050  0.19560  0.65380  Biso   1.000  H
  H60      1.0000 0.91180  0.21230  0.74820  Biso   1.000  H
  C45      1.0000 0.87530  0.11630  0.71800  Biso   1.000  C
  C46      1.0000 0.84860  0.18300  0.91030  Biso   1.000  C
  H61      1.0000 0.85430  0.19820  0.86070  Biso   1.000  H
  H62      1.0000 0.81670  0.21600  0.92370  Biso   1.000  H
  C47      1.0000 0.93300  0.17920  0.98120  Biso   1.000  C
  H63      1.0000 0.97180  0.19760  0.96130  Biso   1.000  H
  H64      1.0000 0.93330  0.20870  0.02470  Biso   1.000  H
  C48      1.0000 0.96920  0.11710  0.02280  Biso   1.000  C
  C49      1.0000 0.86880  0.91200  0.67820  Biso   1.000  C
  C50      1.0000 0.95890  0.90840  0.69920  Biso   1.000  C
  C51      1.0000 0.98830  0.87040  0.65240  Biso   1.000  C
  H65      1.0000 0.95010  0.84770  0.60520  Biso   1.000  H
  C52      1.0000 0.07300  0.86560  0.67450  Biso   1.000  C
  H66      1.0000 0.09340  0.83980  0.64380  Biso   1.000  H
  C53      1.0000 0.12690  0.90150  0.74580  Biso   1.000  C
  H67      1.0000 0.18480  0.90020  0.76360  Biso   1.000  H
  C54      1.0000 0.09290  0.93930  0.78980  Biso   1.000  C
  H68      1.0000 0.12970  0.96250  0.83720  Biso   1.000  H
  Tb12     1.0000 0.92430  0.02440  0.86920  Biso   1.000  Tb
  Ge15     1.0000 0.50293  0.28147  0.01446  Biso   1.000  Ge
  Ge16     1.0000 0.37059  0.33469  0.83182  Biso   1.000  Ge
  Ge17     1.0000 0.41856  0.44427  0.72769  Biso   1.000  Ge
  Ge18     1.0000 0.60644  0.50621  0.81209  Biso   1.000  Ge
  Ge19     1.0000 0.74029  0.45309  0.99387  Biso   1.000  Ge
  Ge20     1.0000 0.69472  0.34094  0.09811  Biso   1.000  Ge
  Ge21     1.0000 0.78415  0.39736  0.38104  Biso   1.000  Ge
  Tb13     1.0000 0.58097  0.34792  0.87913  Biso   1.000  Tb
  Tb14     1.0000 0.93632  0.50371  0.35908  Biso   1.000  Tb
  Tb15     1.0000 0.71337  0.49728  0.18536  Biso   1.000  Tb
  Tb16     1.0000 0.66841  0.61017  0.00170  Biso   1.000  Tb
  Tb17     1.0000 0.45269  0.61449  0.81183  Biso   1.000  Tb
  N3       1.0000 0.01070  0.55600  0.26770  Biso   1.000  N
  O63      1.0000 0.46480  0.29280  0.90170  Biso   1.000  O
  O64      1.0000 0.43060  0.36550  0.77700  Biso   1.000  O
  O65      1.0000 0.52950  0.44570  0.75840  Biso   1.000  O
  O66      1.0000 0.67130  0.44310  0.88310  Biso   1.000  O
  O67      1.0000 0.70860  0.37070  0.00860  Biso   1.000  O
  O68      1.0000 0.60700  0.29200  0.02790  Biso   1.000  O
  O69      1.0000 0.46640  0.34670  0.05290  Biso   1.000  O
  O70      1.0000 0.35540  0.40530  0.87970  Biso   1.000  O
  O71      1.0000 0.40070  0.50840  0.78360  Biso   1.000  O
  O72      1.0000 0.57970  0.55840  0.87410  Biso   1.000  O
  O73      1.0000 0.69700  0.50140  0.04580  Biso   1.000  O
  O74      1.0000 0.65050  0.39590  0.14290  Biso   1.000  O
  O75      1.0000 0.59000  0.27390  0.18860  Biso   1.000  O
  O76      1.0000 0.60920  0.18750  0.27190  Biso   1.000  O
  O77      1.0000 0.31970  0.28670  0.92560  Biso   1.000  O
  O78      1.0000 0.23050  0.21030  0.92060  Biso   1.000  O
  O79      1.0000 0.26920  0.42550  0.70110  Biso   1.000  O
  O80      1.0000 0.14880  0.43450  0.58410  Biso   1.000  O
  O81      1.0000 0.45770  0.60780  0.57100  Biso   1.000  O
  O82      1.0000 0.48680  0.57790  0.69950  Biso   1.000  O
  O83      1.0000 0.75390  0.55980  0.94410  Biso   1.000  O
  O84      1.0000 0.85220  0.61850  0.92830  Biso   1.000  O
  O85      1.0000 0.81130  0.41640  0.16790  Biso   1.000  O
  O86      1.0000 0.93760  0.40790  0.27850  Biso   1.000  O
  O87      1.0000 0.95680  0.43550  0.47880  Biso   1.000  O
  O88      1.0000 0.00960  0.38450  0.59980  Biso   1.000  O
  O89      1.0000 0.81770  0.61540  0.11360  Biso   1.000  O
  O90      1.0000 0.84820  0.55270  0.22800  Biso   1.000  O
  O91      1.0000 0.80470  0.45090  0.31740  Biso   1.000  O
  O92      1.0000 0.67430  0.37440  0.32970  Biso   1.000  O
  O93      1.0000 0.07780  0.46480  0.41870  Biso   1.000  O
  H69      1.0000 0.10190  0.45390  0.47060  Biso   1.000  H
  H70      1.0000 0.10120  0.44400  0.39260  Biso   1.000  H
  C55      1.0000 0.48310  0.19500  0.04680  Biso   1.000  C
  H71      1.0000 0.47020  0.16510  0.99970  Biso   1.000  H
  H72      1.0000 0.43440  0.19670  0.05860  Biso   1.000  H
  C56      1.0000 0.55850  0.16790  0.12480  Biso   1.000  C
  H73      1.0000 0.60530  0.16120  0.11070  Biso   1.000  H
  H74      1.0000 0.54350  0.12550  0.13970  Biso   1.000  H
  C57      1.0000 0.58600  0.21340  0.20020  Biso   1.000  C
  C58      1.0000 0.28170  0.27880  0.75800  Biso   1.000  C
  H75      1.0000 0.29480  0.26340  0.71280  Biso   1.000  H
  H76      1.0000 0.22990  0.30410  0.73250  Biso   1.000  H
  C59      1.0000 0.26830  0.21960  0.80420  Biso   1.000  C
  H77      1.0000 0.31220  0.18730  0.81440  Biso   1.000  H
  H78      1.0000 0.21450  0.19920  0.76900  Biso   1.000  H
  C60      1.0000 0.26990  0.24030  0.88790  Biso   1.000  C
  C61      1.0000 0.35970  0.44060  0.60570  Biso   1.000  C
  H79      1.0000 0.39550  0.41900  0.58430  Biso   1.000  H
  H80      1.0000 0.34990  0.48520  0.58370  Biso   1.000  H
  C62      1.0000 0.27470  0.40400  0.57200  Biso   1.000  C
  H81      1.0000 0.28470  0.35690  0.57590  Biso   1.000  H
  H82      1.0000 0.24150  0.41510  0.51280  Biso   1.000  H
  C63      1.0000 0.22650  0.42220  0.62140  Biso   1.000  C
  C64      1.0000 0.65210  0.54100  0.73840  Biso   1.000  C
  H83      1.0000 0.69600  0.51170  0.73970  Biso   1.000  H
  H84      1.0000 0.67780  0.58350  0.76010  Biso   1.000  H
  C65      1.0000 0.58650  0.54940  0.64690  Biso   1.000  C
  H85      1.0000 0.61020  0.57600  0.61680  Biso   1.000  H
  H86      1.0000 0.57290  0.50660  0.61990  Biso   1.000  H
  C66      1.0000 0.50520  0.58230  0.64010  Biso   1.000  C
  C67      1.0000 0.85790  0.45590  0.01790  Biso   1.000  C
  H87      1.0000 0.87600  0.41210  0.01130  Biso   1.000  H
  H88      1.0000 0.89070  0.46910  0.07640  Biso   1.000  H
  C68      1.0000 0.87600  0.50410  0.95960  Biso   1.000  C
  H89      1.0000 0.86350  0.48260  0.90610  Biso   1.000  H
  H90      1.0000 0.93530  0.51560  0.98570  Biso   1.000  H
  C69      1.0000 0.82330  0.56700  0.94320  Biso   1.000  C
  C70      1.0000 0.78420  0.28190  0.16980  Biso   1.000  C
  H91      1.0000 0.78020  0.24130  0.13920  Biso   1.000  H
  H92      1.0000 0.77610  0.27110  0.21960  Biso   1.000  H
  C71      1.0000 0.87270  0.31090  0.19820  Biso   1.000  C
  H93      1.0000 0.89050  0.30440  0.15380  Biso   1.000  H
  H94      1.0000 0.91180  0.28770  0.24820  Biso   1.000  H
  C72      1.0000 0.87530  0.38370  0.21800  Biso   1.000  C
  C73      1.0000 0.84860  0.31700  0.41030  Biso   1.000  C
  H95      1.0000 0.85430  0.30180  0.36070  Biso   1.000  H
  H96      1.0000 0.81670  0.28400  0.42370  Biso   1.000  H
  C74      1.0000 0.93300  0.32080  0.48120  Biso   1.000  C
  H97      1.0000 0.97180  0.30240  0.46130  Biso   1.000  H
  H98      1.0000 0.93330  0.29130  0.52470  Biso   1.000  H
  C75      1.0000 0.96920  0.38290  0.52280  Biso   1.000  C
  C76      1.0000 0.86880  0.58800  0.17820  Biso   1.000  C
  C77      1.0000 0.95890  0.59160  0.19920  Biso   1.000  C
  C78      1.0000 0.98830  0.62960  0.15240  Biso   1.000  C
  H99      1.0000 0.95010  0.65230  0.10520  Biso   1.000  H
  C79      1.0000 0.07300  0.63440  0.17450  Biso   1.000  C
  H100     1.0000 0.09340  0.66020  0.14380  Biso   1.000  H
  C80      1.0000 0.12690  0.59850  0.24580  Biso   1.000  C
  H101     1.0000 0.18480  0.59980  0.26360  Biso   1.000  H
  C81      1.0000 0.09290  0.56070  0.28980  Biso   1.000  C
  H102     1.0000 0.12970  0.53750  0.33720  Biso   1.000  H
  Tb18     1.0000 0.92430  0.47560  0.36920  Biso   1.000  Tb
  Ge22     1.0000 0.49707  0.78147  0.48554  Biso   1.000  Ge
  Ge23     1.0000 0.62941  0.83469  0.66818  Biso   1.000  Ge
  Ge24     1.0000 0.58144  0.94427  0.77231  Biso   1.000  Ge
  Ge25     1.0000 0.39356  0.00621  0.68791  Biso   1.000  Ge
  Ge26     1.0000 0.25971  0.95309  0.50613  Biso   1.000  Ge
  Ge27     1.0000 0.30528  0.84094  0.40189  Biso   1.000  Ge
  Ge28     1.0000 0.21585  0.89736  0.11896  Biso   1.000  Ge
  Tb19     1.0000 0.41903  0.84792  0.62087  Biso   1.000  Tb
  Tb20     1.0000 0.06368  0.00371  0.14092  Biso   1.000  Tb
  Tb21     1.0000 0.28663  0.99728  0.31464  Biso   1.000  Tb
  Tb22     1.0000 0.33159  0.11017  0.49830  Biso   1.000  Tb
  Tb23     1.0000 0.54731  0.11449  0.68817  Biso   1.000  Tb
  N4       1.0000 0.98930  0.05600  0.23230  Biso   1.000  N
  O94      1.0000 0.53520  0.79280  0.59830  Biso   1.000  O
  O95      1.0000 0.56940  0.86550  0.72300  Biso   1.000  O
  O96      1.0000 0.47050  0.94570  0.74160  Biso   1.000  O
  O97      1.0000 0.32870  0.94310  0.61690  Biso   1.000  O
  O98      1.0000 0.29140  0.87070  0.49140  Biso   1.000  O
  O99      1.0000 0.39300  0.79200  0.47210  Biso   1.000  O
  O100     1.0000 0.53360  0.84670  0.44710  Biso   1.000  O
  O101     1.0000 0.64460  0.90530  0.62030  Biso   1.000  O
  O102     1.0000 0.59930  0.00840  0.71640  Biso   1.000  O
  O103     1.0000 0.42030  0.05840  0.62590  Biso   1.000  O
  O104     1.0000 0.30300  0.00140  0.45420  Biso   1.000  O
  O105     1.0000 0.34950  0.89590  0.35710  Biso   1.000  O
  O106     1.0000 0.41000  0.77390  0.31140  Biso   1.000  O
  O107     1.0000 0.39080  0.68750  0.22810  Biso   1.000  O
  O108     1.0000 0.68030  0.78670  0.57440  Biso   1.000  O
  O109     1.0000 0.76950  0.71030  0.57940  Biso   1.000  O
  O110     1.0000 0.73080  0.92550  0.79890  Biso   1.000  O
  O111     1.0000 0.85120  0.93450  0.91590  Biso   1.000  O
  O112     1.0000 0.54230  0.10780  0.92900  Biso   1.000  O
  O113     1.0000 0.51320  0.07790  0.80050  Biso   1.000  O
  O114     1.0000 0.24610  0.05980  0.55590  Biso   1.000  O
  O115     1.0000 0.14780  0.11850  0.57170  Biso   1.000  O
  O116     1.0000 0.18870  0.91640  0.33210  Biso   1.000  O
  O117     1.0000 0.06240  0.90790  0.22150  Biso   1.000  O
  O118     1.0000 0.04320  0.93550  0.02120  Biso   1.000  O
  O119     1.0000 0.99040  0.88450  0.90020  Biso   1.000  O
  O120     1.0000 0.18230  0.11540  0.38640  Biso   1.000  O
  O121     1.0000 0.15180  0.05270  0.27200  Biso   1.000  O
  O122     1.0000 0.19530  0.95090  0.18260  Biso   1.000  O
  O123     1.0000 0.32570  0.87440  0.17030  Biso   1.000  O
  O124     1.0000 0.92220  0.96480  0.08130  Biso   1.000  O
  H103     1.0000 0.89810  0.95390  0.02940  Biso   1.000  H
  H104     1.0000 0.89880  0.94400  0.10740  Biso   1.000  H
  C82      1.0000 0.51690  0.69500  0.45320  Biso   1.000  C
  H105     1.0000 0.52980  0.66510  0.50030  Biso   1.000  H
  H106     1.0000 0.56560  0.69670  0.44140  Biso   1.000  H
  C83      1.0000 0.44150  0.66790  0.37520  Biso   1.000  C
  H107     1.0000 0.39470  0.66120  0.38930  Biso   1.000  H
  H108     1.0000 0.45650  0.62550  0.36030  Biso   1.000  H
  C84      1.0000 0.41400  0.71340  0.29980  Biso   1.000  C
  C85      1.0000 0.71830  0.77880  0.74200  Biso   1.000  C
  H109     1.0000 0.70520  0.76340  0.78720  Biso   1.000  H
  H110     1.0000 0.77010  0.80410  0.76750  Biso   1.000  H
  C86      1.0000 0.73170  0.71960  0.69580  Biso   1.000  C
  H111     1.0000 0.68780  0.68730  0.68560  Biso   1.000  H
  H112     1.0000 0.78550  0.69920  0.73100  Biso   1.000  H
  C87      1.0000 0.73010  0.74030  0.61210  Biso   1.000  C
  C88      1.0000 0.64030  0.94060  0.89430  Biso   1.000  C
  H113     1.0000 0.60450  0.91900  0.91570  Biso   1.000  H
  H114     1.0000 0.65010  0.98520  0.91630  Biso   1.000  H
  C89      1.0000 0.72530  0.90400  0.92800  Biso   1.000  C
  H115     1.0000 0.71530  0.85690  0.92410  Biso   1.000  H
  H116     1.0000 0.75850  0.91510  0.98720  Biso   1.000  H
  C90      1.0000 0.77350  0.92220  0.87860  Biso   1.000  C
  C91      1.0000 0.34790  0.04100  0.76160  Biso   1.000  C
  H117     1.0000 0.30400  0.01170  0.76030  Biso   1.000  H
  H118     1.0000 0.32220  0.08350  0.73990  Biso   1.000  H
  C92      1.0000 0.41350  0.04940  0.85310  Biso   1.000  C
  H119     1.0000 0.38980  0.07600  0.88320  Biso   1.000  H
  H120     1.0000 0.42710  0.00660  0.88010  Biso   1.000  H
  C93      1.0000 0.49480  0.08230  0.85990  Biso   1.000  C
  C94      1.0000 0.14210  0.95590  0.48210  Biso   1.000  C
  H121     1.0000 0.12400  0.91210  0.48870  Biso   1.000  H
  H122     1.0000 0.10930  0.96910  0.42360  Biso   1.000  H
  C95      1.0000 0.12400  0.00410  0.54040  Biso   1.000  C
  H123     1.0000 0.13650  0.98260  0.59390  Biso   1.000  H
  H124     1.0000 0.06470  0.01560  0.51430  Biso   1.000  H
  C96      1.0000 0.17670  0.06700  0.55680  Biso   1.000  C
  C97      1.0000 0.21580  0.78190  0.33020  Biso   1.000  C
  H125     1.0000 0.21980  0.74130  0.36080  Biso   1.000  H
  H126     1.0000 0.22390  0.77110  0.28040  Biso   1.000  H
  C98      1.0000 0.12730  0.81090  0.30180  Biso   1.000  C
  H127     1.0000 0.10950  0.80440  0.34620  Biso   1.000  H
  H128     1.0000 0.08820  0.78770  0.25180  Biso   1.000  H
  C99      1.0000 0.12470  0.88370  0.28200  Biso   1.000  C
  C100     1.0000 0.15140  0.81700  0.08970  Biso   1.000  C
  H129     1.0000 0.14570  0.80180  0.13930  Biso   1.000  H
  H130     1.0000 0.18330  0.78400  0.07630  Biso   1.000  H
  C101     1.0000 0.06700  0.82080  0.01880  Biso   1.000  C
  H131     1.0000 0.02820  0.80240  0.03870  Biso   1.000  H
  H132     1.0000 0.06670  0.79130  0.97530  Biso   1.000  H
  C102     1.0000 0.03080  0.88290  0.97720  Biso   1.000  C
  C103     1.0000 0.13120  0.08800  0.32180  Biso   1.000  C
  C104     1.0000 0.04110  0.09160  0.30080  Biso   1.000  C
  C105     1.0000 0.01170  0.12960  0.34760  Biso   1.000  C
  H133     1.0000 0.04990  0.15230  0.39480  Biso   1.000  H
  C106     1.0000 0.92700  0.13440  0.32550  Biso   1.000  C
  H134     1.0000 0.90660  0.16020  0.35620  Biso   1.000  H
  C107     1.0000 0.87310  0.09850  0.25420  Biso   1.000  C
  H135     1.0000 0.81520  0.09980  0.23640  Biso   1.000  H
  C108     1.0000 0.90710  0.06070  0.21020  Biso   1.000  C
  H136     1.0000 0.87030  0.03750  0.16280  Biso   1.000  H
  Tb24     1.0000 0.07570  0.97560  0.13080  Biso   1.000  Tb
