data_image0
_cell_length_a       26.0852
_cell_length_b       26.0852
_cell_length_c       17.6308
_cell_angle_alpha    90
_cell_angle_beta     90
_cell_angle_gamma    90

_symmetry_space_group_name_H-M    "P 1"
_symmetry_int_tables_number       1

loop_
  _symmetry_equiv_pos_as_xyz
  'x, y, z'

loop_
  _atom_site_label
  _atom_site_occupancy
  _atom_site_fract_x
  _atom_site_fract_y
  _atom_site_fract_z
  _atom_site_thermal_displace_type
  _atom_site_B_iso_or_equiv
  _atom_site_type_symbol
  Zn1      1.0000 0.76106  0.25144  0.16745  Biso   1.000  Zn
  O1       1.0000 0.67739  0.25725  0.29624  Biso   1.000  O
  O2       1.0000 0.68350  0.25309  0.17059  Biso   1.000  O
  O3       1.0000 0.32918  0.24029  0.32825  Biso   1.000  O
  O4       1.0000 0.33502  0.24645  0.20323  Biso   1.000  O
  O5       1.0000 0.77717  0.23574  0.06160  Biso   1.000  O
  C1       1.0000 0.35368  0.24402  0.26813  Biso   1.000  C
  C2       1.0000 0.65889  0.25442  0.23111  Biso   1.000  C
  C3       1.0000 0.60129  0.25361  0.22484  Biso   1.000  C
  C4       1.0000 0.57738  0.25400  0.15376  Biso   1.000  C
  H1       1.0000 0.59780  0.25540  0.10920  Biso   1.000  H
  C5       1.0000 0.52550  0.25239  0.14755  Biso   1.000  C
  H2       1.0000 0.51000  0.25230  0.09880  Biso   1.000  H
  C6       1.0000 0.49433  0.25083  0.21355  Biso   1.000  C
  C7       1.0000 0.44009  0.24836  0.20961  Biso   1.000  C
  H3       1.0000 0.42370  0.24810  0.16150  Biso   1.000  H
  C8       1.0000 0.41107  0.24633  0.27361  Biso   1.000  C
  C9       1.0000 0.43500  0.24797  0.34531  Biso   1.000  C
  H4       1.0000 0.41460  0.24780  0.39000  Biso   1.000  H
  C10      1.0000 0.48732  0.24980  0.35125  Biso   1.000  C
  H5       1.0000 0.50300  0.25050  0.39990  Biso   1.000  H
  C11      1.0000 0.51797  0.25062  0.28563  Biso   1.000  C
  C12      1.0000 0.57233  0.25265  0.28939  Biso   1.000  C
  H6       1.0000 0.58880  0.25330  0.33750  Biso   1.000  H
  H7       1.0000 0.70920  0.30090  0.05240  Biso   1.000  H
  H8       1.0000 0.68930  0.28070  0.97180  Biso   1.000  H
  H9       1.0000 0.73230  0.32430  0.97580  Biso   1.000  H
  Zn2      1.0000 0.23894  0.74856  0.16745  Biso   1.000  Zn
  O6       1.0000 0.32261  0.74275  0.29624  Biso   1.000  O
  O7       1.0000 0.31650  0.74691  0.17059  Biso   1.000  O
  O8       1.0000 0.67082  0.75971  0.32825  Biso   1.000  O
  O9       1.0000 0.66498  0.75355  0.20323  Biso   1.000  O
  O10      1.0000 0.22283  0.76426  0.06160  Biso   1.000  O
  C13      1.0000 0.64632  0.75598  0.26813  Biso   1.000  C
  C14      1.0000 0.34111  0.74558  0.23111  Biso   1.000  C
  C15      1.0000 0.39871  0.74639  0.22484  Biso   1.000  C
  C16      1.0000 0.42262  0.74600  0.15376  Biso   1.000  C
  H10      1.0000 0.40220  0.74460  0.10920  Biso   1.000  H
  C17      1.0000 0.47450  0.74761  0.14755  Biso   1.000  C
  H11      1.0000 0.49000  0.74770  0.09880  Biso   1.000  H
  C18      1.0000 0.50567  0.74917  0.21355  Biso   1.000  C
  C19      1.0000 0.55991  0.75164  0.20961  Biso   1.000  C
  H12      1.0000 0.57630  0.75190  0.16150  Biso   1.000  H
  C20      1.0000 0.58893  0.75367  0.27361  Biso   1.000  C
  C21      1.0000 0.56500  0.75203  0.34531  Biso   1.000  C
  H13      1.0000 0.58540  0.75220  0.39000  Biso   1.000  H
  C22      1.0000 0.51268  0.75020  0.35125  Biso   1.000  C
  H14      1.0000 0.49700  0.74950  0.39990  Biso   1.000  H
  C23      1.0000 0.48203  0.74938  0.28563  Biso   1.000  C
  C24      1.0000 0.42767  0.74735  0.28939  Biso   1.000  C
  H15      1.0000 0.41120  0.74670  0.33750  Biso   1.000  H
  H16      1.0000 0.29080  0.69910  0.05240  Biso   1.000  H
  H17      1.0000 0.31070  0.71930  0.97180  Biso   1.000  H
  H18      1.0000 0.26770  0.67570  0.97580  Biso   1.000  H
  Zn3      1.0000 0.74856  0.76106  0.66745  Biso   1.000  Zn
  O11      1.0000 0.74275  0.67739  0.79624  Biso   1.000  O
  O12      1.0000 0.74691  0.68350  0.67059  Biso   1.000  O
  O13      1.0000 0.75971  0.32918  0.82825  Biso   1.000  O
  O14      1.0000 0.75355  0.33502  0.70323  Biso   1.000  O
  O15      1.0000 0.76426  0.77717  0.56160  Biso   1.000  O
  C25      1.0000 0.75598  0.35368  0.76813  Biso   1.000  C
  C26      1.0000 0.74558  0.65889  0.73111  Biso   1.000  C
  C27      1.0000 0.74639  0.60129  0.72484  Biso   1.000  C
  C28      1.0000 0.74600  0.57738  0.65376  Biso   1.000  C
  H19      1.0000 0.74460  0.59780  0.60920  Biso   1.000  H
  C29      1.0000 0.74761  0.52550  0.64755  Biso   1.000  C
  H20      1.0000 0.74770  0.51000  0.59880  Biso   1.000  H
  C30      1.0000 0.74917  0.49433  0.71355  Biso   1.000  C
  C31      1.0000 0.75164  0.44009  0.70961  Biso   1.000  C
  H21      1.0000 0.75190  0.42370  0.66150  Biso   1.000  H
  C32      1.0000 0.75367  0.41107  0.77361  Biso   1.000  C
  C33      1.0000 0.75203  0.43500  0.84531  Biso   1.000  C
  H22      1.0000 0.75220  0.41460  0.89000  Biso   1.000  H
  C34      1.0000 0.75020  0.48732  0.85125  Biso   1.000  C
  H23      1.0000 0.74950  0.50300  0.89990  Biso   1.000  H
  C35      1.0000 0.74938  0.51797  0.78563  Biso   1.000  C
  C36      1.0000 0.74735  0.57233  0.78939  Biso   1.000  C
  H24      1.0000 0.74670  0.58880  0.83750  Biso   1.000  H
  H25      1.0000 0.69910  0.70920  0.55240  Biso   1.000  H
  H26      1.0000 0.71930  0.68930  0.47180  Biso   1.000  H
  H27      1.0000 0.67570  0.73230  0.47580  Biso   1.000  H
  Zn4      1.0000 0.25144  0.23894  0.66745  Biso   1.000  Zn
  O16      1.0000 0.25725  0.32261  0.79624  Biso   1.000  O
  O17      1.0000 0.25309  0.31650  0.67059  Biso   1.000  O
  O18      1.0000 0.24029  0.67082  0.82825  Biso   1.000  O
  O19      1.0000 0.24645  0.66498  0.70323  Biso   1.000  O
  O20      1.0000 0.23574  0.22283  0.56160  Biso   1.000  O
  C37      1.0000 0.24402  0.64632  0.76813  Biso   1.000  C
  C38      1.0000 0.25442  0.34111  0.73111  Biso   1.000  C
  C39      1.0000 0.25361  0.39871  0.72484  Biso   1.000  C
  C40      1.0000 0.25400  0.42262  0.65376  Biso   1.000  C
  H28      1.0000 0.25540  0.40220  0.60920  Biso   1.000  H
  C41      1.0000 0.25239  0.47450  0.64755  Biso   1.000  C
  H29      1.0000 0.25230  0.49000  0.59880  Biso   1.000  H
  C42      1.0000 0.25083  0.50567  0.71355  Biso   1.000  C
  C43      1.0000 0.24836  0.55991  0.70961  Biso   1.000  C
  H30      1.0000 0.24810  0.57630  0.66150  Biso   1.000  H
  C44      1.0000 0.24633  0.58893  0.77361  Biso   1.000  C
  C45      1.0000 0.24797  0.56500  0.84531  Biso   1.000  C
  H31      1.0000 0.24780  0.58540  0.89000  Biso   1.000  H
  C46      1.0000 0.24980  0.51268  0.85125  Biso   1.000  C
  H32      1.0000 0.25050  0.49700  0.89990  Biso   1.000  H
  C47      1.0000 0.25062  0.48203  0.78563  Biso   1.000  C
  C48      1.0000 0.25265  0.42767  0.78939  Biso   1.000  C
  H33      1.0000 0.25330  0.41120  0.83750  Biso   1.000  H
  H34      1.0000 0.30090  0.29080  0.55240  Biso   1.000  H
  H35      1.0000 0.28070  0.31070  0.47180  Biso   1.000  H
  H36      1.0000 0.32430  0.26770  0.47580  Biso   1.000  H
  Zn5      1.0000 0.73894  0.75144  0.83255  Biso   1.000  Zn
  O21      1.0000 0.82261  0.75725  0.70376  Biso   1.000  O
  O22      1.0000 0.81650  0.75309  0.82941  Biso   1.000  O
  O23      1.0000 0.17082  0.74029  0.67175  Biso   1.000  O
  O24      1.0000 0.16498  0.74645  0.79677  Biso   1.000  O
  O25      1.0000 0.72283  0.73574  0.93840  Biso   1.000  O
  C49      1.0000 0.14632  0.74402  0.73187  Biso   1.000  C
  C50      1.0000 0.84111  0.75442  0.76889  Biso   1.000  C
  C51      1.0000 0.89871  0.75361  0.77516  Biso   1.000  C
  C52      1.0000 0.92262  0.75400  0.84624  Biso   1.000  C
  H37      1.0000 0.90220  0.75540  0.89080  Biso   1.000  H
  C53      1.0000 0.97450  0.75239  0.85245  Biso   1.000  C
  H38      1.0000 0.99000  0.75230  0.90120  Biso   1.000  H
  C54      1.0000 0.00567  0.75083  0.78645  Biso   1.000  C
  C55      1.0000 0.05991  0.74836  0.79039  Biso   1.000  C
  H39      1.0000 0.07630  0.74810  0.83850  Biso   1.000  H
  C56      1.0000 0.08893  0.74633  0.72639  Biso   1.000  C
  C57      1.0000 0.06500  0.74797  0.65469  Biso   1.000  C
  H40      1.0000 0.08540  0.74780  0.61000  Biso   1.000  H
  C58      1.0000 0.01268  0.74980  0.64875  Biso   1.000  C
  H41      1.0000 0.99700  0.75050  0.60010  Biso   1.000  H
  C59      1.0000 0.98203  0.75062  0.71437  Biso   1.000  C
  C60      1.0000 0.92767  0.75265  0.71061  Biso   1.000  C
  H42      1.0000 0.91120  0.75330  0.66250  Biso   1.000  H
  H43      1.0000 0.79080  0.80090  0.94760  Biso   1.000  H
  H44      1.0000 0.81070  0.78070  0.02820  Biso   1.000  H
  H45      1.0000 0.76770  0.82430  0.02420  Biso   1.000  H
  Zn6      1.0000 0.26106  0.24856  0.83255  Biso   1.000  Zn
  O26      1.0000 0.17739  0.24275  0.70376  Biso   1.000  O
  O27      1.0000 0.18350  0.24691  0.82941  Biso   1.000  O
  O28      1.0000 0.82918  0.25971  0.67175  Biso   1.000  O
  O29      1.0000 0.83502  0.25355  0.79677  Biso   1.000  O
  O30      1.0000 0.27717  0.26426  0.93840  Biso   1.000  O
  C61      1.0000 0.85368  0.25598  0.73187  Biso   1.000  C
  C62      1.0000 0.15889  0.24558  0.76889  Biso   1.000  C
  C63      1.0000 0.10129  0.24639  0.77516  Biso   1.000  C
  C64      1.0000 0.07738  0.24600  0.84624  Biso   1.000  C
  H46      1.0000 0.09780  0.24460  0.89080  Biso   1.000  H
  C65      1.0000 0.02550  0.24761  0.85245  Biso   1.000  C
  H47      1.0000 0.01000  0.24770  0.90120  Biso   1.000  H
  C66      1.0000 0.99433  0.24917  0.78645  Biso   1.000  C
  C67      1.0000 0.94009  0.25164  0.79039  Biso   1.000  C
  H48      1.0000 0.92370  0.25190  0.83850  Biso   1.000  H
  C68      1.0000 0.91107  0.25367  0.72639  Biso   1.000  C
  C69      1.0000 0.93500  0.25203  0.65469  Biso   1.000  C
  H49      1.0000 0.91460  0.25220  0.61000  Biso   1.000  H
  C70      1.0000 0.98732  0.25020  0.64875  Biso   1.000  C
  H50      1.0000 0.00300  0.24950  0.60010  Biso   1.000  H
  C71      1.0000 0.01797  0.24938  0.71437  Biso   1.000  C
  C72      1.0000 0.07233  0.24735  0.71061  Biso   1.000  C
  H51      1.0000 0.08880  0.24670  0.66250  Biso   1.000  H
  H52      1.0000 0.20920  0.19910  0.94760  Biso   1.000  H
  H53      1.0000 0.18930  0.21930  0.02820  Biso   1.000  H
  H54      1.0000 0.23230  0.17570  0.02420  Biso   1.000  H
  Zn7      1.0000 0.75144  0.26106  0.33255  Biso   1.000  Zn
  O31      1.0000 0.75725  0.17739  0.20376  Biso   1.000  O
  O32      1.0000 0.75309  0.18350  0.32941  Biso   1.000  O
  O33      1.0000 0.74029  0.82918  0.17175  Biso   1.000  O
  O34      1.0000 0.74645  0.83502  0.29677  Biso   1.000  O
  O35      1.0000 0.73574  0.27717  0.43840  Biso   1.000  O
  C73      1.0000 0.74402  0.85368  0.23187  Biso   1.000  C
  C74      1.0000 0.75442  0.15889  0.26889  Biso   1.000  C
  C75      1.0000 0.75361  0.10129  0.27516  Biso   1.000  C
  C76      1.0000 0.75400  0.07738  0.34624  Biso   1.000  C
  H55      1.0000 0.75540  0.09780  0.39080  Biso   1.000  H
  C77      1.0000 0.75239  0.02550  0.35245  Biso   1.000  C
  H56      1.0000 0.75230  0.01000  0.40120  Biso   1.000  H
  C78      1.0000 0.75083  0.99433  0.28645  Biso   1.000  C
  C79      1.0000 0.74836  0.94009  0.29039  Biso   1.000  C
  H57      1.0000 0.74810  0.92370  0.33850  Biso   1.000  H
  C80      1.0000 0.74633  0.91107  0.22639  Biso   1.000  C
  C81      1.0000 0.74797  0.93500  0.15469  Biso   1.000  C
  H58      1.0000 0.74780  0.91460  0.11000  Biso   1.000  H
  C82      1.0000 0.74980  0.98732  0.14875  Biso   1.000  C
  H59      1.0000 0.75050  0.00300  0.10010  Biso   1.000  H
  C83      1.0000 0.75062  0.01797  0.21437  Biso   1.000  C
  C84      1.0000 0.75265  0.07233  0.21061  Biso   1.000  C
  H60      1.0000 0.75330  0.08880  0.16250  Biso   1.000  H
  H61      1.0000 0.80090  0.20920  0.44760  Biso   1.000  H
  H62      1.0000 0.78070  0.18930  0.52820  Biso   1.000  H
  H63      1.0000 0.82430  0.23230  0.52420  Biso   1.000  H
  Zn8      1.0000 0.24856  0.73894  0.33255  Biso   1.000  Zn
  O36      1.0000 0.24275  0.82261  0.20376  Biso   1.000  O
  O37      1.0000 0.24691  0.81650  0.32941  Biso   1.000  O
  O38      1.0000 0.25971  0.17082  0.17175  Biso   1.000  O
  O39      1.0000 0.25355  0.16498  0.29677  Biso   1.000  O
  O40      1.0000 0.26426  0.72283  0.43840  Biso   1.000  O
  C85      1.0000 0.25598  0.14632  0.23187  Biso   1.000  C
  C86      1.0000 0.24558  0.84111  0.26889  Biso   1.000  C
  C87      1.0000 0.24639  0.89871  0.27516  Biso   1.000  C
  C88      1.0000 0.24600  0.92262  0.34624  Biso   1.000  C
  H64      1.0000 0.24460  0.90220  0.39080  Biso   1.000  H
  C89      1.0000 0.24761  0.97450  0.35245  Biso   1.000  C
  H65      1.0000 0.24770  0.99000  0.40120  Biso   1.000  H
  C90      1.0000 0.24917  0.00567  0.28645  Biso   1.000  C
  C91      1.0000 0.25164  0.05991  0.29039  Biso   1.000  C
  H66      1.0000 0.25190  0.07630  0.33850  Biso   1.000  H
  C92      1.0000 0.25367  0.08893  0.22639  Biso   1.000  C
  C93      1.0000 0.25203  0.06500  0.15469  Biso   1.000  C
  H67      1.0000 0.25220  0.08540  0.11000  Biso   1.000  H
  C94      1.0000 0.25020  0.01268  0.14875  Biso   1.000  C
  H68      1.0000 0.24950  0.99700  0.10010  Biso   1.000  H
  C95      1.0000 0.24938  0.98203  0.21437  Biso   1.000  C
  C96      1.0000 0.24735  0.92767  0.21061  Biso   1.000  C
  H69      1.0000 0.24670  0.91120  0.16250  Biso   1.000  H
  H70      1.0000 0.19910  0.79080  0.44760  Biso   1.000  H
  H71      1.0000 0.21930  0.81070  0.52820  Biso   1.000  H
  H72      1.0000 0.17570  0.76770  0.52420  Biso   1.000  H
  Zn9      1.0000 0.23894  0.74856  0.83255  Biso   1.000  Zn
  O41      1.0000 0.32261  0.74275  0.70376  Biso   1.000  O
  O42      1.0000 0.31650  0.74691  0.82941  Biso   1.000  O
  O43      1.0000 0.67082  0.75971  0.67175  Biso   1.000  O
  O44      1.0000 0.66498  0.75355  0.79677  Biso   1.000  O
  O45      1.0000 0.22283  0.76426  0.93840  Biso   1.000  O
  C97      1.0000 0.64632  0.75598  0.73187  Biso   1.000  C
  C98      1.0000 0.34111  0.74558  0.76889  Biso   1.000  C
  C99      1.0000 0.39871  0.74639  0.77516  Biso   1.000  C
  C100     1.0000 0.42262  0.74600  0.84624  Biso   1.000  C
  H73      1.0000 0.40220  0.74460  0.89080  Biso   1.000  H
  C101     1.0000 0.47450  0.74761  0.85245  Biso   1.000  C
  H74      1.0000 0.49000  0.74770  0.90120  Biso   1.000  H
  C102     1.0000 0.50567  0.74917  0.78645  Biso   1.000  C
  C103     1.0000 0.55991  0.75164  0.79039  Biso   1.000  C
  H75      1.0000 0.57630  0.75190  0.83850  Biso   1.000  H
  C104     1.0000 0.58893  0.75367  0.72639  Biso   1.000  C
  C105     1.0000 0.56500  0.75203  0.65469  Biso   1.000  C
  H76      1.0000 0.58540  0.75220  0.61000  Biso   1.000  H
  C106     1.0000 0.51268  0.75020  0.64875  Biso   1.000  C
  H77      1.0000 0.49700  0.74950  0.60010  Biso   1.000  H
  C107     1.0000 0.48203  0.74938  0.71437  Biso   1.000  C
  C108     1.0000 0.42767  0.74735  0.71061  Biso   1.000  C
  H78      1.0000 0.41120  0.74670  0.66250  Biso   1.000  H
  H79      1.0000 0.29080  0.69910  0.94760  Biso   1.000  H
  H80      1.0000 0.31070  0.71930  0.02820  Biso   1.000  H
  H81      1.0000 0.26770  0.67570  0.02420  Biso   1.000  H
  Zn10     1.0000 0.76106  0.25144  0.83255  Biso   1.000  Zn
  O46      1.0000 0.67739  0.25725  0.70376  Biso   1.000  O
  O47      1.0000 0.68350  0.25309  0.82941  Biso   1.000  O
  O48      1.0000 0.32918  0.24029  0.67175  Biso   1.000  O
  O49      1.0000 0.33502  0.24645  0.79677  Biso   1.000  O
  O50      1.0000 0.77717  0.23574  0.93840  Biso   1.000  O
  C109     1.0000 0.35368  0.24402  0.73187  Biso   1.000  C
  C110     1.0000 0.65889  0.25442  0.76889  Biso   1.000  C
  C111     1.0000 0.60129  0.25361  0.77516  Biso   1.000  C
  C112     1.0000 0.57738  0.25400  0.84624  Biso   1.000  C
  H82      1.0000 0.59780  0.25540  0.89080  Biso   1.000  H
  C113     1.0000 0.52550  0.25239  0.85245  Biso   1.000  C
  H83      1.0000 0.51000  0.25230  0.90120  Biso   1.000  H
  C114     1.0000 0.49433  0.25083  0.78645  Biso   1.000  C
  C115     1.0000 0.44009  0.24836  0.79039  Biso   1.000  C
  H84      1.0000 0.42370  0.24810  0.83850  Biso   1.000  H
  C116     1.0000 0.41107  0.24633  0.72639  Biso   1.000  C
  C117     1.0000 0.43500  0.24797  0.65469  Biso   1.000  C
  H85      1.0000 0.41460  0.24780  0.61000  Biso   1.000  H
  C118     1.0000 0.48732  0.24980  0.64875  Biso   1.000  C
  H86      1.0000 0.50300  0.25050  0.60010  Biso   1.000  H
  C119     1.0000 0.51797  0.25062  0.71437  Biso   1.000  C
  C120     1.0000 0.57233  0.25265  0.71061  Biso   1.000  C
  H87      1.0000 0.58880  0.25330  0.66250  Biso   1.000  H
  H88      1.0000 0.70920  0.30090  0.94760  Biso   1.000  H
  H89      1.0000 0.68930  0.28070  0.02820  Biso   1.000  H
  H90      1.0000 0.73230  0.32430  0.02420  Biso   1.000  H
  Zn11     1.0000 0.25144  0.23894  0.33255  Biso   1.000  Zn
  O51      1.0000 0.25725  0.32261  0.20376  Biso   1.000  O
  O52      1.0000 0.25309  0.31650  0.32941  Biso   1.000  O
  O53      1.0000 0.24029  0.67082  0.17175  Biso   1.000  O
  O54      1.0000 0.24645  0.66498  0.29677  Biso   1.000  O
  O55      1.0000 0.23574  0.22283  0.43840  Biso   1.000  O
  C121     1.0000 0.24402  0.64632  0.23187  Biso   1.000  C
  C122     1.0000 0.25442  0.34111  0.26889  Biso   1.000  C
  C123     1.0000 0.25361  0.39871  0.27516  Biso   1.000  C
  C124     1.0000 0.25400  0.42262  0.34624  Biso   1.000  C
  H91      1.0000 0.25540  0.40220  0.39080  Biso   1.000  H
  C125     1.0000 0.25239  0.47450  0.35245  Biso   1.000  C
  H92      1.0000 0.25230  0.49000  0.40120  Biso   1.000  H
  C126     1.0000 0.25083  0.50567  0.28645  Biso   1.000  C
  C127     1.0000 0.24836  0.55991  0.29039  Biso   1.000  C
  H93      1.0000 0.24810  0.57630  0.33850  Biso   1.000  H
  C128     1.0000 0.24633  0.58893  0.22639  Biso   1.000  C
  C129     1.0000 0.24797  0.56500  0.15469  Biso   1.000  C
  H94      1.0000 0.24780  0.58540  0.11000  Biso   1.000  H
  C130     1.0000 0.24980  0.51268  0.14875  Biso   1.000  C
  H95      1.0000 0.25050  0.49700  0.10010  Biso   1.000  H
  C131     1.0000 0.25062  0.48203  0.21437  Biso   1.000  C
  C132     1.0000 0.25265  0.42767  0.21061  Biso   1.000  C
  H96      1.0000 0.25330  0.41120  0.16250  Biso   1.000  H
  H97      1.0000 0.30090  0.29080  0.44760  Biso   1.000  H
  H98      1.0000 0.28070  0.31070  0.52820  Biso   1.000  H
  H99      1.0000 0.32430  0.26770  0.52420  Biso   1.000  H
  Zn12     1.0000 0.74856  0.76106  0.33255  Biso   1.000  Zn
  O56      1.0000 0.74275  0.67739  0.20376  Biso   1.000  O
  O57      1.0000 0.74691  0.68350  0.32941  Biso   1.000  O
  O58      1.0000 0.75971  0.32918  0.17175  Biso   1.000  O
  O59      1.0000 0.75355  0.33502  0.29677  Biso   1.000  O
  O60      1.0000 0.76426  0.77717  0.43840  Biso   1.000  O
  C133     1.0000 0.75598  0.35368  0.23187  Biso   1.000  C
  C134     1.0000 0.74558  0.65889  0.26889  Biso   1.000  C
  C135     1.0000 0.74639  0.60129  0.27516  Biso   1.000  C
  C136     1.0000 0.74600  0.57738  0.34624  Biso   1.000  C
  H100     1.0000 0.74460  0.59780  0.39080  Biso   1.000  H
  C137     1.0000 0.74761  0.52550  0.35245  Biso   1.000  C
  H101     1.0000 0.74770  0.51000  0.40120  Biso   1.000  H
  C138     1.0000 0.74917  0.49433  0.28645  Biso   1.000  C
  C139     1.0000 0.75164  0.44009  0.29039  Biso   1.000  C
  H102     1.0000 0.75190  0.42370  0.33850  Biso   1.000  H
  C140     1.0000 0.75367  0.41107  0.22639  Biso   1.000  C
  C141     1.0000 0.75203  0.43500  0.15469  Biso   1.000  C
  H103     1.0000 0.75220  0.41460  0.11000  Biso   1.000  H
  C142     1.0000 0.75020  0.48732  0.14875  Biso   1.000  C
  H104     1.0000 0.74950  0.50300  0.10010  Biso   1.000  H
  C143     1.0000 0.74938  0.51797  0.21437  Biso   1.000  C
  C144     1.0000 0.74735  0.57233  0.21061  Biso   1.000  C
  H105     1.0000 0.74670  0.58880  0.16250  Biso   1.000  H
  H106     1.0000 0.69910  0.70920  0.44760  Biso   1.000  H
  H107     1.0000 0.71930  0.68930  0.52820  Biso   1.000  H
  H108     1.0000 0.67570  0.73230  0.52420  Biso   1.000  H
  Zn13     1.0000 0.26106  0.24856  0.16745  Biso   1.000  Zn
  O61      1.0000 0.17739  0.24275  0.29624  Biso   1.000  O
  O62      1.0000 0.18350  0.24691  0.17059  Biso   1.000  O
  O63      1.0000 0.82918  0.25971  0.32825  Biso   1.000  O
  O64      1.0000 0.83502  0.25355  0.20323  Biso   1.000  O
  O65      1.0000 0.27717  0.26426  0.06160  Biso   1.000  O
  C145     1.0000 0.85368  0.25598  0.26813  Biso   1.000  C
  C146     1.0000 0.15889  0.24558  0.23111  Biso   1.000  C
  C147     1.0000 0.10129  0.24639  0.22484  Biso   1.000  C
  C148     1.0000 0.07738  0.24600  0.15376  Biso   1.000  C
  H109     1.0000 0.09780  0.24460  0.10920  Biso   1.000  H
  C149     1.0000 0.02550  0.24761  0.14755  Biso   1.000  C
  H110     1.0000 0.01000  0.24770  0.09880  Biso   1.000  H
  C150     1.0000 0.99433  0.24917  0.21355  Biso   1.000  C
  C151     1.0000 0.94009  0.25164  0.20961  Biso   1.000  C
  H111     1.0000 0.92370  0.25190  0.16150  Biso   1.000  H
  C152     1.0000 0.91107  0.25367  0.27361  Biso   1.000  C
  C153     1.0000 0.93500  0.25203  0.34531  Biso   1.000  C
  H112     1.0000 0.91460  0.25220  0.39000  Biso   1.000  H
  C154     1.0000 0.98732  0.25020  0.35125  Biso   1.000  C
  H113     1.0000 0.00300  0.24950  0.39990  Biso   1.000  H
  C155     1.0000 0.01797  0.24938  0.28563  Biso   1.000  C
  C156     1.0000 0.07233  0.24735  0.28939  Biso   1.000  C
  H114     1.0000 0.08880  0.24670  0.33750  Biso   1.000  H
  H115     1.0000 0.20920  0.19910  0.05240  Biso   1.000  H
  H116     1.0000 0.18930  0.21930  0.97180  Biso   1.000  H
  H117     1.0000 0.23230  0.17570  0.97580  Biso   1.000  H
  Zn14     1.0000 0.73894  0.75144  0.16745  Biso   1.000  Zn
  O66      1.0000 0.82261  0.75725  0.29624  Biso   1.000  O
  O67      1.0000 0.81650  0.75309  0.17059  Biso   1.000  O
  O68      1.0000 0.17082  0.74029  0.32825  Biso   1.000  O
  O69      1.0000 0.16498  0.74645  0.20323  Biso   1.000  O
  O70      1.0000 0.72283  0.73574  0.06160  Biso   1.000  O
  C157     1.0000 0.14632  0.74402  0.26813  Biso   1.000  C
  C158     1.0000 0.84111  0.75442  0.23111  Biso   1.000  C
  C159     1.0000 0.89871  0.75361  0.22484  Biso   1.000  C
  C160     1.0000 0.92262  0.75400  0.15376  Biso   1.000  C
  H118     1.0000 0.90220  0.75540  0.10920  Biso   1.000  H
  C161     1.0000 0.97450  0.75239  0.14755  Biso   1.000  C
  H119     1.0000 0.99000  0.75230  0.09880  Biso   1.000  H
  C162     1.0000 0.00567  0.75083  0.21355  Biso   1.000  C
  C163     1.0000 0.05991  0.74836  0.20961  Biso   1.000  C
  H120     1.0000 0.07630  0.74810  0.16150  Biso   1.000  H
  C164     1.0000 0.08893  0.74633  0.27361  Biso   1.000  C
  C165     1.0000 0.06500  0.74797  0.34531  Biso   1.000  C
  H121     1.0000 0.08540  0.74780  0.39000  Biso   1.000  H
  C166     1.0000 0.01268  0.74980  0.35125  Biso   1.000  C
  H122     1.0000 0.99700  0.75050  0.39990  Biso   1.000  H
  C167     1.0000 0.98203  0.75062  0.28563  Biso   1.000  C
  C168     1.0000 0.92767  0.75265  0.28939  Biso   1.000  C
  H123     1.0000 0.91120  0.75330  0.33750  Biso   1.000  H
  H124     1.0000 0.79080  0.80090  0.05240  Biso   1.000  H
  H125     1.0000 0.81070  0.78070  0.97180  Biso   1.000  H
  H126     1.0000 0.76770  0.82430  0.97580  Biso   1.000  H
  Zn15     1.0000 0.24856  0.73894  0.66745  Biso   1.000  Zn
  O71      1.0000 0.24275  0.82261  0.79624  Biso   1.000  O
  O72      1.0000 0.24691  0.81650  0.67059  Biso   1.000  O
  O73      1.0000 0.25971  0.17082  0.82825  Biso   1.000  O
  O74      1.0000 0.25355  0.16498  0.70323  Biso   1.000  O
  O75      1.0000 0.26426  0.72283  0.56160  Biso   1.000  O
  C169     1.0000 0.25598  0.14632  0.76813  Biso   1.000  C
  C170     1.0000 0.24558  0.84111  0.73111  Biso   1.000  C
  C171     1.0000 0.24639  0.89871  0.72484  Biso   1.000  C
  C172     1.0000 0.24600  0.92262  0.65376  Biso   1.000  C
  H127     1.0000 0.24460  0.90220  0.60920  Biso   1.000  H
  C173     1.0000 0.24761  0.97450  0.64755  Biso   1.000  C
  H128     1.0000 0.24770  0.99000  0.59880  Biso   1.000  H
  C174     1.0000 0.24917  0.00567  0.71355  Biso   1.000  C
  C175     1.0000 0.25164  0.05991  0.70961  Biso   1.000  C
  H129     1.0000 0.25190  0.07630  0.66150  Biso   1.000  H
  C176     1.0000 0.25367  0.08893  0.77361  Biso   1.000  C
  C177     1.0000 0.25203  0.06500  0.84531  Biso   1.000  C
  H130     1.0000 0.25220  0.08540  0.89000  Biso   1.000  H
  C178     1.0000 0.25020  0.01268  0.85125  Biso   1.000  C
  H131     1.0000 0.24950  0.99700  0.89990  Biso   1.000  H
  C179     1.0000 0.24938  0.98203  0.78563  Biso   1.000  C
  C180     1.0000 0.24735  0.92767  0.78939  Biso   1.000  C
  H132     1.0000 0.24670  0.91120  0.83750  Biso   1.000  H
  H133     1.0000 0.19910  0.79080  0.55240  Biso   1.000  H
  H134     1.0000 0.21930  0.81070  0.47180  Biso   1.000  H
  H135     1.0000 0.17570  0.76770  0.47580  Biso   1.000  H
  Zn16     1.0000 0.75144  0.26106  0.66745  Biso   1.000  Zn
  O76      1.0000 0.75725  0.17739  0.79624  Biso   1.000  O
  O77      1.0000 0.75309  0.18350  0.67059  Biso   1.000  O
  O78      1.0000 0.74029  0.82918  0.82825  Biso   1.000  O
  O79      1.0000 0.74645  0.83502  0.70323  Biso   1.000  O
  O80      1.0000 0.73574  0.27717  0.56160  Biso   1.000  O
  C181     1.0000 0.74402  0.85368  0.76813  Biso   1.000  C
  C182     1.0000 0.75442  0.15889  0.73111  Biso   1.000  C
  C183     1.0000 0.75361  0.10129  0.72484  Biso   1.000  C
  C184     1.0000 0.75400  0.07738  0.65376  Biso   1.000  C
  H136     1.0000 0.75540  0.09780  0.60920  Biso   1.000  H
  C185     1.0000 0.75239  0.02550  0.64755  Biso   1.000  C
  H137     1.0000 0.75230  0.01000  0.59880  Biso   1.000  H
  C186     1.0000 0.75083  0.99433  0.71355  Biso   1.000  C
  C187     1.0000 0.74836  0.94009  0.70961  Biso   1.000  C
  H138     1.0000 0.74810  0.92370  0.66150  Biso   1.000  H
  C188     1.0000 0.74633  0.91107  0.77361  Biso   1.000  C
  C189     1.0000 0.74797  0.93500  0.84531  Biso   1.000  C
  H139     1.0000 0.74780  0.91460  0.89000  Biso   1.000  H
  C190     1.0000 0.74980  0.98732  0.85125  Biso   1.000  C
  H140     1.0000 0.75050  0.00300  0.89990  Biso   1.000  H
  C191     1.0000 0.75062  0.01797  0.78563  Biso   1.000  C
  C192     1.0000 0.75265  0.07233  0.78939  Biso   1.000  C
  H141     1.0000 0.75330  0.08880  0.83750  Biso   1.000  H
  H142     1.0000 0.80090  0.20920  0.55240  Biso   1.000  H
  H143     1.0000 0.78070  0.18930  0.47180  Biso   1.000  H
  H144     1.0000 0.82430  0.23230  0.47580  Biso   1.000  H
  C193     1.0000 0.75983  0.25310  0.00000  Biso   1.000  C
  C194     1.0000 0.71916  0.29316  0.00000  Biso   1.000  C
  C195     1.0000 0.24017  0.74690  0.00000  Biso   1.000  C
  C196     1.0000 0.28084  0.70684  0.00000  Biso   1.000  C
  C197     1.0000 0.74690  0.75983  0.50000  Biso   1.000  C
  C198     1.0000 0.70684  0.71916  0.50000  Biso   1.000  C
  C199     1.0000 0.25310  0.24017  0.50000  Biso   1.000  C
  C200     1.0000 0.29316  0.28084  0.50000  Biso   1.000  C
  C201     1.0000 0.74017  0.75310  0.00000  Biso   1.000  C
  C202     1.0000 0.78084  0.79316  0.00000  Biso   1.000  C
  C203     1.0000 0.25983  0.24690  0.00000  Biso   1.000  C
  C204     1.0000 0.21916  0.20684  0.00000  Biso   1.000  C
  C205     1.0000 0.75310  0.25983  0.50000  Biso   1.000  C
  C206     1.0000 0.79316  0.21916  0.50000  Biso   1.000  C
  C207     1.0000 0.24690  0.74017  0.50000  Biso   1.000  C
  C208     1.0000 0.20684  0.78084  0.50000  Biso   1.000  C
