data_image0
_cell_length_a       23.252
_cell_length_b       13.098
_cell_length_c       20.301
_cell_angle_alpha    90
_cell_angle_beta     114.099
_cell_angle_gamma    90

_symmetry_space_group_name_H-M    "P 1"
_symmetry_int_tables_number       1

loop_
  _symmetry_equiv_pos_as_xyz
  'x, y, z'

loop_
  _atom_site_label
  _atom_site_occupancy
  _atom_site_fract_x
  _atom_site_fract_y
  _atom_site_fract_z
  _atom_site_thermal_displace_type
  _atom_site_B_iso_or_equiv
  _atom_site_type_symbol
  Zn1      1.0000 0.23229  0.29586  0.19195  Biso   1.000  Zn
  Cu1      1.0000 0.19689  0.06447  0.50317  Biso   1.000  Cu
  N1       1.0000 0.27917  0.31040  0.29803  Biso   1.000  N
  N2       1.0000 0.30794  0.36520  0.41163  Biso   1.000  N
  C1       1.0000 0.26521  0.36980  0.34330  Biso   1.000  C
  H1       1.0000 0.22850  0.41110  0.32830  Biso   1.000  H
  C2       1.0000 0.35251  0.29790  0.40981  Biso   1.000  C
  H2       1.0000 0.38940  0.27790  0.45020  Biso   1.000  H
  C3       1.0000 0.33535  0.26440  0.34098  Biso   1.000  C
  H3       1.0000 0.35820  0.21740  0.32520  Biso   1.000  H
  N3       1.0000 0.24848  0.42100  0.14636  Biso   1.000  N
  N4       1.0000 0.27396  0.52060  0.07266  Biso   1.000  N
  C4       1.0000 0.26371  0.42570  0.08943  Biso   1.000  C
  H4       1.0000 0.26690  0.36710  0.06350  Biso   1.000  H
  C5       1.0000 0.24885  0.52180  0.16730  Biso   1.000  C
  H5       1.0000 0.23950  0.54480  0.20630  Biso   1.000  H
  C6       1.0000 0.26467  0.58200  0.12310  Biso   1.000  C
  H6       1.0000 0.26870  0.65420  0.12610  Biso   1.000  H
  N5       1.0000 0.14178  0.27690  0.17194  Biso   1.000  N
  N6       1.0000 0.05484  0.26440  0.19395  Biso   1.000  N
  C7       1.0000 0.11775  0.27020  0.22160  Biso   1.000  C
  H7       1.0000 0.14320  0.26970  0.27200  Biso   1.000  H
  C8       1.0000 0.08966  0.27420  0.10750  Biso   1.000  C
  H8       1.0000 0.09040  0.27720  0.06110  Biso   1.000  H
  C9       1.0000 0.03725  0.26670  0.12040  Biso   1.000  C
  H9       1.0000 0.99530  0.26340  0.08470  Biso   1.000  H
  N7       1.0000 0.07594  0.25270  0.34153  Biso   1.000  N
  N8       1.0000 0.14811  0.17640  0.43890  Biso   1.000  N
  C10      1.0000 0.09751  0.16500  0.37641  Biso   1.000  C
  H10      1.0000 0.07880  0.10060  0.35860  Biso   1.000  H
  C11      1.0000 0.15993  0.27940  0.44372  Biso   1.000  C
  H11      1.0000 0.19320  0.31290  0.48190  Biso   1.000  H
  C12      1.0000 0.11564  0.32570  0.38425  Biso   1.000  C
  H12      1.0000 0.11290  0.39690  0.37430  Biso   1.000  H
  N9       1.0000 0.24104  0.94700  0.56624  Biso   1.000  N
  N10      1.0000 0.25656  0.82010  0.64552  Biso   1.000  N
  C13      1.0000 0.21629  0.88760  0.60139  Biso   1.000  C
  H13      1.0000 0.17370  0.89300  0.59550  Biso   1.000  H
  C14      1.0000 0.31220  0.83790  0.63810  Biso   1.000  C
  H14      1.0000 0.35070  0.80220  0.66250  Biso   1.000  H
  C15      1.0000 0.30254  0.91510  0.59020  Biso   1.000  C
  H15      1.0000 0.33330  0.94270  0.57570  Biso   1.000  H
  H16      1.0000 0.97110  0.66120  0.28680  Biso   1.000  H
  C16      1.0000 0.97630  0.50660  0.28510  Biso   1.000  C
  H17      1.0000 0.95680  0.48400  0.31560  Biso   1.000  H
  C17      1.0000 0.98560  0.60420  0.27090  Biso   1.000  C
  H18      1.0000 0.97200  0.66240  0.28860  Biso   1.000  H
  N11      1.0000 0.98390  0.60680  0.27110  Biso   1.000  N
  Zn2      1.0000 0.73229  0.79586  0.19195  Biso   1.000  Zn
  Cu2      1.0000 0.69689  0.56447  0.50317  Biso   1.000  Cu
  N12      1.0000 0.77917  0.81040  0.29803  Biso   1.000  N
  N13      1.0000 0.80794  0.86520  0.41163  Biso   1.000  N
  C18      1.0000 0.76521  0.86980  0.34330  Biso   1.000  C
  H19      1.0000 0.72850  0.91110  0.32830  Biso   1.000  H
  C19      1.0000 0.85251  0.79790  0.40981  Biso   1.000  C
  H20      1.0000 0.88940  0.77790  0.45020  Biso   1.000  H
  C20      1.0000 0.83535  0.76440  0.34098  Biso   1.000  C
  H21      1.0000 0.85820  0.71740  0.32520  Biso   1.000  H
  N14      1.0000 0.74848  0.92100  0.14636  Biso   1.000  N
  N15      1.0000 0.77396  0.02060  0.07266  Biso   1.000  N
  C21      1.0000 0.76371  0.92570  0.08943  Biso   1.000  C
  H22      1.0000 0.76690  0.86710  0.06350  Biso   1.000  H
  C22      1.0000 0.74885  0.02180  0.16730  Biso   1.000  C
  H23      1.0000 0.73950  0.04480  0.20630  Biso   1.000  H
  C23      1.0000 0.76467  0.08200  0.12310  Biso   1.000  C
  H24      1.0000 0.76870  0.15420  0.12610  Biso   1.000  H
  N16      1.0000 0.64178  0.77690  0.17194  Biso   1.000  N
  N17      1.0000 0.55484  0.76440  0.19395  Biso   1.000  N
  C24      1.0000 0.61775  0.77020  0.22160  Biso   1.000  C
  H25      1.0000 0.64320  0.76970  0.27200  Biso   1.000  H
  C25      1.0000 0.58966  0.77420  0.10750  Biso   1.000  C
  H26      1.0000 0.59040  0.77720  0.06110  Biso   1.000  H
  C26      1.0000 0.53725  0.76670  0.12040  Biso   1.000  C
  H27      1.0000 0.49530  0.76340  0.08470  Biso   1.000  H
  N18      1.0000 0.57594  0.75270  0.34153  Biso   1.000  N
  N19      1.0000 0.64811  0.67640  0.43890  Biso   1.000  N
  C27      1.0000 0.59751  0.66500  0.37641  Biso   1.000  C
  H28      1.0000 0.57880  0.60060  0.35860  Biso   1.000  H
  C28      1.0000 0.65993  0.77940  0.44372  Biso   1.000  C
  H29      1.0000 0.69320  0.81290  0.48190  Biso   1.000  H
  C29      1.0000 0.61564  0.82570  0.38425  Biso   1.000  C
  H30      1.0000 0.61290  0.89690  0.37430  Biso   1.000  H
  N20      1.0000 0.74104  0.44700  0.56624  Biso   1.000  N
  N21      1.0000 0.75656  0.32010  0.64552  Biso   1.000  N
  C30      1.0000 0.71629  0.38760  0.60139  Biso   1.000  C
  H31      1.0000 0.67370  0.39300  0.59550  Biso   1.000  H
  C31      1.0000 0.81220  0.33790  0.63810  Biso   1.000  C
  H32      1.0000 0.85070  0.30220  0.66250  Biso   1.000  H
  C32      1.0000 0.80254  0.41510  0.59020  Biso   1.000  C
  H33      1.0000 0.83330  0.44270  0.57570  Biso   1.000  H
  H34      1.0000 0.47110  0.16120  0.28680  Biso   1.000  H
  C33      1.0000 0.47630  0.00660  0.28510  Biso   1.000  C
  H35      1.0000 0.45680  0.98400  0.31560  Biso   1.000  H
  C34      1.0000 0.48560  0.10420  0.27090  Biso   1.000  C
  H36      1.0000 0.47200  0.16240  0.28860  Biso   1.000  H
  N22      1.0000 0.48390  0.10680  0.27110  Biso   1.000  N
  Zn3      1.0000 0.76771  0.29586  0.30805  Biso   1.000  Zn
  Cu3      1.0000 0.80311  0.06447  0.99683  Biso   1.000  Cu
  N23      1.0000 0.72083  0.31040  0.20197  Biso   1.000  N
  N24      1.0000 0.69206  0.36520  0.08837  Biso   1.000  N
  C35      1.0000 0.73479  0.36980  0.15670  Biso   1.000  C
  H37      1.0000 0.77150  0.41110  0.17170  Biso   1.000  H
  C36      1.0000 0.64749  0.29790  0.09019  Biso   1.000  C
  H38      1.0000 0.61060  0.27790  0.04980  Biso   1.000  H
  C37      1.0000 0.66465  0.26440  0.15902  Biso   1.000  C
  H39      1.0000 0.64180  0.21740  0.17480  Biso   1.000  H
  N25      1.0000 0.75152  0.42100  0.35364  Biso   1.000  N
  N26      1.0000 0.72604  0.52060  0.42734  Biso   1.000  N
  C38      1.0000 0.73629  0.42570  0.41057  Biso   1.000  C
  H40      1.0000 0.73310  0.36710  0.43650  Biso   1.000  H
  C39      1.0000 0.75115  0.52180  0.33270  Biso   1.000  C
  H41      1.0000 0.76050  0.54480  0.29370  Biso   1.000  H
  C40      1.0000 0.73533  0.58200  0.37690  Biso   1.000  C
  H42      1.0000 0.73130  0.65420  0.37390  Biso   1.000  H
  N27      1.0000 0.85822  0.27690  0.32806  Biso   1.000  N
  N28      1.0000 0.94516  0.26440  0.30605  Biso   1.000  N
  C41      1.0000 0.88225  0.27020  0.27840  Biso   1.000  C
  H43      1.0000 0.85680  0.26970  0.22800  Biso   1.000  H
  C42      1.0000 0.91034  0.27420  0.39250  Biso   1.000  C
  H44      1.0000 0.90960  0.27720  0.43890  Biso   1.000  H
  C43      1.0000 0.96275  0.26670  0.37960  Biso   1.000  C
  H45      1.0000 0.00470  0.26340  0.41530  Biso   1.000  H
  N29      1.0000 0.92406  0.25270  0.15847  Biso   1.000  N
  N30      1.0000 0.85189  0.17640  0.06110  Biso   1.000  N
  C44      1.0000 0.90249  0.16500  0.12359  Biso   1.000  C
  H46      1.0000 0.92120  0.10060  0.14140  Biso   1.000  H
  C45      1.0000 0.84007  0.27940  0.05628  Biso   1.000  C
  H47      1.0000 0.80680  0.31290  0.01810  Biso   1.000  H
  C46      1.0000 0.88436  0.32570  0.11575  Biso   1.000  C
  H48      1.0000 0.88710  0.39690  0.12570  Biso   1.000  H
  N31      1.0000 0.75896  0.94700  0.93376  Biso   1.000  N
  N32      1.0000 0.74344  0.82010  0.85448  Biso   1.000  N
  C47      1.0000 0.78371  0.88760  0.89861  Biso   1.000  C
  H49      1.0000 0.82630  0.89300  0.90450  Biso   1.000  H
  C48      1.0000 0.68780  0.83790  0.86190  Biso   1.000  C
  H50      1.0000 0.64930  0.80220  0.83750  Biso   1.000  H
  C49      1.0000 0.69746  0.91510  0.90980  Biso   1.000  C
  H51      1.0000 0.66670  0.94270  0.92430  Biso   1.000  H
  H52      1.0000 0.02890  0.66120  0.21320  Biso   1.000  H
  C50      1.0000 0.02370  0.50660  0.21490  Biso   1.000  C
  H53      1.0000 0.04320  0.48400  0.18440  Biso   1.000  H
  C51      1.0000 0.01440  0.60420  0.22910  Biso   1.000  C
  H54      1.0000 0.02800  0.66240  0.21140  Biso   1.000  H
  N33      1.0000 0.01610  0.60680  0.22890  Biso   1.000  N
  Zn4      1.0000 0.26771  0.79586  0.30805  Biso   1.000  Zn
  Cu4      1.0000 0.30311  0.56447  0.99683  Biso   1.000  Cu
  N34      1.0000 0.22083  0.81040  0.20197  Biso   1.000  N
  N35      1.0000 0.19206  0.86520  0.08837  Biso   1.000  N
  C52      1.0000 0.23479  0.86980  0.15670  Biso   1.000  C
  H55      1.0000 0.27150  0.91110  0.17170  Biso   1.000  H
  C53      1.0000 0.14749  0.79790  0.09019  Biso   1.000  C
  H56      1.0000 0.11060  0.77790  0.04980  Biso   1.000  H
  C54      1.0000 0.16465  0.76440  0.15902  Biso   1.000  C
  H57      1.0000 0.14180  0.71740  0.17480  Biso   1.000  H
  N36      1.0000 0.25152  0.92100  0.35364  Biso   1.000  N
  N37      1.0000 0.22604  0.02060  0.42734  Biso   1.000  N
  C55      1.0000 0.23629  0.92570  0.41057  Biso   1.000  C
  H58      1.0000 0.23310  0.86710  0.43650  Biso   1.000  H
  C56      1.0000 0.25115  0.02180  0.33270  Biso   1.000  C
  H59      1.0000 0.26050  0.04480  0.29370  Biso   1.000  H
  C57      1.0000 0.23533  0.08200  0.37690  Biso   1.000  C
  H60      1.0000 0.23130  0.15420  0.37390  Biso   1.000  H
  N38      1.0000 0.35822  0.77690  0.32806  Biso   1.000  N
  N39      1.0000 0.44516  0.76440  0.30605  Biso   1.000  N
  C58      1.0000 0.38225  0.77020  0.27840  Biso   1.000  C
  H61      1.0000 0.35680  0.76970  0.22800  Biso   1.000  H
  C59      1.0000 0.41034  0.77420  0.39250  Biso   1.000  C
  H62      1.0000 0.40960  0.77720  0.43890  Biso   1.000  H
  C60      1.0000 0.46275  0.76670  0.37960  Biso   1.000  C
  H63      1.0000 0.50470  0.76340  0.41530  Biso   1.000  H
  N40      1.0000 0.42406  0.75270  0.15847  Biso   1.000  N
  N41      1.0000 0.35189  0.67640  0.06110  Biso   1.000  N
  C61      1.0000 0.40249  0.66500  0.12359  Biso   1.000  C
  H64      1.0000 0.42120  0.60060  0.14140  Biso   1.000  H
  C62      1.0000 0.34007  0.77940  0.05628  Biso   1.000  C
  H65      1.0000 0.30680  0.81290  0.01810  Biso   1.000  H
  C63      1.0000 0.38436  0.82570  0.11575  Biso   1.000  C
  H66      1.0000 0.38710  0.89690  0.12570  Biso   1.000  H
  N42      1.0000 0.25896  0.44700  0.93376  Biso   1.000  N
  N43      1.0000 0.24344  0.32010  0.85448  Biso   1.000  N
  C64      1.0000 0.28371  0.38760  0.89861  Biso   1.000  C
  H67      1.0000 0.32630  0.39300  0.90450  Biso   1.000  H
  C65      1.0000 0.18780  0.33790  0.86190  Biso   1.000  C
  H68      1.0000 0.14930  0.30220  0.83750  Biso   1.000  H
  C66      1.0000 0.19746  0.41510  0.90980  Biso   1.000  C
  H69      1.0000 0.16670  0.44270  0.92430  Biso   1.000  H
  H70      1.0000 0.52890  0.16120  0.21320  Biso   1.000  H
  C67      1.0000 0.52370  0.00660  0.21490  Biso   1.000  C
  H71      1.0000 0.54320  0.98400  0.18440  Biso   1.000  H
  C68      1.0000 0.51440  0.10420  0.22910  Biso   1.000  C
  H72      1.0000 0.52800  0.16240  0.21140  Biso   1.000  H
  N44      1.0000 0.51610  0.10680  0.22890  Biso   1.000  N
  Zn5      1.0000 0.76771  0.70414  0.80805  Biso   1.000  Zn
  Cu5      1.0000 0.80311  0.93553  0.49683  Biso   1.000  Cu
  N45      1.0000 0.72083  0.68960  0.70197  Biso   1.000  N
  N46      1.0000 0.69206  0.63480  0.58837  Biso   1.000  N
  C69      1.0000 0.73479  0.63020  0.65670  Biso   1.000  C
  H73      1.0000 0.77150  0.58890  0.67170  Biso   1.000  H
  C70      1.0000 0.64749  0.70210  0.59019  Biso   1.000  C
  H74      1.0000 0.61060  0.72210  0.54980  Biso   1.000  H
  C71      1.0000 0.66465  0.73560  0.65902  Biso   1.000  C
  H75      1.0000 0.64180  0.78260  0.67480  Biso   1.000  H
  N47      1.0000 0.75152  0.57900  0.85364  Biso   1.000  N
  N48      1.0000 0.72604  0.47940  0.92734  Biso   1.000  N
  C72      1.0000 0.73629  0.57430  0.91057  Biso   1.000  C
  H76      1.0000 0.73310  0.63290  0.93650  Biso   1.000  H
  C73      1.0000 0.75115  0.47820  0.83270  Biso   1.000  C
  H77      1.0000 0.76050  0.45520  0.79370  Biso   1.000  H
  C74      1.0000 0.73533  0.41800  0.87690  Biso   1.000  C
  H78      1.0000 0.73130  0.34580  0.87390  Biso   1.000  H
  N49      1.0000 0.85822  0.72310  0.82806  Biso   1.000  N
  N50      1.0000 0.94516  0.73560  0.80605  Biso   1.000  N
  C75      1.0000 0.88225  0.72980  0.77840  Biso   1.000  C
  H79      1.0000 0.85680  0.73030  0.72800  Biso   1.000  H
  C76      1.0000 0.91034  0.72580  0.89250  Biso   1.000  C
  H80      1.0000 0.90960  0.72280  0.93890  Biso   1.000  H
  C77      1.0000 0.96275  0.73330  0.87960  Biso   1.000  C
  H81      1.0000 0.00470  0.73660  0.91530  Biso   1.000  H
  N51      1.0000 0.92406  0.74730  0.65847  Biso   1.000  N
  N52      1.0000 0.85189  0.82360  0.56110  Biso   1.000  N
  C78      1.0000 0.90249  0.83500  0.62359  Biso   1.000  C
  H82      1.0000 0.92120  0.89940  0.64140  Biso   1.000  H
  C79      1.0000 0.84007  0.72060  0.55628  Biso   1.000  C
  H83      1.0000 0.80680  0.68710  0.51810  Biso   1.000  H
  C80      1.0000 0.88436  0.67430  0.61575  Biso   1.000  C
  H84      1.0000 0.88710  0.60310  0.62570  Biso   1.000  H
  N53      1.0000 0.75896  0.05300  0.43376  Biso   1.000  N
  N54      1.0000 0.74344  0.17990  0.35448  Biso   1.000  N
  C81      1.0000 0.78371  0.11240  0.39861  Biso   1.000  C
  H85      1.0000 0.82630  0.10700  0.40450  Biso   1.000  H
  C82      1.0000 0.68780  0.16210  0.36190  Biso   1.000  C
  H86      1.0000 0.64930  0.19780  0.33750  Biso   1.000  H
  C83      1.0000 0.69746  0.08490  0.40980  Biso   1.000  C
  H87      1.0000 0.66670  0.05730  0.42430  Biso   1.000  H
  H88      1.0000 0.02890  0.33880  0.71320  Biso   1.000  H
  C84      1.0000 0.02370  0.49340  0.71490  Biso   1.000  C
  H89      1.0000 0.04320  0.51600  0.68440  Biso   1.000  H
  C85      1.0000 0.01440  0.39580  0.72910  Biso   1.000  C
  H90      1.0000 0.02800  0.33760  0.71140  Biso   1.000  H
  N55      1.0000 0.01610  0.39320  0.72890  Biso   1.000  N
  Zn6      1.0000 0.26771  0.20414  0.80805  Biso   1.000  Zn
  Cu6      1.0000 0.30311  0.43553  0.49683  Biso   1.000  Cu
  N56      1.0000 0.22083  0.18960  0.70197  Biso   1.000  N
  N57      1.0000 0.19206  0.13480  0.58837  Biso   1.000  N
  C86      1.0000 0.23479  0.13020  0.65670  Biso   1.000  C
  H91      1.0000 0.27150  0.08890  0.67170  Biso   1.000  H
  C87      1.0000 0.14749  0.20210  0.59019  Biso   1.000  C
  H92      1.0000 0.11060  0.22210  0.54980  Biso   1.000  H
  C88      1.0000 0.16465  0.23560  0.65902  Biso   1.000  C
  H93      1.0000 0.14180  0.28260  0.67480  Biso   1.000  H
  N58      1.0000 0.25152  0.07900  0.85364  Biso   1.000  N
  N59      1.0000 0.22604  0.97940  0.92734  Biso   1.000  N
  C89      1.0000 0.23629  0.07430  0.91057  Biso   1.000  C
  H94      1.0000 0.23310  0.13290  0.93650  Biso   1.000  H
  C90      1.0000 0.25115  0.97820  0.83270  Biso   1.000  C
  H95      1.0000 0.26050  0.95520  0.79370  Biso   1.000  H
  C91      1.0000 0.23533  0.91800  0.87690  Biso   1.000  C
  H96      1.0000 0.23130  0.84580  0.87390  Biso   1.000  H
  N60      1.0000 0.35822  0.22310  0.82806  Biso   1.000  N
  N61      1.0000 0.44516  0.23560  0.80605  Biso   1.000  N
  C92      1.0000 0.38225  0.22980  0.77840  Biso   1.000  C
  H97      1.0000 0.35680  0.23030  0.72800  Biso   1.000  H
  C93      1.0000 0.41034  0.22580  0.89250  Biso   1.000  C
  H98      1.0000 0.40960  0.22280  0.93890  Biso   1.000  H
  C94      1.0000 0.46275  0.23330  0.87960  Biso   1.000  C
  H99      1.0000 0.50470  0.23660  0.91530  Biso   1.000  H
  N62      1.0000 0.42406  0.24730  0.65847  Biso   1.000  N
  N63      1.0000 0.35189  0.32360  0.56110  Biso   1.000  N
  C95      1.0000 0.40249  0.33500  0.62359  Biso   1.000  C
  H100     1.0000 0.42120  0.39940  0.64140  Biso   1.000  H
  C96      1.0000 0.34007  0.22060  0.55628  Biso   1.000  C
  H101     1.0000 0.30680  0.18710  0.51810  Biso   1.000  H
  C97      1.0000 0.38436  0.17430  0.61575  Biso   1.000  C
  H102     1.0000 0.38710  0.10310  0.62570  Biso   1.000  H
  N64      1.0000 0.25896  0.55300  0.43376  Biso   1.000  N
  N65      1.0000 0.24344  0.67990  0.35448  Biso   1.000  N
  C98      1.0000 0.28371  0.61240  0.39861  Biso   1.000  C
  H103     1.0000 0.32630  0.60700  0.40450  Biso   1.000  H
  C99      1.0000 0.18780  0.66210  0.36190  Biso   1.000  C
  H104     1.0000 0.14930  0.69780  0.33750  Biso   1.000  H
  C100     1.0000 0.19746  0.58490  0.40980  Biso   1.000  C
  H105     1.0000 0.16670  0.55730  0.42430  Biso   1.000  H
  H106     1.0000 0.52890  0.83880  0.71320  Biso   1.000  H
  C101     1.0000 0.52370  0.99340  0.71490  Biso   1.000  C
  H107     1.0000 0.54320  0.01600  0.68440  Biso   1.000  H
  C102     1.0000 0.51440  0.89580  0.72910  Biso   1.000  C
  H108     1.0000 0.52800  0.83760  0.71140  Biso   1.000  H
  N66      1.0000 0.51610  0.89320  0.72890  Biso   1.000  N
  Zn7      1.0000 0.23229  0.70414  0.69195  Biso   1.000  Zn
  Cu7      1.0000 0.19689  0.93553  0.00317  Biso   1.000  Cu
  N67      1.0000 0.27917  0.68960  0.79803  Biso   1.000  N
  N68      1.0000 0.30794  0.63480  0.91163  Biso   1.000  N
  C103     1.0000 0.26521  0.63020  0.84330  Biso   1.000  C
  H109     1.0000 0.22850  0.58890  0.82830  Biso   1.000  H
  C104     1.0000 0.35251  0.70210  0.90981  Biso   1.000  C
  H110     1.0000 0.38940  0.72210  0.95020  Biso   1.000  H
  C105     1.0000 0.33535  0.73560  0.84098  Biso   1.000  C
  H111     1.0000 0.35820  0.78260  0.82520  Biso   1.000  H
  N69      1.0000 0.24848  0.57900  0.64636  Biso   1.000  N
  N70      1.0000 0.27396  0.47940  0.57266  Biso   1.000  N
  C106     1.0000 0.26371  0.57430  0.58943  Biso   1.000  C
  H112     1.0000 0.26690  0.63290  0.56350  Biso   1.000  H
  C107     1.0000 0.24885  0.47820  0.66730  Biso   1.000  C
  H113     1.0000 0.23950  0.45520  0.70630  Biso   1.000  H
  C108     1.0000 0.26467  0.41800  0.62310  Biso   1.000  C
  H114     1.0000 0.26870  0.34580  0.62610  Biso   1.000  H
  N71      1.0000 0.14178  0.72310  0.67194  Biso   1.000  N
  N72      1.0000 0.05484  0.73560  0.69395  Biso   1.000  N
  C109     1.0000 0.11775  0.72980  0.72160  Biso   1.000  C
  H115     1.0000 0.14320  0.73030  0.77200  Biso   1.000  H
  C110     1.0000 0.08966  0.72580  0.60750  Biso   1.000  C
  H116     1.0000 0.09040  0.72280  0.56110  Biso   1.000  H
  C111     1.0000 0.03725  0.73330  0.62040  Biso   1.000  C
  H117     1.0000 0.99530  0.73660  0.58470  Biso   1.000  H
  N73      1.0000 0.07594  0.74730  0.84153  Biso   1.000  N
  N74      1.0000 0.14811  0.82360  0.93890  Biso   1.000  N
  C112     1.0000 0.09751  0.83500  0.87641  Biso   1.000  C
  H118     1.0000 0.07880  0.89940  0.85860  Biso   1.000  H
  C113     1.0000 0.15993  0.72060  0.94372  Biso   1.000  C
  H119     1.0000 0.19320  0.68710  0.98190  Biso   1.000  H
  C114     1.0000 0.11564  0.67430  0.88425  Biso   1.000  C
  H120     1.0000 0.11290  0.60310  0.87430  Biso   1.000  H
  N75      1.0000 0.24104  0.05300  0.06624  Biso   1.000  N
  N76      1.0000 0.25656  0.17990  0.14552  Biso   1.000  N
  C115     1.0000 0.21629  0.11240  0.10139  Biso   1.000  C
  H121     1.0000 0.17370  0.10700  0.09550  Biso   1.000  H
  C116     1.0000 0.31220  0.16210  0.13810  Biso   1.000  C
  H122     1.0000 0.35070  0.19780  0.16250  Biso   1.000  H
  C117     1.0000 0.30254  0.08490  0.09020  Biso   1.000  C
  H123     1.0000 0.33330  0.05730  0.07570  Biso   1.000  H
  H124     1.0000 0.97110  0.33880  0.78680  Biso   1.000  H
  C118     1.0000 0.97630  0.49340  0.78510  Biso   1.000  C
  H125     1.0000 0.95680  0.51600  0.81560  Biso   1.000  H
  C119     1.0000 0.98560  0.39580  0.77090  Biso   1.000  C
  H126     1.0000 0.97200  0.33760  0.78860  Biso   1.000  H
  N77      1.0000 0.98390  0.39320  0.77110  Biso   1.000  N
  Zn8      1.0000 0.73229  0.20414  0.69195  Biso   1.000  Zn
  Cu8      1.0000 0.69689  0.43553  0.00317  Biso   1.000  Cu
  N78      1.0000 0.77917  0.18960  0.79803  Biso   1.000  N
  N79      1.0000 0.80794  0.13480  0.91163  Biso   1.000  N
  C120     1.0000 0.76521  0.13020  0.84330  Biso   1.000  C
  H127     1.0000 0.72850  0.08890  0.82830  Biso   1.000  H
  C121     1.0000 0.85251  0.20210  0.90981  Biso   1.000  C
  H128     1.0000 0.88940  0.22210  0.95020  Biso   1.000  H
  C122     1.0000 0.83535  0.23560  0.84098  Biso   1.000  C
  H129     1.0000 0.85820  0.28260  0.82520  Biso   1.000  H
  N80      1.0000 0.74848  0.07900  0.64636  Biso   1.000  N
  N81      1.0000 0.77396  0.97940  0.57266  Biso   1.000  N
  C123     1.0000 0.76371  0.07430  0.58943  Biso   1.000  C
  H130     1.0000 0.76690  0.13290  0.56350  Biso   1.000  H
  C124     1.0000 0.74885  0.97820  0.66730  Biso   1.000  C
  H131     1.0000 0.73950  0.95520  0.70630  Biso   1.000  H
  C125     1.0000 0.76467  0.91800  0.62310  Biso   1.000  C
  H132     1.0000 0.76870  0.84580  0.62610  Biso   1.000  H
  N82      1.0000 0.64178  0.22310  0.67194  Biso   1.000  N
  N83      1.0000 0.55484  0.23560  0.69395  Biso   1.000  N
  C126     1.0000 0.61775  0.22980  0.72160  Biso   1.000  C
  H133     1.0000 0.64320  0.23030  0.77200  Biso   1.000  H
  C127     1.0000 0.58966  0.22580  0.60750  Biso   1.000  C
  H134     1.0000 0.59040  0.22280  0.56110  Biso   1.000  H
  C128     1.0000 0.53725  0.23330  0.62040  Biso   1.000  C
  H135     1.0000 0.49530  0.23660  0.58470  Biso   1.000  H
  N84      1.0000 0.57594  0.24730  0.84153  Biso   1.000  N
  N85      1.0000 0.64811  0.32360  0.93890  Biso   1.000  N
  C129     1.0000 0.59751  0.33500  0.87641  Biso   1.000  C
  H136     1.0000 0.57880  0.39940  0.85860  Biso   1.000  H
  C130     1.0000 0.65993  0.22060  0.94372  Biso   1.000  C
  H137     1.0000 0.69320  0.18710  0.98190  Biso   1.000  H
  C131     1.0000 0.61564  0.17430  0.88425  Biso   1.000  C
  H138     1.0000 0.61290  0.10310  0.87430  Biso   1.000  H
  N86      1.0000 0.74104  0.55300  0.06624  Biso   1.000  N
  N87      1.0000 0.75656  0.67990  0.14552  Biso   1.000  N
  C132     1.0000 0.71629  0.61240  0.10139  Biso   1.000  C
  H139     1.0000 0.67370  0.60700  0.09550  Biso   1.000  H
  C133     1.0000 0.81220  0.66210  0.13810  Biso   1.000  C
  H140     1.0000 0.85070  0.69780  0.16250  Biso   1.000  H
  C134     1.0000 0.80254  0.58490  0.09020  Biso   1.000  C
  H141     1.0000 0.83330  0.55730  0.07570  Biso   1.000  H
  H142     1.0000 0.47110  0.83880  0.78680  Biso   1.000  H
  C135     1.0000 0.47630  0.99340  0.78510  Biso   1.000  C
  H143     1.0000 0.45680  0.01600  0.81560  Biso   1.000  H
  C136     1.0000 0.48560  0.89580  0.77090  Biso   1.000  C
  H144     1.0000 0.47200  0.83760  0.78860  Biso   1.000  H
  N88      1.0000 0.48390  0.89320  0.77110  Biso   1.000  N
  Cu9      1.0000 0.00000  0.27299  0.25000  Biso   1.000  Cu
  N89      1.0000 0.00000  0.44500  0.25000  Biso   1.000  N
  Cu10     1.0000 0.50000  0.77299  0.25000  Biso   1.000  Cu
  N90      1.0000 0.50000  0.94500  0.25000  Biso   1.000  N
  Cu11     1.0000 0.00000  0.72701  0.75000  Biso   1.000  Cu
  N91      1.0000 0.00000  0.55500  0.75000  Biso   1.000  N
  Cu12     1.0000 0.50000  0.22701  0.75000  Biso   1.000  Cu
  N92      1.0000 0.50000  0.05500  0.75000  Biso   1.000  N
