data_image0
_cell_length_a       14.4115
_cell_length_b       16.0984
_cell_length_c       9.6856
_cell_angle_alpha    90
_cell_angle_beta     90
_cell_angle_gamma    90

_symmetry_space_group_name_H-M    "P 1"
_symmetry_int_tables_number       1

loop_
  _symmetry_equiv_pos_as_xyz
  'x, y, z'

loop_
  _atom_site_label
  _atom_site_occupancy
  _atom_site_fract_x
  _atom_site_fract_y
  _atom_site_fract_z
  _atom_site_thermal_displace_type
  _atom_site_B_iso_or_equiv
  _atom_site_type_symbol
  Zn1      1.0000 0.39762  0.17260  0.39645  Biso   1.000  Zn
  Zn2      1.0000 0.11778  0.16572  0.46527  Biso   1.000  Zn
  Zn3      1.0000 0.24451  0.00813  0.93349  Biso   1.000  Zn
  P1       1.0000 0.23436  0.13726  0.18621  Biso   1.000  P
  P2       1.0000 0.61558  0.14137  0.41445  Biso   1.000  P
  P3       1.0000 0.40580  0.36925  0.45211  Biso   1.000  P
  P4       1.0000 0.28244  0.13147  0.67363  Biso   1.000  P
  O1       1.0000 0.16030  0.16900  0.27510  Biso   1.000  O
  O2       1.0000 0.32600  0.11950  0.25400  Biso   1.000  O
  O3       1.0000 0.20790  0.07380  0.08460  Biso   1.000  O
  O4       1.0000 0.61690  0.21800  0.50280  Biso   1.000  O
  O5       1.0000 0.65794  0.06809  0.48830  Biso   1.000  O
  O6       1.0000 0.51834  0.11961  0.36510  Biso   1.000  O
  O7       1.0000 0.36082  0.44120  0.37310  Biso   1.000  O
  O8       1.0000 0.40270  0.29078  0.36670  Biso   1.000  O
  O9       1.0000 0.50260  0.39220  0.49790  Biso   1.000  O
  O10      1.0000 0.36360  0.13900  0.58220  Biso   1.000  O
  O11      1.0000 0.19350  0.10880  0.60220  Biso   1.000  O
  O12      1.0000 0.30530  0.07110  0.78880  Biso   1.000  O
  H1       1.0000 0.23600  0.20300  0.09900  Biso   1.000  H
  H2       1.0000 0.66800  0.15900  0.28600  Biso   1.000  H
  H3       1.0000 0.35400  0.35800  0.56000  Biso   1.000  H
  H4       1.0000 0.27100  0.21000  0.73200  Biso   1.000  H
  O13      1.0000 0.15450  0.12320  0.29610  Biso   1.000  O
  Zn4      1.0000 0.60238  0.82740  0.89645  Biso   1.000  Zn
  Zn5      1.0000 0.88222  0.83428  0.96527  Biso   1.000  Zn
  Zn6      1.0000 0.75549  0.99187  0.43349  Biso   1.000  Zn
  P5       1.0000 0.76564  0.86274  0.68621  Biso   1.000  P
  P6       1.0000 0.38442  0.85863  0.91445  Biso   1.000  P
  P7       1.0000 0.59420  0.63075  0.95211  Biso   1.000  P
  P8       1.0000 0.71756  0.86853  0.17363  Biso   1.000  P
  O14      1.0000 0.83970  0.83100  0.77510  Biso   1.000  O
  O15      1.0000 0.67400  0.88050  0.75400  Biso   1.000  O
  O16      1.0000 0.79210  0.92620  0.58460  Biso   1.000  O
  O17      1.0000 0.38310  0.78200  0.00280  Biso   1.000  O
  O18      1.0000 0.34206  0.93191  0.98830  Biso   1.000  O
  O19      1.0000 0.48166  0.88039  0.86510  Biso   1.000  O
  O20      1.0000 0.63918  0.55880  0.87310  Biso   1.000  O
  O21      1.0000 0.59730  0.70922  0.86670  Biso   1.000  O
  O22      1.0000 0.49740  0.60780  0.99790  Biso   1.000  O
  O23      1.0000 0.63640  0.86100  0.08220  Biso   1.000  O
  O24      1.0000 0.80650  0.89120  0.10220  Biso   1.000  O
  O25      1.0000 0.69470  0.92890  0.28880  Biso   1.000  O
  H5       1.0000 0.76400  0.79700  0.59900  Biso   1.000  H
  H6       1.0000 0.33200  0.84100  0.78600  Biso   1.000  H
  H7       1.0000 0.64600  0.64200  0.06000  Biso   1.000  H
  H8       1.0000 0.72900  0.79000  0.23200  Biso   1.000  H
  O26      1.0000 0.84550  0.87680  0.79610  Biso   1.000  O
  Zn7      1.0000 0.89762  0.32740  0.39645  Biso   1.000  Zn
  Zn8      1.0000 0.61778  0.33428  0.46527  Biso   1.000  Zn
  Zn9      1.0000 0.74451  0.49187  0.93349  Biso   1.000  Zn
  P9       1.0000 0.73436  0.36274  0.18621  Biso   1.000  P
  P10      1.0000 0.11558  0.35863  0.41445  Biso   1.000  P
  P11      1.0000 0.90580  0.13075  0.45211  Biso   1.000  P
  P12      1.0000 0.78244  0.36853  0.67363  Biso   1.000  P
  O27      1.0000 0.66030  0.33100  0.27510  Biso   1.000  O
  O28      1.0000 0.82600  0.38050  0.25400  Biso   1.000  O
  O29      1.0000 0.70790  0.42620  0.08460  Biso   1.000  O
  O30      1.0000 0.11690  0.28200  0.50280  Biso   1.000  O
  O31      1.0000 0.15794  0.43191  0.48830  Biso   1.000  O
  O32      1.0000 0.01834  0.38039  0.36510  Biso   1.000  O
  O33      1.0000 0.86082  0.05880  0.37310  Biso   1.000  O
  O34      1.0000 0.90270  0.20922  0.36670  Biso   1.000  O
  O35      1.0000 0.00260  0.10780  0.49790  Biso   1.000  O
  O36      1.0000 0.86360  0.36100  0.58220  Biso   1.000  O
  O37      1.0000 0.69350  0.39120  0.60220  Biso   1.000  O
  O38      1.0000 0.80530  0.42890  0.78880  Biso   1.000  O
  H9       1.0000 0.73600  0.29700  0.09900  Biso   1.000  H
  H10      1.0000 0.16800  0.34100  0.28600  Biso   1.000  H
  H11      1.0000 0.85400  0.14200  0.56000  Biso   1.000  H
  H12      1.0000 0.77100  0.29000  0.73200  Biso   1.000  H
  O39      1.0000 0.65450  0.37680  0.29610  Biso   1.000  O
  Zn10     1.0000 0.10238  0.67260  0.89645  Biso   1.000  Zn
  Zn11     1.0000 0.38222  0.66572  0.96527  Biso   1.000  Zn
  Zn12     1.0000 0.25549  0.50813  0.43349  Biso   1.000  Zn
  P13      1.0000 0.26564  0.63726  0.68621  Biso   1.000  P
  P14      1.0000 0.88442  0.64137  0.91445  Biso   1.000  P
  P15      1.0000 0.09420  0.86925  0.95211  Biso   1.000  P
  P16      1.0000 0.21756  0.63147  0.17363  Biso   1.000  P
  O40      1.0000 0.33970  0.66900  0.77510  Biso   1.000  O
  O41      1.0000 0.17400  0.61950  0.75400  Biso   1.000  O
  O42      1.0000 0.29210  0.57380  0.58460  Biso   1.000  O
  O43      1.0000 0.88310  0.71800  0.00280  Biso   1.000  O
  O44      1.0000 0.84206  0.56809  0.98830  Biso   1.000  O
  O45      1.0000 0.98166  0.61961  0.86510  Biso   1.000  O
  O46      1.0000 0.13918  0.94120  0.87310  Biso   1.000  O
  O47      1.0000 0.09730  0.79078  0.86670  Biso   1.000  O
  O48      1.0000 0.99740  0.89220  0.99790  Biso   1.000  O
  O49      1.0000 0.13640  0.63900  0.08220  Biso   1.000  O
  O50      1.0000 0.30650  0.60880  0.10220  Biso   1.000  O
  O51      1.0000 0.19470  0.57110  0.28880  Biso   1.000  O
  H13      1.0000 0.26400  0.70300  0.59900  Biso   1.000  H
  H14      1.0000 0.83200  0.65900  0.78600  Biso   1.000  H
  H15      1.0000 0.14600  0.85800  0.06000  Biso   1.000  H
  H16      1.0000 0.22900  0.71000  0.23200  Biso   1.000  H
  O52      1.0000 0.34550  0.62320  0.79610  Biso   1.000  O
