data_image0
_cell_length_a       10.9434
_cell_length_b       28.6035
_cell_length_c       22.5449
_cell_angle_alpha    90
_cell_angle_beta     99.587
_cell_angle_gamma    90

_symmetry_space_group_name_H-M    "P 1"
_symmetry_int_tables_number       1

loop_
  _symmetry_equiv_pos_as_xyz
  'x, y, z'

loop_
  _atom_site_label
  _atom_site_occupancy
  _atom_site_fract_x
  _atom_site_fract_y
  _atom_site_fract_z
  _atom_site_thermal_displace_type
  _atom_site_B_iso_or_equiv
  _atom_site_type_symbol
  C1       1.0000 0.29740  0.45150  0.49390  Biso   1.000  C
  C2       1.0000 0.17420  0.45870  0.45750  Biso   1.000  C
  C3       1.0000 0.06760  0.44200  0.47800  Biso   1.000  C
  H1       1.0000 0.07550  0.42420  0.51390  Biso   1.000  H
  C4       1.0000 0.95020  0.45170  0.44550  Biso   1.000  C
  C5       1.0000 0.83880  0.43580  0.46940  Biso   1.000  C
  C6       1.0000 0.93700  0.47720  0.39220  Biso   1.000  C
  H2       1.0000 0.85710  0.48360  0.37010  Biso   1.000  H
  C7       1.0000 0.04140  0.49300  0.37210  Biso   1.000  C
  C8       1.0000 0.15930  0.48350  0.40330  Biso   1.000  C
  H3       1.0000 0.23010  0.49400  0.38770  Biso   1.000  H
  O1       1.0000 0.03600  0.52560  0.32690  Biso   1.000  O
  C9       1.0000 0.92000  0.53480  0.29000  Biso   1.000  C
  H4       1.0000 0.92600  0.56240  0.26400  Biso   1.000  H
  H5       1.0000 0.85530  0.54080  0.31490  Biso   1.000  H
  C10      1.0000 0.88700  0.48790  0.24930  Biso   1.000  C
  H6       1.0000 0.80780  0.49210  0.22260  Biso   1.000  H
  H7       1.0000 0.95260  0.48250  0.22510  Biso   1.000  H
  H8       1.0000 0.88230  0.46100  0.27570  Biso   1.000  H
  C11      1.0000 0.51440  0.31600  0.60170  Biso   1.000  C
  C12      1.0000 0.47310  0.26630  0.60880  Biso   1.000  C
  C13      1.0000 0.53240  0.23050  0.58300  Biso   1.000  C
  H9       1.0000 0.59940  0.23720  0.56240  Biso   1.000  H
  C14      1.0000 0.49220  0.18490  0.58780  Biso   1.000  C
  C15      1.0000 0.55780  0.14580  0.56010  Biso   1.000  C
  C16      1.0000 0.39830  0.17430  0.61800  Biso   1.000  C
  H10      1.0000 0.37480  0.14270  0.62220  Biso   1.000  H
  C17      1.0000 0.33670  0.20990  0.64290  Biso   1.000  C
  C18      1.0000 0.37650  0.25610  0.63950  Biso   1.000  C
  H11      1.0000 0.33750  0.28050  0.65810  Biso   1.000  H
  C19      1.0000 0.18360  0.15700  0.66820  Biso   1.000  C
  H12      1.0000 0.24300  0.13290  0.68650  Biso   1.000  H
  H13      1.0000 0.15830  0.14940  0.62500  Biso   1.000  H
  C20      1.0000 0.07220  0.15730  0.69890  Biso   1.000  C
  C21      1.0000 0.53800  0.48970  0.65760  Biso   1.000  C
  C22      1.0000 0.62130  0.51630  0.70610  Biso   1.000  C
  C23      1.0000 0.69920  0.49190  0.75010  Biso   1.000  C
  H14      1.0000 0.70020  0.45870  0.74910  Biso   1.000  H
  C24      1.0000 0.77440  0.51500  0.79500  Biso   1.000  C
  C25      1.0000 0.85320  0.48760  0.84300  Biso   1.000  C
  C26      1.0000 0.77320  0.56400  0.79840  Biso   1.000  C
  H15      1.0000 0.82300  0.58000  0.83070  Biso   1.000  H
  C27      1.0000 0.69720  0.58830  0.75340  Biso   1.000  C
  C28      1.0000 0.62020  0.56470  0.70730  Biso   1.000  C
  H16      1.0000 0.56750  0.58180  0.67710  Biso   1.000  H
  C29      1.0000 0.75350  0.66190  0.79940  Biso   1.000  C
  H17      1.0000 0.84060  0.65110  0.80800  Biso   1.000  H
  H18      1.0000 0.71560  0.65700  0.83580  Biso   1.000  H
  C30      1.0000 0.74900  0.71320  0.78290  Biso   1.000  C
  H19      1.0000 0.79440  0.73130  0.81640  Biso   1.000  H
  H20      1.0000 0.78720  0.71780  0.74700  Biso   1.000  H
  H21      1.0000 0.66260  0.72360  0.77470  Biso   1.000  H
  C31      1.0000 0.93860  0.31380  0.90330  Biso   1.000  C
  C32      1.0000 0.89580  0.26410  0.89710  Biso   1.000  C
  C33      1.0000 0.97940  0.22910  0.92070  Biso   1.000  C
  H22      1.0000 0.06160  0.23680  0.93890  Biso   1.000  H
  C34      1.0000 0.93970  0.18290  0.91700  Biso   1.000  C
  C35      1.0000 0.02620  0.14520  0.94160  Biso   1.000  C
  C36      1.0000 0.81970  0.17110  0.89130  Biso   1.000  C
  H23      1.0000 0.79420  0.13930  0.88860  Biso   1.000  H
  C37      1.0000 0.73710  0.20650  0.86940  Biso   1.000  C
  C38      1.0000 0.77550  0.25330  0.87240  Biso   1.000  C
  H24      1.0000 0.71890  0.27740  0.85750  Biso   1.000  H
  C39      1.0000 0.57530  0.14970  0.83680  Biso   1.000  C
  H25      1.0000 0.58530  0.13530  0.87730  Biso   1.000  H
  H26      1.0000 0.62290  0.13120  0.81140  Biso   1.000  H
  C40      1.0000 0.44190  0.15200  0.80910  Biso   1.000  C
  H27      1.0000 0.40060  0.17630  0.82930  Biso   1.000  H
  H28      1.0000 0.40260  0.12180  0.81370  Biso   1.000  H
  H29      1.0000 0.43480  0.15960  0.76630  Biso   1.000  H
  C41      1.0000 0.79270  0.45380  0.00590  Biso   1.000  C
  C42      1.0000 0.69270  0.46220  0.04110  Biso   1.000  C
  C43      1.0000 0.57370  0.44200  0.02400  Biso   1.000  C
  H30      1.0000 0.56040  0.42010  0.99180  Biso   1.000  H
  C44      1.0000 0.47640  0.45360  0.05380  Biso   1.000  C
  C45      1.0000 0.34990  0.43520  0.03200  Biso   1.000  C
  C46      1.0000 0.49530  0.48620  0.10160  Biso   1.000  C
  H31      1.0000 0.42890  0.49480  0.12170  Biso   1.000  H
  C47      1.0000 0.61370  0.50570  0.11890  Biso   1.000  C
  C48      1.0000 0.71210  0.49370  0.08960  Biso   1.000  C
  H32      1.0000 0.79190  0.50680  0.10240  Biso   1.000  H
  C49      1.0000 0.54160  0.55520  0.19320  Biso   1.000  C
  C50      1.0000 0.47200  0.58140  0.16320  Biso   1.000  C
  H33      1.0000 0.40710  0.59110  0.18580  Biso   1.000  H
  H34      1.0000 0.51760  0.60890  0.15310  Biso   1.000  H
  H35      1.0000 0.43390  0.56560  0.12610  Biso   1.000  H
  O2       1.0000 0.38530  0.47810  0.48380  Biso   1.000  O
  O3       1.0000 0.60750  0.42410  0.55000  Biso   1.000  O
  H36      1.0000 0.65840  0.44800  0.57550  Biso   1.000  H
  O4       1.0000 0.30870  0.42130  0.53440  Biso   1.000  O
  O5       1.0000 0.06590  0.42490  0.95250  Biso   1.000  O
  H37      1.0000 0.09510  0.44930  0.92620  Biso   1.000  H
  O6       1.0000 0.85330  0.40570  0.51080  Biso   1.000  O
  O7       1.0000 0.73790  0.45390  0.44600  Biso   1.000  O
  O8       1.0000 0.43550  0.34710  0.60500  Biso   1.000  O
  O9       1.0000 0.62180  0.32230  0.59290  Biso   1.000  O
  O10      1.0000 0.64230  0.15610  0.53180  Biso   1.000  O
  O11      1.0000 0.51990  0.10500  0.56880  Biso   1.000  O
  O12      1.0000 0.24210  0.20300  0.67450  Biso   1.000  O
  O13      1.0000 0.48350  0.50830  0.61320  Biso   1.000  O
  O14      1.0000 0.53300  0.44560  0.66650  Biso   1.000  O
  O15      1.0000 0.84730  0.44290  0.83790  Biso   1.000  O
  O16      1.0000 0.92140  0.50670  0.88630  Biso   1.000  O
  O17      1.0000 0.68670  0.63610  0.74990  Biso   1.000  O
  O18      1.0000 0.85350  0.34450  0.90120  Biso   1.000  O
  O19      1.0000 0.05210  0.32150  0.90930  Biso   1.000  O
  O20      1.0000 0.13370  0.15650  0.96760  Biso   1.000  O
  O21      1.0000 0.98620  0.10400  0.93510  Biso   1.000  O
  O22      1.0000 0.61770  0.19870  0.84080  Biso   1.000  O
  O23      1.0000 0.77290  0.42270  0.96610  Biso   1.000  O
  O24      1.0000 0.89020  0.47891  0.01580  Biso   1.000  O
  O25      1.0000 0.26490  0.45080  0.05830  Biso   1.000  O
  O26      1.0000 0.33640  0.40690  0.98890  Biso   1.000  O
  O27      1.0000 0.64050  0.53910  0.16300  Biso   1.000  O
  Co1      1.0000 0.46176  0.41468  0.59120  Biso   1.000  Co
  Co2      1.0000 0.72726  0.36808  0.54987  Biso   1.000  Co
  Co3      1.0000 0.89610  0.41009  0.91475  Biso   1.000  Co
  Co4      1.0000 0.18464  0.36909  0.95126  Biso   1.000  Co
  Co5      1.0000 0.06491  0.04387  0.96731  Biso   1.000  Co
  Co6      1.0000 0.07992  0.45527  0.03582  Biso   1.000  Co
  O28      1.0000 0.04840  0.50680  0.31030  Biso   1.000  O
  C51      1.0000 0.93400  0.51540  0.27220  Biso   1.000  C
  H38      1.0000 0.94300  0.54050  0.24300  Biso   1.000  H
  H39      1.0000 0.87020  0.52530  0.29630  Biso   1.000  H
  C52      1.0000 0.89200  0.46610  0.23680  Biso   1.000  C
  H40      1.0000 0.81280  0.47050  0.20990  Biso   1.000  H
  H41      1.0000 0.95550  0.45670  0.21320  Biso   1.000  H
  H42      1.0000 0.88300  0.44160  0.26620  Biso   1.000  H
  C53      1.0000 0.70800  0.71330  0.78920  Biso   1.000  C
  H43      1.0000 0.75050  0.73300  0.82180  Biso   1.000  H
  H44      1.0000 0.72660  0.72450  0.75070  Biso   1.000  H
  H45      1.0000 0.61840  0.71460  0.78880  Biso   1.000  H
  C54      1.0000 0.45200  0.15060  0.78800  Biso   1.000  C
  H46      1.0000 0.44310  0.18130  0.76840  Biso   1.000  H
  H47      1.0000 0.38010  0.14480  0.80790  Biso   1.000  H
  H48      1.0000 0.45620  0.12630  0.75780  Biso   1.000  H
  C55      1.0000 0.58260  0.60200  0.22690  Biso   1.000  C
  H49      1.0000 0.51610  0.61310  0.24760  Biso   1.000  H
  H50      1.0000 0.65760  0.59650  0.25650  Biso   1.000  H
  H51      1.0000 0.59980  0.62550  0.19790  Biso   1.000  H
  H52      1.0000 0.03240  0.12650  0.69490  Biso   1.000  H
  H53      1.0000 0.09800  0.16460  0.74170  Biso   1.000  H
  H54      1.0000 0.01340  0.18110  0.68040  Biso   1.000  H
  H55      1.0000 0.06340  0.18830  0.71640  Biso   1.000  H
  H56      1.0000 0.99790  0.15020  0.66960  Biso   1.000  H
  H57      1.0000 0.08250  0.13370  0.73090  Biso   1.000  H
  C56      1.0000 0.20260  0.95150  0.00610  Biso   1.000  C
  C57      1.0000 0.32580  0.95870  0.04250  Biso   1.000  C
  C58      1.0000 0.43240  0.94200  0.02200  Biso   1.000  C
  H58      1.0000 0.42450  0.92420  0.98610  Biso   1.000  H
  C59      1.0000 0.54980  0.95170  0.05450  Biso   1.000  C
  C60      1.0000 0.66120  0.93580  0.03060  Biso   1.000  C
  C61      1.0000 0.56300  0.97720  0.10780  Biso   1.000  C
  H59      1.0000 0.64290  0.98360  0.12990  Biso   1.000  H
  C62      1.0000 0.45860  0.99300  0.12790  Biso   1.000  C
  C63      1.0000 0.34070  0.98350  0.09670  Biso   1.000  C
  H60      1.0000 0.26990  0.99400  0.11230  Biso   1.000  H
  O29      1.0000 0.46400  0.02560  0.17310  Biso   1.000  O
  C64      1.0000 0.58000  0.03480  0.21000  Biso   1.000  C
  H61      1.0000 0.57400  0.06240  0.23600  Biso   1.000  H
  H62      1.0000 0.64470  0.04080  0.18510  Biso   1.000  H
  C65      1.0000 0.61300  0.98790  0.25070  Biso   1.000  C
  H63      1.0000 0.69220  0.99210  0.27740  Biso   1.000  H
  H64      1.0000 0.54740  0.98250  0.27490  Biso   1.000  H
  H65      1.0000 0.61770  0.96100  0.22430  Biso   1.000  H
  C66      1.0000 0.98560  0.81600  0.89830  Biso   1.000  C
  C67      1.0000 0.02690  0.76630  0.89120  Biso   1.000  C
  C68      1.0000 0.96760  0.73050  0.91700  Biso   1.000  C
  H66      1.0000 0.90060  0.73720  0.93760  Biso   1.000  H
  C69      1.0000 0.00780  0.68490  0.91220  Biso   1.000  C
  C70      1.0000 0.94220  0.64580  0.93990  Biso   1.000  C
  C71      1.0000 0.10170  0.67430  0.88200  Biso   1.000  C
  H67      1.0000 0.12520  0.64270  0.87780  Biso   1.000  H
  C72      1.0000 0.16330  0.70990  0.85710  Biso   1.000  C
  C73      1.0000 0.12350  0.75610  0.86050  Biso   1.000  C
  H68      1.0000 0.16250  0.78050  0.84190  Biso   1.000  H
  C74      1.0000 0.31640  0.65700  0.83180  Biso   1.000  C
  H69      1.0000 0.25700  0.63290  0.81350  Biso   1.000  H
  H70      1.0000 0.34170  0.64940  0.87500  Biso   1.000  H
  C75      1.0000 0.42780  0.65730  0.80110  Biso   1.000  C
  C76      1.0000 0.96200  0.98970  0.84240  Biso   1.000  C
  C77      1.0000 0.87870  0.01630  0.79390  Biso   1.000  C
  C78      1.0000 0.80080  0.99190  0.74990  Biso   1.000  C
  H71      1.0000 0.79980  0.95870  0.75090  Biso   1.000  H
  C79      1.0000 0.72560  0.01500  0.70500  Biso   1.000  C
  C80      1.0000 0.64680  0.98760  0.65700  Biso   1.000  C
  C81      1.0000 0.72680  0.06400  0.70160  Biso   1.000  C
  H72      1.0000 0.67700  0.08000  0.66930  Biso   1.000  H
  C82      1.0000 0.80280  0.08830  0.74660  Biso   1.000  C
  C83      1.0000 0.87980  0.06470  0.79270  Biso   1.000  C
  H73      1.0000 0.93250  0.08180  0.82290  Biso   1.000  H
  C84      1.0000 0.74650  0.16190  0.70060  Biso   1.000  C
  H74      1.0000 0.65940  0.15110  0.69200  Biso   1.000  H
  H75      1.0000 0.78440  0.15700  0.66420  Biso   1.000  H
  C85      1.0000 0.75100  0.21320  0.71710  Biso   1.000  C
  H76      1.0000 0.70560  0.23130  0.68360  Biso   1.000  H
  H77      1.0000 0.71280  0.21780  0.75300  Biso   1.000  H
  H78      1.0000 0.83740  0.22360  0.72530  Biso   1.000  H
  C86      1.0000 0.56140  0.81380  0.59670  Biso   1.000  C
  C87      1.0000 0.60420  0.76410  0.60290  Biso   1.000  C
  C88      1.0000 0.52060  0.72910  0.57930  Biso   1.000  C
  H79      1.0000 0.43840  0.73680  0.56110  Biso   1.000  H
  C89      1.0000 0.56030  0.68290  0.58300  Biso   1.000  C
  C90      1.0000 0.47380  0.64520  0.55840  Biso   1.000  C
  C91      1.0000 0.68030  0.67110  0.60870  Biso   1.000  C
  H80      1.0000 0.70580  0.63930  0.61140  Biso   1.000  H
  C92      1.0000 0.76290  0.70650  0.63060  Biso   1.000  C
  C93      1.0000 0.72450  0.75330  0.62760  Biso   1.000  C
  H81      1.0000 0.78110  0.77740  0.64250  Biso   1.000  H
  C94      1.0000 0.92470  0.64970  0.66320  Biso   1.000  C
  H82      1.0000 0.91470  0.63530  0.62270  Biso   1.000  H
  H83      1.0000 0.87710  0.63120  0.68860  Biso   1.000  H
  C95      1.0000 0.05810  0.65200  0.69090  Biso   1.000  C
  H84      1.0000 0.09940  0.67630  0.67070  Biso   1.000  H
  H85      1.0000 0.09740  0.62180  0.68630  Biso   1.000  H
  H86      1.0000 0.06520  0.65960  0.73370  Biso   1.000  H
  C96      1.0000 0.70730  0.95380  0.49410  Biso   1.000  C
  C97      1.0000 0.80730  0.96220  0.45890  Biso   1.000  C
  C98      1.0000 0.92630  0.94200  0.47600  Biso   1.000  C
  H87      1.0000 0.93960  0.92010  0.50820  Biso   1.000  H
  C99      1.0000 0.02360  0.95360  0.44620  Biso   1.000  C
  C100     1.0000 0.15010  0.93520  0.46800  Biso   1.000  C
  C101     1.0000 0.00470  0.98620  0.39840  Biso   1.000  C
  H88      1.0000 0.07110  0.99480  0.37830  Biso   1.000  H
  C102     1.0000 0.88630  0.00570  0.38110  Biso   1.000  C
  C103     1.0000 0.78790  0.99370  0.41040  Biso   1.000  C
  H89      1.0000 0.70810  0.00680  0.39760  Biso   1.000  H
  C104     1.0000 0.95840  0.05520  0.30680  Biso   1.000  C
  C105     1.0000 0.02800  0.08140  0.33680  Biso   1.000  C
  H90      1.0000 0.09290  0.09110  0.31420  Biso   1.000  H
  H91      1.0000 0.98240  0.10890  0.34690  Biso   1.000  H
  H92      1.0000 0.06610  0.06560  0.37390  Biso   1.000  H
  O30      1.0000 0.11470  0.97810  0.01620  Biso   1.000  O
  O31      1.0000 0.89250  0.92410  0.95000  Biso   1.000  O
  H93      1.0000 0.84160  0.94800  0.92450  Biso   1.000  H
  O32      1.0000 0.19130  0.92130  0.96560  Biso   1.000  O
  O33      1.0000 0.43410  0.92490  0.54750  Biso   1.000  O
  H94      1.0000 0.40490  0.94930  0.57380  Biso   1.000  H
  O34      1.0000 0.64670  0.90570  0.98920  Biso   1.000  O
  O35      1.0000 0.76210  0.95390  0.05400  Biso   1.000  O
  O36      1.0000 0.06450  0.84710  0.89500  Biso   1.000  O
  O37      1.0000 0.87820  0.82230  0.90710  Biso   1.000  O
  O38      1.0000 0.85770  0.65610  0.96820  Biso   1.000  O
  O39      1.0000 0.98010  0.60500  0.93120  Biso   1.000  O
  O40      1.0000 0.25790  0.70300  0.82550  Biso   1.000  O
  O41      1.0000 0.01650  0.00830  0.88680  Biso   1.000  O
  O42      1.0000 0.96700  0.94560  0.83350  Biso   1.000  O
  O43      1.0000 0.65270  0.94290  0.66210  Biso   1.000  O
  O44      1.0000 0.57860  0.00670  0.61370  Biso   1.000  O
  O45      1.0000 0.81330  0.13610  0.75010  Biso   1.000  O
  O46      1.0000 0.64650  0.84450  0.59880  Biso   1.000  O
  O47      1.0000 0.44790  0.82150  0.59070  Biso   1.000  O
  O48      1.0000 0.36630  0.65650  0.53240  Biso   1.000  O
  O49      1.0000 0.51380  0.60400  0.56490  Biso   1.000  O
  O50      1.0000 0.88230  0.69870  0.65920  Biso   1.000  O
  O51      1.0000 0.72710  0.92270  0.53390  Biso   1.000  O
  O52      1.0000 0.60980  0.97891  0.48420  Biso   1.000  O
  O53      1.0000 0.23510  0.95080  0.44170  Biso   1.000  O
  O54      1.0000 0.16360  0.90690  0.51110  Biso   1.000  O
  O55      1.0000 0.85950  0.03910  0.33700  Biso   1.000  O
  Co7      1.0000 0.03824  0.91468  0.90880  Biso   1.000  Co
  Co8      1.0000 0.77274  0.86808  0.95013  Biso   1.000  Co
  Co9      1.0000 0.60390  0.91009  0.58525  Biso   1.000  Co
  Co10     1.0000 0.31536  0.86909  0.54874  Biso   1.000  Co
  Co11     1.0000 0.43509  0.54387  0.53269  Biso   1.000  Co
  Co12     1.0000 0.42008  0.95527  0.46418  Biso   1.000  Co
  O56      1.0000 0.45160  0.00680  0.18970  Biso   1.000  O
  C106     1.0000 0.56600  0.01540  0.22780  Biso   1.000  C
  H95      1.0000 0.55700  0.04050  0.25700  Biso   1.000  H
  H96      1.0000 0.62980  0.02530  0.20370  Biso   1.000  H
  C107     1.0000 0.60800  0.96610  0.26320  Biso   1.000  C
  H97      1.0000 0.68720  0.97050  0.29010  Biso   1.000  H
  H98      1.0000 0.54450  0.95670  0.28680  Biso   1.000  H
  H99      1.0000 0.61700  0.94160  0.23380  Biso   1.000  H
  C108     1.0000 0.79200  0.21330  0.71080  Biso   1.000  C
  H100     1.0000 0.74950  0.23300  0.67820  Biso   1.000  H
  H101     1.0000 0.77340  0.22450  0.74930  Biso   1.000  H
  H102     1.0000 0.88160  0.21460  0.71120  Biso   1.000  H
  C109     1.0000 0.04800  0.65060  0.71200  Biso   1.000  C
  H103     1.0000 0.05690  0.68130  0.73160  Biso   1.000  H
  H104     1.0000 0.11990  0.64480  0.69210  Biso   1.000  H
  H105     1.0000 0.04380  0.62630  0.74220  Biso   1.000  H
  C110     1.0000 0.91740  0.10200  0.27310  Biso   1.000  C
  H106     1.0000 0.98390  0.11310  0.25240  Biso   1.000  H
  H107     1.0000 0.84240  0.09650  0.24350  Biso   1.000  H
  H108     1.0000 0.90020  0.12550  0.30210  Biso   1.000  H
  H109     1.0000 0.46760  0.62650  0.80510  Biso   1.000  H
  H110     1.0000 0.40200  0.66460  0.75830  Biso   1.000  H
  H111     1.0000 0.48660  0.68110  0.81960  Biso   1.000  H
  H112     1.0000 0.43660  0.68830  0.78360  Biso   1.000  H
  H113     1.0000 0.50210  0.65020  0.83040  Biso   1.000  H
  H114     1.0000 0.41750  0.63370  0.76910  Biso   1.000  H
  C111     1.0000 0.70260  0.54850  0.50610  Biso   1.000  C
  C112     1.0000 0.82580  0.54130  0.54250  Biso   1.000  C
  C113     1.0000 0.93240  0.55800  0.52200  Biso   1.000  C
  H115     1.0000 0.92450  0.57580  0.48610  Biso   1.000  H
  C114     1.0000 0.04980  0.54830  0.55450  Biso   1.000  C
  C115     1.0000 0.16120  0.56420  0.53060  Biso   1.000  C
  C116     1.0000 0.06300  0.52280  0.60780  Biso   1.000  C
  H116     1.0000 0.14290  0.51640  0.62990  Biso   1.000  H
  C117     1.0000 0.95860  0.50700  0.62790  Biso   1.000  C
  C118     1.0000 0.84070  0.51650  0.59670  Biso   1.000  C
  H117     1.0000 0.76990  0.50600  0.61230  Biso   1.000  H
  O57      1.0000 0.96400  0.47440  0.67310  Biso   1.000  O
  C119     1.0000 0.08000  0.46520  0.71000  Biso   1.000  C
  H118     1.0000 0.07400  0.43760  0.73600  Biso   1.000  H
  H119     1.0000 0.14470  0.45920  0.68510  Biso   1.000  H
  C120     1.0000 0.11300  0.51210  0.75070  Biso   1.000  C
  H120     1.0000 0.19220  0.50790  0.77740  Biso   1.000  H
  H121     1.0000 0.04740  0.51750  0.77490  Biso   1.000  H
  H122     1.0000 0.11770  0.53900  0.72430  Biso   1.000  H
  C121     1.0000 0.48560  0.68400  0.39830  Biso   1.000  C
  C122     1.0000 0.52690  0.73370  0.39120  Biso   1.000  C
  C123     1.0000 0.46760  0.76950  0.41700  Biso   1.000  C
  H123     1.0000 0.40060  0.76280  0.43760  Biso   1.000  H
  C124     1.0000 0.50780  0.81510  0.41220  Biso   1.000  C
  C125     1.0000 0.44220  0.85420  0.43990  Biso   1.000  C
  C126     1.0000 0.60170  0.82570  0.38200  Biso   1.000  C
  H124     1.0000 0.62520  0.85730  0.37780  Biso   1.000  H
  C127     1.0000 0.66330  0.79010  0.35710  Biso   1.000  C
  C128     1.0000 0.62350  0.74390  0.36050  Biso   1.000  C
  H125     1.0000 0.66250  0.71950  0.34190  Biso   1.000  H
  C129     1.0000 0.81640  0.84300  0.33180  Biso   1.000  C
  H126     1.0000 0.75700  0.86710  0.31350  Biso   1.000  H
  H127     1.0000 0.84170  0.85060  0.37500  Biso   1.000  H
  C130     1.0000 0.92780  0.84270  0.30110  Biso   1.000  C
  C131     1.0000 0.46200  0.51030  0.34240  Biso   1.000  C
  C132     1.0000 0.37870  0.48370  0.29390  Biso   1.000  C
  C133     1.0000 0.30080  0.50810  0.24990  Biso   1.000  C
  H128     1.0000 0.29980  0.54130  0.25090  Biso   1.000  H
  C134     1.0000 0.22560  0.48500  0.20500  Biso   1.000  C
  C135     1.0000 0.14680  0.51240  0.15700  Biso   1.000  C
  C136     1.0000 0.22680  0.43600  0.20160  Biso   1.000  C
  H129     1.0000 0.17700  0.42000  0.16930  Biso   1.000  H
  C137     1.0000 0.30280  0.41170  0.24660  Biso   1.000  C
  C138     1.0000 0.37980  0.43530  0.29270  Biso   1.000  C
  H130     1.0000 0.43250  0.41820  0.32290  Biso   1.000  H
  C139     1.0000 0.24650  0.33810  0.20060  Biso   1.000  C
  H131     1.0000 0.15940  0.34890  0.19200  Biso   1.000  H
  H132     1.0000 0.28440  0.34300  0.16420  Biso   1.000  H
  C140     1.0000 0.25100  0.28680  0.21710  Biso   1.000  C
  H133     1.0000 0.20560  0.26870  0.18360  Biso   1.000  H
  H134     1.0000 0.21280  0.28220  0.25300  Biso   1.000  H
  H135     1.0000 0.33740  0.27640  0.22530  Biso   1.000  H
  C141     1.0000 0.06140  0.68620  0.09670  Biso   1.000  C
  C142     1.0000 0.10420  0.73590  0.10290  Biso   1.000  C
  C143     1.0000 0.02060  0.77090  0.07930  Biso   1.000  C
  H136     1.0000 0.93840  0.76320  0.06110  Biso   1.000  H
  C144     1.0000 0.06030  0.81710  0.08300  Biso   1.000  C
  C145     1.0000 0.97380  0.85480  0.05840  Biso   1.000  C
  C146     1.0000 0.18030  0.82890  0.10870  Biso   1.000  C
  H137     1.0000 0.20580  0.86070  0.11140  Biso   1.000  H
  C147     1.0000 0.26290  0.79350  0.13060  Biso   1.000  C
  C148     1.0000 0.22450  0.74670  0.12760  Biso   1.000  C
  H138     1.0000 0.28110  0.72260  0.14250  Biso   1.000  H
  C149     1.0000 0.42470  0.85030  0.16320  Biso   1.000  C
  H139     1.0000 0.41470  0.86470  0.12270  Biso   1.000  H
  H140     1.0000 0.37710  0.86880  0.18860  Biso   1.000  H
  C150     1.0000 0.55810  0.84800  0.19090  Biso   1.000  C
  H141     1.0000 0.59940  0.82370  0.17070  Biso   1.000  H
  H142     1.0000 0.59740  0.87820  0.18630  Biso   1.000  H
  H143     1.0000 0.56520  0.84040  0.23370  Biso   1.000  H
  C151     1.0000 0.20730  0.54620  0.99410  Biso   1.000  C
  C152     1.0000 0.30730  0.53780  0.95890  Biso   1.000  C
  C153     1.0000 0.42630  0.55800  0.97600  Biso   1.000  C
  H144     1.0000 0.43960  0.57990  0.00820  Biso   1.000  H
  C154     1.0000 0.52360  0.54640  0.94620  Biso   1.000  C
  C155     1.0000 0.65010  0.56480  0.96800  Biso   1.000  C
  C156     1.0000 0.50470  0.51380  0.89840  Biso   1.000  C
  H145     1.0000 0.57110  0.50520  0.87830  Biso   1.000  H
  C157     1.0000 0.38630  0.49430  0.88110  Biso   1.000  C
  C158     1.0000 0.28790  0.50630  0.91040  Biso   1.000  C
  H146     1.0000 0.20810  0.49320  0.89760  Biso   1.000  H
  C159     1.0000 0.45840  0.44480  0.80680  Biso   1.000  C
  C160     1.0000 0.52800  0.41860  0.83680  Biso   1.000  C
  H147     1.0000 0.59290  0.40890  0.81420  Biso   1.000  H
  H148     1.0000 0.48240  0.39110  0.84690  Biso   1.000  H
  H149     1.0000 0.56610  0.43440  0.87390  Biso   1.000  H
  O58      1.0000 0.61470  0.52190  0.51620  Biso   1.000  O
  O59      1.0000 0.39250  0.57590  0.45000  Biso   1.000  O
  H150     1.0000 0.34160  0.55200  0.42450  Biso   1.000  H
  O60      1.0000 0.69130  0.57870  0.46560  Biso   1.000  O
  O61      1.0000 0.93410  0.57510  0.04750  Biso   1.000  O
  H151     1.0000 0.90490  0.55070  0.07380  Biso   1.000  H
  O62      1.0000 0.14670  0.59430  0.48920  Biso   1.000  O
  O63      1.0000 0.26210  0.54610  0.55400  Biso   1.000  O
  O64      1.0000 0.56450  0.65290  0.39500  Biso   1.000  O
  O65      1.0000 0.37820  0.67770  0.40710  Biso   1.000  O
  O66      1.0000 0.35770  0.84390  0.46820  Biso   1.000  O
  O67      1.0000 0.48010  0.89500  0.43120  Biso   1.000  O
  O68      1.0000 0.75790  0.79700  0.32550  Biso   1.000  O
  O69      1.0000 0.51650  0.49170  0.38680  Biso   1.000  O
  O70      1.0000 0.46700  0.55440  0.33350  Biso   1.000  O
  O71      1.0000 0.15270  0.55710  0.16210  Biso   1.000  O
  O72      1.0000 0.07860  0.49330  0.11370  Biso   1.000  O
  O73      1.0000 0.31330  0.36390  0.25010  Biso   1.000  O
  O74      1.0000 0.14650  0.65550  0.09880  Biso   1.000  O
  O75      1.0000 0.94790  0.67850  0.09070  Biso   1.000  O
  O76      1.0000 0.86630  0.84350  0.03240  Biso   1.000  O
  O77      1.0000 0.01380  0.89600  0.06490  Biso   1.000  O
  O78      1.0000 0.38230  0.80130  0.15920  Biso   1.000  O
  O79      1.0000 0.22710  0.57730  0.03390  Biso   1.000  O
  O80      1.0000 0.10980  0.52109  0.98420  Biso   1.000  O
  O81      1.0000 0.73510  0.54920  0.94170  Biso   1.000  O
  O82      1.0000 0.66360  0.59310  0.01110  Biso   1.000  O
  O83      1.0000 0.35950  0.46090  0.83700  Biso   1.000  O
  Co13     1.0000 0.53824  0.58532  0.40880  Biso   1.000  Co
  Co14     1.0000 0.27274  0.63192  0.45013  Biso   1.000  Co
  Co15     1.0000 0.10390  0.58991  0.08525  Biso   1.000  Co
  Co16     1.0000 0.81536  0.63091  0.04874  Biso   1.000  Co
  Co17     1.0000 0.93509  0.95613  0.03269  Biso   1.000  Co
  Co18     1.0000 0.92008  0.54473  0.96418  Biso   1.000  Co
  O84      1.0000 0.95160  0.49320  0.68970  Biso   1.000  O
  C161     1.0000 0.06600  0.48460  0.72780  Biso   1.000  C
  H152     1.0000 0.05700  0.45950  0.75700  Biso   1.000  H
  H153     1.0000 0.12980  0.47470  0.70370  Biso   1.000  H
  C162     1.0000 0.10800  0.53390  0.76320  Biso   1.000  C
  H154     1.0000 0.18720  0.52950  0.79010  Biso   1.000  H
  H155     1.0000 0.04450  0.54330  0.78680  Biso   1.000  H
  H156     1.0000 0.11700  0.55840  0.73380  Biso   1.000  H
  C163     1.0000 0.29200  0.28670  0.21080  Biso   1.000  C
  H157     1.0000 0.24950  0.26700  0.17820  Biso   1.000  H
  H158     1.0000 0.27340  0.27550  0.24930  Biso   1.000  H
  H159     1.0000 0.38160  0.28540  0.21120  Biso   1.000  H
  C164     1.0000 0.54800  0.84940  0.21200  Biso   1.000  C
  H160     1.0000 0.55690  0.81870  0.23160  Biso   1.000  H
  H161     1.0000 0.61990  0.85520  0.19210  Biso   1.000  H
  H162     1.0000 0.54380  0.87370  0.24220  Biso   1.000  H
  C165     1.0000 0.41740  0.39800  0.77310  Biso   1.000  C
  H163     1.0000 0.48390  0.38690  0.75240  Biso   1.000  H
  H164     1.0000 0.34240  0.40350  0.74350  Biso   1.000  H
  H165     1.0000 0.40020  0.37450  0.80210  Biso   1.000  H
  H166     1.0000 0.96760  0.87350  0.30510  Biso   1.000  H
  H167     1.0000 0.90200  0.83540  0.25830  Biso   1.000  H
  H168     1.0000 0.98660  0.81890  0.31960  Biso   1.000  H
  H169     1.0000 0.93660  0.81170  0.28360  Biso   1.000  H
  H170     1.0000 0.00210  0.84980  0.33040  Biso   1.000  H
  H171     1.0000 0.91750  0.86630  0.26910  Biso   1.000  H
  C166     1.0000 0.79740  0.04850  0.99390  Biso   1.000  C
  C167     1.0000 0.67420  0.04130  0.95750  Biso   1.000  C
  C168     1.0000 0.56760  0.05800  0.97800  Biso   1.000  C
  H172     1.0000 0.57550  0.07580  0.01390  Biso   1.000  H
  C169     1.0000 0.45020  0.04830  0.94550  Biso   1.000  C
  C170     1.0000 0.33880  0.06420  0.96940  Biso   1.000  C
  C171     1.0000 0.43700  0.02280  0.89220  Biso   1.000  C
  H173     1.0000 0.35710  0.01640  0.87010  Biso   1.000  H
  C172     1.0000 0.54140  0.00700  0.87210  Biso   1.000  C
  C173     1.0000 0.65930  0.01650  0.90330  Biso   1.000  C
  H174     1.0000 0.73010  0.00600  0.88770  Biso   1.000  H
  O85      1.0000 0.53600  0.97440  0.82690  Biso   1.000  O
  C174     1.0000 0.42000  0.96520  0.79000  Biso   1.000  C
  H175     1.0000 0.42600  0.93760  0.76400  Biso   1.000  H
  H176     1.0000 0.35530  0.95920  0.81490  Biso   1.000  H
  C175     1.0000 0.38700  0.01210  0.74930  Biso   1.000  C
  H177     1.0000 0.30780  0.00790  0.72260  Biso   1.000  H
  H178     1.0000 0.45260  0.01750  0.72510  Biso   1.000  H
  H179     1.0000 0.38230  0.03900  0.77570  Biso   1.000  H
  C176     1.0000 0.01440  0.18400  0.10170  Biso   1.000  C
  C177     1.0000 0.97310  0.23370  0.10880  Biso   1.000  C
  C178     1.0000 0.03240  0.26950  0.08300  Biso   1.000  C
  H180     1.0000 0.09940  0.26280  0.06240  Biso   1.000  H
  C179     1.0000 0.99220  0.31510  0.08780  Biso   1.000  C
  C180     1.0000 0.05780  0.35420  0.06010  Biso   1.000  C
  C181     1.0000 0.89830  0.32570  0.11800  Biso   1.000  C
  H181     1.0000 0.87480  0.35730  0.12220  Biso   1.000  H
  C182     1.0000 0.83670  0.29010  0.14290  Biso   1.000  C
  C183     1.0000 0.87650  0.24390  0.13950  Biso   1.000  C
  H182     1.0000 0.83750  0.21950  0.15810  Biso   1.000  H
  C184     1.0000 0.68360  0.34300  0.16820  Biso   1.000  C
  H183     1.0000 0.74300  0.36710  0.18650  Biso   1.000  H
  H184     1.0000 0.65830  0.35060  0.12500  Biso   1.000  H
  C185     1.0000 0.57220  0.34270  0.19890  Biso   1.000  C
  C186     1.0000 0.03800  0.01030  0.15760  Biso   1.000  C
  C187     1.0000 0.12130  0.98370  0.20610  Biso   1.000  C
  C188     1.0000 0.19920  0.00810  0.25010  Biso   1.000  C
  H185     1.0000 0.20020  0.04130  0.24910  Biso   1.000  H
  C189     1.0000 0.27440  0.98500  0.29500  Biso   1.000  C
  C190     1.0000 0.35320  0.01240  0.34300  Biso   1.000  C
  C191     1.0000 0.27320  0.93600  0.29840  Biso   1.000  C
  H186     1.0000 0.32300  0.92000  0.33070  Biso   1.000  H
  C192     1.0000 0.19720  0.91170  0.25340  Biso   1.000  C
  C193     1.0000 0.12020  0.93530  0.20730  Biso   1.000  C
  H187     1.0000 0.06750  0.91820  0.17710  Biso   1.000  H
  C194     1.0000 0.25350  0.83810  0.29940  Biso   1.000  C
  H188     1.0000 0.34060  0.84890  0.30800  Biso   1.000  H
  H189     1.0000 0.21560  0.84300  0.33580  Biso   1.000  H
  C195     1.0000 0.24900  0.78680  0.28290  Biso   1.000  C
  H190     1.0000 0.29440  0.76870  0.31640  Biso   1.000  H
  H191     1.0000 0.28720  0.78220  0.24700  Biso   1.000  H
  H192     1.0000 0.16260  0.77640  0.27470  Biso   1.000  H
  C196     1.0000 0.43860  0.18620  0.40330  Biso   1.000  C
  C197     1.0000 0.39580  0.23590  0.39710  Biso   1.000  C
  C198     1.0000 0.47940  0.27090  0.42070  Biso   1.000  C
  H193     1.0000 0.56160  0.26320  0.43890  Biso   1.000  H
  C199     1.0000 0.43970  0.31710  0.41700  Biso   1.000  C
  C200     1.0000 0.52620  0.35480  0.44160  Biso   1.000  C
  C201     1.0000 0.31970  0.32890  0.39130  Biso   1.000  C
  H194     1.0000 0.29420  0.36070  0.38860  Biso   1.000  H
  C202     1.0000 0.23710  0.29350  0.36940  Biso   1.000  C
  C203     1.0000 0.27550  0.24670  0.37240  Biso   1.000  C
  H195     1.0000 0.21890  0.22260  0.35750  Biso   1.000  H
  C204     1.0000 0.07530  0.35030  0.33680  Biso   1.000  C
  H196     1.0000 0.08530  0.36470  0.37730  Biso   1.000  H
  H197     1.0000 0.12290  0.36880  0.31140  Biso   1.000  H
  C205     1.0000 0.94190  0.34800  0.30910  Biso   1.000  C
  H198     1.0000 0.90060  0.32370  0.32930  Biso   1.000  H
  H199     1.0000 0.90260  0.37820  0.31370  Biso   1.000  H
  H200     1.0000 0.93480  0.34040  0.26630  Biso   1.000  H
  C206     1.0000 0.29270  0.04620  0.50590  Biso   1.000  C
  C207     1.0000 0.19270  0.03780  0.54110  Biso   1.000  C
  C208     1.0000 0.07370  0.05800  0.52400  Biso   1.000  C
  H201     1.0000 0.06040  0.07990  0.49180  Biso   1.000  H
  C209     1.0000 0.97640  0.04640  0.55380  Biso   1.000  C
  C210     1.0000 0.84990  0.06480  0.53200  Biso   1.000  C
  C211     1.0000 0.99530  0.01380  0.60160  Biso   1.000  C
  H202     1.0000 0.92890  0.00520  0.62170  Biso   1.000  H
  C212     1.0000 0.11370  0.99430  0.61890  Biso   1.000  C
  C213     1.0000 0.21210  0.00630  0.58960  Biso   1.000  C
  H203     1.0000 0.29190  0.99320  0.60240  Biso   1.000  H
  C214     1.0000 0.04160  0.94480  0.69320  Biso   1.000  C
  C215     1.0000 0.97200  0.91860  0.66320  Biso   1.000  C
  H204     1.0000 0.90710  0.90890  0.68580  Biso   1.000  H
  H205     1.0000 0.01760  0.89110  0.65310  Biso   1.000  H
  H206     1.0000 0.93390  0.93440  0.62610  Biso   1.000  H
  O86      1.0000 0.88530  0.02190  0.98380  Biso   1.000  O
  O87      1.0000 0.10750  0.07590  0.05000  Biso   1.000  O
  H207     1.0000 0.15840  0.05200  0.07550  Biso   1.000  H
  O88      1.0000 0.80870  0.07870  0.03440  Biso   1.000  O
  O89      1.0000 0.56590  0.07510  0.45250  Biso   1.000  O
  H208     1.0000 0.59510  0.05070  0.42620  Biso   1.000  H
  O90      1.0000 0.35330  0.09430  0.01080  Biso   1.000  O
  O91      1.0000 0.23790  0.04610  0.94600  Biso   1.000  O
  O92      1.0000 0.93550  0.15290  0.10500  Biso   1.000  O
  O93      1.0000 0.12180  0.17770  0.09290  Biso   1.000  O
  O94      1.0000 0.14230  0.34390  0.03180  Biso   1.000  O
  O95      1.0000 0.01990  0.39500  0.06880  Biso   1.000  O
  O96      1.0000 0.74210  0.29700  0.17450  Biso   1.000  O
  O97      1.0000 0.98350  0.99170  0.11320  Biso   1.000  O
  O98      1.0000 0.03300  0.05440  0.16650  Biso   1.000  O
  O99      1.0000 0.34730  0.05710  0.33790  Biso   1.000  O
  O100     1.0000 0.42140  0.99330  0.38630  Biso   1.000  O
  O101     1.0000 0.18670  0.86390  0.24990  Biso   1.000  O
  O102     1.0000 0.35350  0.15550  0.40120  Biso   1.000  O
  O103     1.0000 0.55210  0.17850  0.40930  Biso   1.000  O
  O104     1.0000 0.63370  0.34350  0.46760  Biso   1.000  O
  O105     1.0000 0.48620  0.39600  0.43510  Biso   1.000  O
  O106     1.0000 0.11770  0.30130  0.34080  Biso   1.000  O
  O107     1.0000 0.27290  0.07730  0.46610  Biso   1.000  O
  O108     1.0000 0.39020  0.02109  0.51580  Biso   1.000  O
  O109     1.0000 0.76490  0.04920  0.55830  Biso   1.000  O
  O110     1.0000 0.83640  0.09310  0.48890  Biso   1.000  O
  O111     1.0000 0.14050  0.96090  0.66300  Biso   1.000  O
  Co19     1.0000 0.96176  0.08532  0.09120  Biso   1.000  Co
  Co20     1.0000 0.22726  0.13192  0.04987  Biso   1.000  Co
  Co21     1.0000 0.39610  0.08991  0.41475  Biso   1.000  Co
  Co22     1.0000 0.68464  0.13091  0.45126  Biso   1.000  Co
  Co23     1.0000 0.56491  0.45613  0.46731  Biso   1.000  Co
  Co24     1.0000 0.57992  0.04473  0.53582  Biso   1.000  Co
  O112     1.0000 0.54840  0.99320  0.81030  Biso   1.000  O
  C216     1.0000 0.43400  0.98460  0.77220  Biso   1.000  C
  H209     1.0000 0.44300  0.95950  0.74300  Biso   1.000  H
  H210     1.0000 0.37020  0.97470  0.79630  Biso   1.000  H
  C217     1.0000 0.39200  0.03390  0.73680  Biso   1.000  C
  H211     1.0000 0.31280  0.02950  0.70990  Biso   1.000  H
  H212     1.0000 0.45550  0.04330  0.71320  Biso   1.000  H
  H213     1.0000 0.38300  0.05840  0.76620  Biso   1.000  H
  C218     1.0000 0.20800  0.78670  0.28920  Biso   1.000  C
  H214     1.0000 0.25050  0.76700  0.32180  Biso   1.000  H
  H215     1.0000 0.22660  0.77550  0.25070  Biso   1.000  H
  H216     1.0000 0.11840  0.78540  0.28880  Biso   1.000  H
  C219     1.0000 0.95200  0.34940  0.28800  Biso   1.000  C
  H217     1.0000 0.94310  0.31870  0.26840  Biso   1.000  H
  H218     1.0000 0.88010  0.35520  0.30790  Biso   1.000  H
  H219     1.0000 0.95620  0.37370  0.25780  Biso   1.000  H
  C220     1.0000 0.08260  0.89800  0.72690  Biso   1.000  C
  H220     1.0000 0.01610  0.88690  0.74760  Biso   1.000  H
  H221     1.0000 0.15760  0.90350  0.75650  Biso   1.000  H
  H222     1.0000 0.09980  0.87450  0.69790  Biso   1.000  H
  H223     1.0000 0.53240  0.37350  0.19490  Biso   1.000  H
  H224     1.0000 0.59800  0.33540  0.24170  Biso   1.000  H
  H225     1.0000 0.51340  0.31890  0.18040  Biso   1.000  H
  H226     1.0000 0.56340  0.31170  0.21640  Biso   1.000  H
  H227     1.0000 0.49790  0.34980  0.16960  Biso   1.000  H
  H228     1.0000 0.58250  0.36630  0.23090  Biso   1.000  H
