data_image0
_cell_length_a       37.737
_cell_length_b       11.102
_cell_length_c       6.811
_cell_angle_alpha    90
_cell_angle_beta     91.06
_cell_angle_gamma    90

_symmetry_space_group_name_H-M    "P 1"
_symmetry_int_tables_number       1

loop_
  _symmetry_equiv_pos_as_xyz
  'x, y, z'

loop_
  _atom_site_label
  _atom_site_occupancy
  _atom_site_fract_x
  _atom_site_fract_y
  _atom_site_fract_z
  _atom_site_thermal_displace_type
  _atom_site_B_iso_or_equiv
  _atom_site_type_symbol
  Er1      1.0000 0.36868  0.29195  0.20090  Biso   1.000  Er
  O1       1.0000 0.41660  0.42590  0.27950  Biso   1.000  O
  O2       1.0000 0.42074  0.24360  0.39640  Biso   1.000  O
  O3       1.0000 0.34838  0.35420  0.49940  Biso   1.000  O
  O4       1.0000 0.34030  0.53020  0.64180  Biso   1.000  O
  O5       1.0000 0.17670  0.26700  0.99520  Biso   1.000  O
  O6       1.0000 0.16608  0.39270  0.23810  Biso   1.000  O
  C1       1.0000 0.43340  0.34750  0.37880  Biso   1.000  C
  C2       1.0000 0.46870  0.37660  0.46580  Biso   1.000  C
  H1       1.0000 0.48160  0.31530  0.52640  Biso   1.000  H
  C3       1.0000 0.48230  0.48500  0.46110  Biso   1.000  C
  H2       1.0000 0.46880  0.54640  0.40500  Biso   1.000  H
  C4       1.0000 0.32920  0.43700  0.55980  Biso   1.000  C
  C5       1.0000 0.29090  0.44790  0.50900  Biso   1.000  C
  C6       1.0000 0.27420  0.36600  0.40700  Biso   1.000  C
  C7       1.0000 0.23840  0.38110  0.34400  Biso   1.000  C
  C8       1.0000 0.22260  0.31590  0.20700  Biso   1.000  C
  C9       1.0000 0.18510  0.32190  0.15090  Biso   1.000  C
  C10      1.0000 0.28950  0.37900  0.60800  Biso   1.000  C
  C11      1.0000 0.27380  0.31400  0.42900  Biso   1.000  C
  C12      1.0000 0.23400  0.31000  0.43900  Biso   1.000  C
  C13      1.0000 0.21830  0.24100  0.26000  Biso   1.000  C
  Er2      1.0000 0.86868  0.79195  0.20090  Biso   1.000  Er
  O7       1.0000 0.91660  0.92590  0.27950  Biso   1.000  O
  O8       1.0000 0.92074  0.74360  0.39640  Biso   1.000  O
  O9       1.0000 0.84838  0.85420  0.49940  Biso   1.000  O
  O10      1.0000 0.84030  0.03020  0.64180  Biso   1.000  O
  O11      1.0000 0.67670  0.76700  0.99520  Biso   1.000  O
  O12      1.0000 0.66608  0.89270  0.23810  Biso   1.000  O
  C14      1.0000 0.93340  0.84750  0.37880  Biso   1.000  C
  C15      1.0000 0.96870  0.87660  0.46580  Biso   1.000  C
  H3       1.0000 0.98160  0.81530  0.52640  Biso   1.000  H
  C16      1.0000 0.98230  0.98500  0.46110  Biso   1.000  C
  H4       1.0000 0.96880  0.04640  0.40500  Biso   1.000  H
  C17      1.0000 0.82920  0.93700  0.55980  Biso   1.000  C
  C18      1.0000 0.79090  0.94790  0.50900  Biso   1.000  C
  C19      1.0000 0.77420  0.86600  0.40700  Biso   1.000  C
  C20      1.0000 0.73840  0.88110  0.34400  Biso   1.000  C
  C21      1.0000 0.72260  0.81590  0.20700  Biso   1.000  C
  C22      1.0000 0.68510  0.82190  0.15090  Biso   1.000  C
  C23      1.0000 0.78950  0.87900  0.60800  Biso   1.000  C
  C24      1.0000 0.77380  0.81400  0.42900  Biso   1.000  C
  C25      1.0000 0.73400  0.81000  0.43900  Biso   1.000  C
  C26      1.0000 0.71830  0.74100  0.26000  Biso   1.000  C
  Er3      1.0000 0.63132  0.29195  0.29910  Biso   1.000  Er
  O13      1.0000 0.58340  0.42590  0.22050  Biso   1.000  O
  O14      1.0000 0.57926  0.24360  0.10360  Biso   1.000  O
  O15      1.0000 0.65162  0.35420  0.00060  Biso   1.000  O
  O16      1.0000 0.65970  0.53020  0.85820  Biso   1.000  O
  O17      1.0000 0.82330  0.26700  0.50480  Biso   1.000  O
  O18      1.0000 0.83392  0.39270  0.26190  Biso   1.000  O
  C27      1.0000 0.56660  0.34750  0.12120  Biso   1.000  C
  C28      1.0000 0.53130  0.37660  0.03420  Biso   1.000  C
  H5       1.0000 0.51840  0.31530  0.97360  Biso   1.000  H
  C29      1.0000 0.51770  0.48500  0.03890  Biso   1.000  C
  H6       1.0000 0.53120  0.54640  0.09500  Biso   1.000  H
  C30      1.0000 0.67080  0.43700  0.94020  Biso   1.000  C
  C31      1.0000 0.70910  0.44790  0.99100  Biso   1.000  C
  C32      1.0000 0.72580  0.36600  0.09300  Biso   1.000  C
  C33      1.0000 0.76160  0.38110  0.15600  Biso   1.000  C
  C34      1.0000 0.77740  0.31590  0.29300  Biso   1.000  C
  C35      1.0000 0.81490  0.32190  0.34910  Biso   1.000  C
  C36      1.0000 0.71050  0.37900  0.89200  Biso   1.000  C
  C37      1.0000 0.72620  0.31400  0.07100  Biso   1.000  C
  C38      1.0000 0.76600  0.31000  0.06100  Biso   1.000  C
  C39      1.0000 0.78170  0.24100  0.24000  Biso   1.000  C
  Er4      1.0000 0.13132  0.79195  0.29910  Biso   1.000  Er
  O19      1.0000 0.08340  0.92590  0.22050  Biso   1.000  O
  O20      1.0000 0.07926  0.74360  0.10360  Biso   1.000  O
  O21      1.0000 0.15162  0.85420  0.00060  Biso   1.000  O
  O22      1.0000 0.15970  0.03020  0.85820  Biso   1.000  O
  O23      1.0000 0.32330  0.76700  0.50480  Biso   1.000  O
  O24      1.0000 0.33392  0.89270  0.26190  Biso   1.000  O
  C40      1.0000 0.06660  0.84750  0.12120  Biso   1.000  C
  C41      1.0000 0.03130  0.87660  0.03420  Biso   1.000  C
  H7       1.0000 0.01840  0.81530  0.97360  Biso   1.000  H
  C42      1.0000 0.01770  0.98500  0.03890  Biso   1.000  C
  H8       1.0000 0.03120  0.04640  0.09500  Biso   1.000  H
  C43      1.0000 0.17080  0.93700  0.94020  Biso   1.000  C
  C44      1.0000 0.20910  0.94790  0.99100  Biso   1.000  C
  C45      1.0000 0.22580  0.86600  0.09300  Biso   1.000  C
  C46      1.0000 0.26160  0.88110  0.15600  Biso   1.000  C
  C47      1.0000 0.27740  0.81590  0.29300  Biso   1.000  C
  C48      1.0000 0.31490  0.82190  0.34910  Biso   1.000  C
  C49      1.0000 0.21050  0.87900  0.89200  Biso   1.000  C
  C50      1.0000 0.22620  0.81400  0.07100  Biso   1.000  C
  C51      1.0000 0.26600  0.81000  0.06100  Biso   1.000  C
  C52      1.0000 0.28170  0.74100  0.24000  Biso   1.000  C
  Er5      1.0000 0.63132  0.70805  0.79910  Biso   1.000  Er
  O25      1.0000 0.58340  0.57410  0.72050  Biso   1.000  O
  O26      1.0000 0.57926  0.75640  0.60360  Biso   1.000  O
  O27      1.0000 0.65162  0.64580  0.50060  Biso   1.000  O
  O28      1.0000 0.65970  0.46980  0.35820  Biso   1.000  O
  O29      1.0000 0.82330  0.73300  0.00480  Biso   1.000  O
  O30      1.0000 0.83392  0.60730  0.76190  Biso   1.000  O
  C53      1.0000 0.56660  0.65250  0.62120  Biso   1.000  C
  C54      1.0000 0.53130  0.62340  0.53420  Biso   1.000  C
  H9       1.0000 0.51840  0.68470  0.47360  Biso   1.000  H
  C55      1.0000 0.51770  0.51500  0.53890  Biso   1.000  C
  H10      1.0000 0.53120  0.45360  0.59500  Biso   1.000  H
  C56      1.0000 0.67080  0.56300  0.44020  Biso   1.000  C
  C57      1.0000 0.70910  0.55210  0.49100  Biso   1.000  C
  C58      1.0000 0.72580  0.63400  0.59300  Biso   1.000  C
  C59      1.0000 0.76160  0.61890  0.65600  Biso   1.000  C
  C60      1.0000 0.77740  0.68410  0.79300  Biso   1.000  C
  C61      1.0000 0.81490  0.67810  0.84910  Biso   1.000  C
  C62      1.0000 0.71050  0.62100  0.39200  Biso   1.000  C
  C63      1.0000 0.72620  0.68600  0.57100  Biso   1.000  C
  C64      1.0000 0.76600  0.69000  0.56100  Biso   1.000  C
  C65      1.0000 0.78170  0.75900  0.74000  Biso   1.000  C
  Er6      1.0000 0.13132  0.20805  0.79910  Biso   1.000  Er
  O31      1.0000 0.08340  0.07410  0.72050  Biso   1.000  O
  O32      1.0000 0.07926  0.25640  0.60360  Biso   1.000  O
  O33      1.0000 0.15162  0.14580  0.50060  Biso   1.000  O
  O34      1.0000 0.15970  0.96980  0.35820  Biso   1.000  O
  O35      1.0000 0.32330  0.23300  0.00480  Biso   1.000  O
  O36      1.0000 0.33392  0.10730  0.76190  Biso   1.000  O
  C66      1.0000 0.06660  0.15250  0.62120  Biso   1.000  C
  C67      1.0000 0.03130  0.12340  0.53420  Biso   1.000  C
  H11      1.0000 0.01840  0.18470  0.47360  Biso   1.000  H
  C68      1.0000 0.01770  0.01500  0.53890  Biso   1.000  C
  H12      1.0000 0.03120  0.95360  0.59500  Biso   1.000  H
  C69      1.0000 0.17080  0.06300  0.44020  Biso   1.000  C
  C70      1.0000 0.20910  0.05210  0.49100  Biso   1.000  C
  C71      1.0000 0.22580  0.13400  0.59300  Biso   1.000  C
  C72      1.0000 0.26160  0.11890  0.65600  Biso   1.000  C
  C73      1.0000 0.27740  0.18410  0.79300  Biso   1.000  C
  C74      1.0000 0.31490  0.17810  0.84910  Biso   1.000  C
  C75      1.0000 0.21050  0.12100  0.39200  Biso   1.000  C
  C76      1.0000 0.22620  0.18600  0.57100  Biso   1.000  C
  C77      1.0000 0.26600  0.19000  0.56100  Biso   1.000  C
  C78      1.0000 0.28170  0.25900  0.74000  Biso   1.000  C
  Er7      1.0000 0.36868  0.70805  0.70090  Biso   1.000  Er
  O37      1.0000 0.41660  0.57410  0.77950  Biso   1.000  O
  O38      1.0000 0.42074  0.75640  0.89640  Biso   1.000  O
  O39      1.0000 0.34838  0.64580  0.99940  Biso   1.000  O
  O40      1.0000 0.34030  0.46980  0.14180  Biso   1.000  O
  O41      1.0000 0.17670  0.73300  0.49520  Biso   1.000  O
  O42      1.0000 0.16608  0.60730  0.73810  Biso   1.000  O
  C79      1.0000 0.43340  0.65250  0.87880  Biso   1.000  C
  C80      1.0000 0.46870  0.62340  0.96580  Biso   1.000  C
  H13      1.0000 0.48160  0.68470  0.02640  Biso   1.000  H
  C81      1.0000 0.48230  0.51500  0.96110  Biso   1.000  C
  H14      1.0000 0.46880  0.45360  0.90500  Biso   1.000  H
  C82      1.0000 0.32920  0.56300  0.05980  Biso   1.000  C
  C83      1.0000 0.29090  0.55210  0.00900  Biso   1.000  C
  C84      1.0000 0.27420  0.63400  0.90700  Biso   1.000  C
  C85      1.0000 0.23840  0.61890  0.84400  Biso   1.000  C
  C86      1.0000 0.22260  0.68410  0.70700  Biso   1.000  C
  C87      1.0000 0.18510  0.67810  0.65090  Biso   1.000  C
  C88      1.0000 0.28950  0.62100  0.10800  Biso   1.000  C
  C89      1.0000 0.27380  0.68600  0.92900  Biso   1.000  C
  C90      1.0000 0.23400  0.69000  0.93900  Biso   1.000  C
  C91      1.0000 0.21830  0.75900  0.76000  Biso   1.000  C
  Er8      1.0000 0.86868  0.20805  0.70090  Biso   1.000  Er
  O43      1.0000 0.91660  0.07410  0.77950  Biso   1.000  O
  O44      1.0000 0.92074  0.25640  0.89640  Biso   1.000  O
  O45      1.0000 0.84838  0.14580  0.99940  Biso   1.000  O
  O46      1.0000 0.84030  0.96980  0.14180  Biso   1.000  O
  O47      1.0000 0.67670  0.23300  0.49520  Biso   1.000  O
  O48      1.0000 0.66608  0.10730  0.73810  Biso   1.000  O
  C92      1.0000 0.93340  0.15250  0.87880  Biso   1.000  C
  C93      1.0000 0.96870  0.12340  0.96580  Biso   1.000  C
  H15      1.0000 0.98160  0.18470  0.02640  Biso   1.000  H
  C94      1.0000 0.98230  0.01500  0.96110  Biso   1.000  C
  H16      1.0000 0.96880  0.95360  0.90500  Biso   1.000  H
  C95      1.0000 0.82920  0.06300  0.05980  Biso   1.000  C
  C96      1.0000 0.79090  0.05210  0.00900  Biso   1.000  C
  C97      1.0000 0.77420  0.13400  0.90700  Biso   1.000  C
  C98      1.0000 0.73840  0.11890  0.84400  Biso   1.000  C
  C99      1.0000 0.72260  0.18410  0.70700  Biso   1.000  C
  C100     1.0000 0.68510  0.17810  0.65090  Biso   1.000  C
  C101     1.0000 0.78950  0.12100  0.10800  Biso   1.000  C
  C102     1.0000 0.77380  0.18600  0.92900  Biso   1.000  C
  C103     1.0000 0.73400  0.19000  0.93900  Biso   1.000  C
  C104     1.0000 0.71830  0.25900  0.76000  Biso   1.000  C
