data_image0
_cell_length_a       18.8684
_cell_length_b       18.8684
_cell_length_c       51.0147
_cell_angle_alpha    90
_cell_angle_beta     90
_cell_angle_gamma    120

_symmetry_space_group_name_H-M    "P 1"
_symmetry_int_tables_number       1

loop_
  _symmetry_equiv_pos_as_xyz
  'x, y, z'

loop_
  _atom_site_label
  _atom_site_occupancy
  _atom_site_fract_x
  _atom_site_fract_y
  _atom_site_fract_z
  _atom_site_thermal_displace_type
  _atom_site_B_iso_or_equiv
  _atom_site_type_symbol
  O1       1.0000 0.88942  0.51765  0.49593  Biso   1.000  O
  O2       1.0000 0.96599  0.55611  0.53226  Biso   1.000  O
  O3       1.0000 0.99272  0.87170  0.72281  Biso   1.000  O
  C1       1.0000 0.90626  0.54494  0.51901  Biso   1.000  C
  C2       1.0000 0.84804  0.56825  0.53119  Biso   1.000  C
  C3       1.0000 0.86445  0.60291  0.55592  Biso   1.000  C
  H1       1.0000 0.91200  0.61290  0.56450  Biso   1.000  H
  C4       1.0000 0.83740  0.79310  0.67575  Biso   1.000  C
  H2       1.0000 0.79580  0.79710  0.68410  Biso   1.000  H
  C5       1.0000 0.83130  0.76940  0.65099  Biso   1.000  C
  C6       1.0000 0.75620  0.75910  0.63474  Biso   1.000  C
  H3       1.0000 0.70710  0.71240  0.64110  Biso   1.000  H
  H4       1.0000 0.76380  0.75120  0.61660  Biso   1.000  H
  H5       1.0000 0.75170  0.80730  0.63660  Biso   1.000  H
  C7       1.0000 0.81020  0.74990  0.65090  Biso   1.000  C
  H6       1.0000 0.76000  0.73530  0.64330  Biso   1.000  H
  O4       1.0000 0.48235  0.37177  0.49593  Biso   1.000  O
  O5       1.0000 0.44389  0.40988  0.53226  Biso   1.000  O
  O6       1.0000 0.12830  0.12102  0.72281  Biso   1.000  O
  C8       1.0000 0.45506  0.36132  0.51901  Biso   1.000  C
  C9       1.0000 0.43175  0.27979  0.53119  Biso   1.000  C
  C10      1.0000 0.39709  0.26154  0.55592  Biso   1.000  C
  H7       1.0000 0.38710  0.29910  0.56450  Biso   1.000  H
  C11      1.0000 0.20690  0.04430  0.67575  Biso   1.000  C
  H8       1.0000 0.20290  0.99870  0.68410  Biso   1.000  H
  C12      1.0000 0.23060  0.06190  0.65099  Biso   1.000  C
  C13      1.0000 0.24090  0.99710  0.63474  Biso   1.000  C
  H9       1.0000 0.28760  0.99470  0.64110  Biso   1.000  H
  H10      1.0000 0.24880  0.01260  0.61660  Biso   1.000  H
  H11      1.0000 0.19270  0.94440  0.63660  Biso   1.000  H
  C14      1.0000 0.25010  0.06030  0.65090  Biso   1.000  C
  H12      1.0000 0.26470  0.02470  0.64330  Biso   1.000  H
  O7       1.0000 0.62823  0.11058  0.49593  Biso   1.000  O
  O8       1.0000 0.59012  0.03401  0.53226  Biso   1.000  O
  O9       1.0000 0.87898  0.00728  0.72281  Biso   1.000  O
  C15      1.0000 0.63868  0.09374  0.51901  Biso   1.000  C
  C16      1.0000 0.72021  0.15196  0.53119  Biso   1.000  C
  C17      1.0000 0.73846  0.13555  0.55592  Biso   1.000  C
  H13      1.0000 0.70090  0.08800  0.56450  Biso   1.000  H
  C18      1.0000 0.95570  0.16260  0.67575  Biso   1.000  C
  H14      1.0000 0.00130  0.20420  0.68410  Biso   1.000  H
  C19      1.0000 0.93810  0.16870  0.65099  Biso   1.000  C
  C20      1.0000 0.00290  0.24380  0.63474  Biso   1.000  C
  H15      1.0000 0.00530  0.29290  0.64110  Biso   1.000  H
  H16      1.0000 0.98740  0.23620  0.61660  Biso   1.000  H
  H17      1.0000 0.05560  0.24830  0.63660  Biso   1.000  H
  C21      1.0000 0.93970  0.18980  0.65090  Biso   1.000  C
  H18      1.0000 0.97530  0.24000  0.64330  Biso   1.000  H
  O10      1.0000 0.11058  0.48235  0.99593  Biso   1.000  O
  O11      1.0000 0.03401  0.44389  0.03226  Biso   1.000  O
  O12      1.0000 0.00728  0.12830  0.22281  Biso   1.000  O
  C22      1.0000 0.09374  0.45506  0.01901  Biso   1.000  C
  C23      1.0000 0.15196  0.43175  0.03119  Biso   1.000  C
  C24      1.0000 0.13555  0.39709  0.05592  Biso   1.000  C
  H19      1.0000 0.08800  0.38710  0.06450  Biso   1.000  H
  C25      1.0000 0.16260  0.20690  0.17575  Biso   1.000  C
  H20      1.0000 0.20420  0.20290  0.18410  Biso   1.000  H
  C26      1.0000 0.16870  0.23060  0.15099  Biso   1.000  C
  C27      1.0000 0.24380  0.24090  0.13474  Biso   1.000  C
  H21      1.0000 0.29290  0.28760  0.14110  Biso   1.000  H
  H22      1.0000 0.23620  0.24880  0.11660  Biso   1.000  H
  H23      1.0000 0.24830  0.19270  0.13660  Biso   1.000  H
  C28      1.0000 0.18980  0.25010  0.15090  Biso   1.000  C
  H24      1.0000 0.24000  0.26470  0.14330  Biso   1.000  H
  O13      1.0000 0.51765  0.62823  0.99593  Biso   1.000  O
  O14      1.0000 0.55611  0.59012  0.03226  Biso   1.000  O
  O15      1.0000 0.87170  0.87898  0.22281  Biso   1.000  O
  C29      1.0000 0.54494  0.63868  0.01901  Biso   1.000  C
  C30      1.0000 0.56825  0.72021  0.03119  Biso   1.000  C
  C31      1.0000 0.60291  0.73846  0.05592  Biso   1.000  C
  H25      1.0000 0.61290  0.70090  0.06450  Biso   1.000  H
  C32      1.0000 0.79310  0.95570  0.17575  Biso   1.000  C
  H26      1.0000 0.79710  0.00130  0.18410  Biso   1.000  H
  C33      1.0000 0.76940  0.93810  0.15099  Biso   1.000  C
  C34      1.0000 0.75910  0.00290  0.13474  Biso   1.000  C
  H27      1.0000 0.71240  0.00530  0.14110  Biso   1.000  H
  H28      1.0000 0.75120  0.98740  0.11660  Biso   1.000  H
  H29      1.0000 0.80730  0.05560  0.13660  Biso   1.000  H
  C35      1.0000 0.74990  0.93970  0.15090  Biso   1.000  C
  H30      1.0000 0.73530  0.97530  0.14330  Biso   1.000  H
  O16      1.0000 0.37177  0.88942  0.99593  Biso   1.000  O
  O17      1.0000 0.40988  0.96599  0.03226  Biso   1.000  O
  O18      1.0000 0.12102  0.99272  0.22281  Biso   1.000  O
  C36      1.0000 0.36132  0.90626  0.01901  Biso   1.000  C
  C37      1.0000 0.27979  0.84804  0.03119  Biso   1.000  C
  C38      1.0000 0.26154  0.86445  0.05592  Biso   1.000  C
  H31      1.0000 0.29910  0.91200  0.06450  Biso   1.000  H
  C39      1.0000 0.04430  0.83740  0.17575  Biso   1.000  C
  H32      1.0000 0.99870  0.79580  0.18410  Biso   1.000  H
  C40      1.0000 0.06190  0.83130  0.15099  Biso   1.000  C
  C41      1.0000 0.99710  0.75620  0.13474  Biso   1.000  C
  H33      1.0000 0.99470  0.70710  0.14110  Biso   1.000  H
  H34      1.0000 0.01260  0.76380  0.11660  Biso   1.000  H
  H35      1.0000 0.94440  0.75170  0.13660  Biso   1.000  H
  C42      1.0000 0.06030  0.81020  0.15090  Biso   1.000  C
  H36      1.0000 0.02470  0.76000  0.14330  Biso   1.000  H
  O19      1.0000 0.51765  0.88942  0.50407  Biso   1.000  O
  O20      1.0000 0.55611  0.96599  0.46774  Biso   1.000  O
  O21      1.0000 0.87170  0.99272  0.27719  Biso   1.000  O
  C43      1.0000 0.54494  0.90626  0.48099  Biso   1.000  C
  C44      1.0000 0.56825  0.84804  0.46881  Biso   1.000  C
  C45      1.0000 0.60291  0.86445  0.44408  Biso   1.000  C
  H37      1.0000 0.61290  0.91200  0.43550  Biso   1.000  H
  C46      1.0000 0.79310  0.83740  0.32425  Biso   1.000  C
  H38      1.0000 0.79710  0.79580  0.31590  Biso   1.000  H
  C47      1.0000 0.76940  0.83130  0.34901  Biso   1.000  C
  C48      1.0000 0.75910  0.75620  0.36526  Biso   1.000  C
  H39      1.0000 0.71240  0.70710  0.35890  Biso   1.000  H
  H40      1.0000 0.75120  0.76380  0.38340  Biso   1.000  H
  H41      1.0000 0.80730  0.75170  0.36340  Biso   1.000  H
  C49      1.0000 0.74990  0.81020  0.34910  Biso   1.000  C
  H42      1.0000 0.73530  0.76000  0.35670  Biso   1.000  H
  O22      1.0000 0.37177  0.48235  0.50407  Biso   1.000  O
  O23      1.0000 0.40988  0.44389  0.46774  Biso   1.000  O
  O24      1.0000 0.12102  0.12830  0.27719  Biso   1.000  O
  C50      1.0000 0.36132  0.45506  0.48099  Biso   1.000  C
  C51      1.0000 0.27979  0.43175  0.46881  Biso   1.000  C
  C52      1.0000 0.26154  0.39709  0.44408  Biso   1.000  C
  H43      1.0000 0.29910  0.38710  0.43550  Biso   1.000  H
  C53      1.0000 0.04430  0.20690  0.32425  Biso   1.000  C
  H44      1.0000 0.99870  0.20290  0.31590  Biso   1.000  H
  C54      1.0000 0.06190  0.23060  0.34901  Biso   1.000  C
  C55      1.0000 0.99710  0.24090  0.36526  Biso   1.000  C
  H45      1.0000 0.99470  0.28760  0.35890  Biso   1.000  H
  H46      1.0000 0.01260  0.24880  0.38340  Biso   1.000  H
  H47      1.0000 0.94440  0.19270  0.36340  Biso   1.000  H
  C56      1.0000 0.06030  0.25010  0.34910  Biso   1.000  C
  H48      1.0000 0.02470  0.26470  0.35670  Biso   1.000  H
  O25      1.0000 0.11058  0.62823  0.50407  Biso   1.000  O
  O26      1.0000 0.03401  0.59012  0.46774  Biso   1.000  O
  O27      1.0000 0.00728  0.87898  0.27719  Biso   1.000  O
  C57      1.0000 0.09374  0.63868  0.48099  Biso   1.000  C
  C58      1.0000 0.15196  0.72021  0.46881  Biso   1.000  C
  C59      1.0000 0.13555  0.73846  0.44408  Biso   1.000  C
  H49      1.0000 0.08800  0.70090  0.43550  Biso   1.000  H
  C60      1.0000 0.16260  0.95570  0.32425  Biso   1.000  C
  H50      1.0000 0.20420  0.00130  0.31590  Biso   1.000  H
  C61      1.0000 0.16870  0.93810  0.34901  Biso   1.000  C
  C62      1.0000 0.24380  0.00290  0.36526  Biso   1.000  C
  H51      1.0000 0.29290  0.00530  0.35890  Biso   1.000  H
  H52      1.0000 0.23620  0.98740  0.38340  Biso   1.000  H
  H53      1.0000 0.24830  0.05560  0.36340  Biso   1.000  H
  C63      1.0000 0.18980  0.93970  0.34910  Biso   1.000  C
  H54      1.0000 0.24000  0.97530  0.35670  Biso   1.000  H
  O28      1.0000 0.48235  0.11058  0.00407  Biso   1.000  O
  O29      1.0000 0.44389  0.03401  0.96774  Biso   1.000  O
  O30      1.0000 0.12830  0.00728  0.77719  Biso   1.000  O
  C64      1.0000 0.45506  0.09374  0.98099  Biso   1.000  C
  C65      1.0000 0.43175  0.15196  0.96881  Biso   1.000  C
  C66      1.0000 0.39709  0.13555  0.94408  Biso   1.000  C
  H55      1.0000 0.38710  0.08800  0.93550  Biso   1.000  H
  C67      1.0000 0.20690  0.16260  0.82425  Biso   1.000  C
  H56      1.0000 0.20290  0.20420  0.81590  Biso   1.000  H
  C68      1.0000 0.23060  0.16870  0.84901  Biso   1.000  C
  C69      1.0000 0.24090  0.24380  0.86526  Biso   1.000  C
  H57      1.0000 0.28760  0.29290  0.85890  Biso   1.000  H
  H58      1.0000 0.24880  0.23620  0.88340  Biso   1.000  H
  H59      1.0000 0.19270  0.24830  0.86340  Biso   1.000  H
  C70      1.0000 0.25010  0.18980  0.84910  Biso   1.000  C
  H60      1.0000 0.26470  0.24000  0.85670  Biso   1.000  H
  O31      1.0000 0.62823  0.51765  0.00407  Biso   1.000  O
  O32      1.0000 0.59012  0.55611  0.96774  Biso   1.000  O
  O33      1.0000 0.87898  0.87170  0.77719  Biso   1.000  O
  C71      1.0000 0.63868  0.54494  0.98099  Biso   1.000  C
  C72      1.0000 0.72021  0.56825  0.96881  Biso   1.000  C
  C73      1.0000 0.73846  0.60291  0.94408  Biso   1.000  C
  H61      1.0000 0.70090  0.61290  0.93550  Biso   1.000  H
  C74      1.0000 0.95570  0.79310  0.82425  Biso   1.000  C
  H62      1.0000 0.00130  0.79710  0.81590  Biso   1.000  H
  C75      1.0000 0.93810  0.76940  0.84901  Biso   1.000  C
  C76      1.0000 0.00290  0.75910  0.86526  Biso   1.000  C
  H63      1.0000 0.00530  0.71240  0.85890  Biso   1.000  H
  H64      1.0000 0.98740  0.75120  0.88340  Biso   1.000  H
  H65      1.0000 0.05560  0.80730  0.86340  Biso   1.000  H
  C77      1.0000 0.93970  0.74990  0.84910  Biso   1.000  C
  H66      1.0000 0.97530  0.73530  0.85670  Biso   1.000  H
  O34      1.0000 0.88942  0.37177  0.00407  Biso   1.000  O
  O35      1.0000 0.96599  0.40988  0.96774  Biso   1.000  O
  O36      1.0000 0.99272  0.12102  0.77719  Biso   1.000  O
  C78      1.0000 0.90626  0.36132  0.98099  Biso   1.000  C
  C79      1.0000 0.84804  0.27979  0.96881  Biso   1.000  C
  C80      1.0000 0.86445  0.26154  0.94408  Biso   1.000  C
  H67      1.0000 0.91200  0.29910  0.93550  Biso   1.000  H
  C81      1.0000 0.83740  0.04430  0.82425  Biso   1.000  C
  H68      1.0000 0.79580  0.99870  0.81590  Biso   1.000  H
  C82      1.0000 0.83130  0.06190  0.84901  Biso   1.000  C
  C83      1.0000 0.75620  0.99710  0.86526  Biso   1.000  C
  H69      1.0000 0.70710  0.99470  0.85890  Biso   1.000  H
  H70      1.0000 0.76380  0.01260  0.88340  Biso   1.000  H
  H71      1.0000 0.75170  0.94440  0.86340  Biso   1.000  H
  C84      1.0000 0.81020  0.06030  0.84910  Biso   1.000  C
  H72      1.0000 0.76000  0.02470  0.85670  Biso   1.000  H
  O37      1.0000 0.11058  0.48235  0.50407  Biso   1.000  O
  O38      1.0000 0.03401  0.44389  0.46774  Biso   1.000  O
  O39      1.0000 0.00728  0.12830  0.27719  Biso   1.000  O
  C85      1.0000 0.09374  0.45506  0.48099  Biso   1.000  C
  C86      1.0000 0.15196  0.43175  0.46881  Biso   1.000  C
  C87      1.0000 0.13555  0.39709  0.44408  Biso   1.000  C
  H73      1.0000 0.08800  0.38710  0.43550  Biso   1.000  H
  C88      1.0000 0.16260  0.20690  0.32425  Biso   1.000  C
  H74      1.0000 0.20420  0.20290  0.31590  Biso   1.000  H
  C89      1.0000 0.16870  0.23060  0.34901  Biso   1.000  C
  C90      1.0000 0.24380  0.24090  0.36526  Biso   1.000  C
  H75      1.0000 0.29290  0.28760  0.35890  Biso   1.000  H
  H76      1.0000 0.23620  0.24880  0.38340  Biso   1.000  H
  H77      1.0000 0.24830  0.19270  0.36340  Biso   1.000  H
  C91      1.0000 0.18980  0.25010  0.34910  Biso   1.000  C
  H78      1.0000 0.24000  0.26470  0.35670  Biso   1.000  H
  O40      1.0000 0.51765  0.62823  0.50407  Biso   1.000  O
  O41      1.0000 0.55611  0.59012  0.46774  Biso   1.000  O
  O42      1.0000 0.87170  0.87898  0.27719  Biso   1.000  O
  C92      1.0000 0.54494  0.63868  0.48099  Biso   1.000  C
  C93      1.0000 0.56825  0.72021  0.46881  Biso   1.000  C
  C94      1.0000 0.60291  0.73846  0.44408  Biso   1.000  C
  H79      1.0000 0.61290  0.70090  0.43550  Biso   1.000  H
  C95      1.0000 0.79310  0.95570  0.32425  Biso   1.000  C
  H80      1.0000 0.79710  0.00130  0.31590  Biso   1.000  H
  C96      1.0000 0.76940  0.93810  0.34901  Biso   1.000  C
  C97      1.0000 0.75910  0.00290  0.36526  Biso   1.000  C
  H81      1.0000 0.71240  0.00530  0.35890  Biso   1.000  H
  H82      1.0000 0.75120  0.98740  0.38340  Biso   1.000  H
  H83      1.0000 0.80730  0.05560  0.36340  Biso   1.000  H
  C98      1.0000 0.74990  0.93970  0.34910  Biso   1.000  C
  H84      1.0000 0.73530  0.97530  0.35670  Biso   1.000  H
  O43      1.0000 0.37177  0.88942  0.50407  Biso   1.000  O
  O44      1.0000 0.40988  0.96599  0.46774  Biso   1.000  O
  O45      1.0000 0.12102  0.99272  0.27719  Biso   1.000  O
  C99      1.0000 0.36132  0.90626  0.48099  Biso   1.000  C
  C100     1.0000 0.27979  0.84804  0.46881  Biso   1.000  C
  C101     1.0000 0.26154  0.86445  0.44408  Biso   1.000  C
  H85      1.0000 0.29910  0.91200  0.43550  Biso   1.000  H
  C102     1.0000 0.04430  0.83740  0.32425  Biso   1.000  C
  H86      1.0000 0.99870  0.79580  0.31590  Biso   1.000  H
  C103     1.0000 0.06190  0.83130  0.34901  Biso   1.000  C
  C104     1.0000 0.99710  0.75620  0.36526  Biso   1.000  C
  H87      1.0000 0.99470  0.70710  0.35890  Biso   1.000  H
  H88      1.0000 0.01260  0.76380  0.38340  Biso   1.000  H
  H89      1.0000 0.94440  0.75170  0.36340  Biso   1.000  H
  C105     1.0000 0.06030  0.81020  0.34910  Biso   1.000  C
  H90      1.0000 0.02470  0.76000  0.35670  Biso   1.000  H
  O46      1.0000 0.88942  0.51765  0.00407  Biso   1.000  O
  O47      1.0000 0.96599  0.55611  0.96774  Biso   1.000  O
  O48      1.0000 0.99272  0.87170  0.77719  Biso   1.000  O
  C106     1.0000 0.90626  0.54494  0.98099  Biso   1.000  C
  C107     1.0000 0.84804  0.56825  0.96881  Biso   1.000  C
  C108     1.0000 0.86445  0.60291  0.94408  Biso   1.000  C
  H91      1.0000 0.91200  0.61290  0.93550  Biso   1.000  H
  C109     1.0000 0.83740  0.79310  0.82425  Biso   1.000  C
  H92      1.0000 0.79580  0.79710  0.81590  Biso   1.000  H
  C110     1.0000 0.83130  0.76940  0.84901  Biso   1.000  C
  C111     1.0000 0.75620  0.75910  0.86526  Biso   1.000  C
  H93      1.0000 0.70710  0.71240  0.85890  Biso   1.000  H
  H94      1.0000 0.76380  0.75120  0.88340  Biso   1.000  H
  H95      1.0000 0.75170  0.80730  0.86340  Biso   1.000  H
  C112     1.0000 0.81020  0.74990  0.84910  Biso   1.000  C
  H96      1.0000 0.76000  0.73530  0.85670  Biso   1.000  H
  O49      1.0000 0.48235  0.37177  0.00407  Biso   1.000  O
  O50      1.0000 0.44389  0.40988  0.96774  Biso   1.000  O
  O51      1.0000 0.12830  0.12102  0.77719  Biso   1.000  O
  C113     1.0000 0.45506  0.36132  0.98099  Biso   1.000  C
  C114     1.0000 0.43175  0.27979  0.96881  Biso   1.000  C
  C115     1.0000 0.39709  0.26154  0.94408  Biso   1.000  C
  H97      1.0000 0.38710  0.29910  0.93550  Biso   1.000  H
  C116     1.0000 0.20690  0.04430  0.82425  Biso   1.000  C
  H98      1.0000 0.20290  0.99870  0.81590  Biso   1.000  H
  C117     1.0000 0.23060  0.06190  0.84901  Biso   1.000  C
  C118     1.0000 0.24090  0.99710  0.86526  Biso   1.000  C
  H99      1.0000 0.28760  0.99470  0.85890  Biso   1.000  H
  H100     1.0000 0.24880  0.01260  0.88340  Biso   1.000  H
  H101     1.0000 0.19270  0.94440  0.86340  Biso   1.000  H
  C119     1.0000 0.25010  0.06030  0.84910  Biso   1.000  C
  H102     1.0000 0.26470  0.02470  0.85670  Biso   1.000  H
  O52      1.0000 0.62823  0.11058  0.00407  Biso   1.000  O
  O53      1.0000 0.59012  0.03401  0.96774  Biso   1.000  O
  O54      1.0000 0.87898  0.00728  0.77719  Biso   1.000  O
  C120     1.0000 0.63868  0.09374  0.98099  Biso   1.000  C
  C121     1.0000 0.72021  0.15196  0.96881  Biso   1.000  C
  C122     1.0000 0.73846  0.13555  0.94408  Biso   1.000  C
  H103     1.0000 0.70090  0.08800  0.93550  Biso   1.000  H
  C123     1.0000 0.95570  0.16260  0.82425  Biso   1.000  C
  H104     1.0000 0.00130  0.20420  0.81590  Biso   1.000  H
  C124     1.0000 0.93810  0.16870  0.84901  Biso   1.000  C
  C125     1.0000 0.00290  0.24380  0.86526  Biso   1.000  C
  H105     1.0000 0.00530  0.29290  0.85890  Biso   1.000  H
  H106     1.0000 0.98740  0.23620  0.88340  Biso   1.000  H
  H107     1.0000 0.05560  0.24830  0.86340  Biso   1.000  H
  C126     1.0000 0.93970  0.18980  0.84910  Biso   1.000  C
  H108     1.0000 0.97530  0.24000  0.85670  Biso   1.000  H
  O55      1.0000 0.48235  0.11058  0.49593  Biso   1.000  O
  O56      1.0000 0.44389  0.03401  0.53226  Biso   1.000  O
  O57      1.0000 0.12830  0.00728  0.72281  Biso   1.000  O
  C127     1.0000 0.45506  0.09374  0.51901  Biso   1.000  C
  C128     1.0000 0.43175  0.15196  0.53119  Biso   1.000  C
  C129     1.0000 0.39709  0.13555  0.55592  Biso   1.000  C
  H109     1.0000 0.38710  0.08800  0.56450  Biso   1.000  H
  C130     1.0000 0.20690  0.16260  0.67575  Biso   1.000  C
  H110     1.0000 0.20290  0.20420  0.68410  Biso   1.000  H
  C131     1.0000 0.23060  0.16870  0.65099  Biso   1.000  C
  C132     1.0000 0.24090  0.24380  0.63474  Biso   1.000  C
  H111     1.0000 0.28760  0.29290  0.64110  Biso   1.000  H
  H112     1.0000 0.24880  0.23620  0.61660  Biso   1.000  H
  H113     1.0000 0.19270  0.24830  0.63660  Biso   1.000  H
  C133     1.0000 0.25010  0.18980  0.65090  Biso   1.000  C
  H114     1.0000 0.26470  0.24000  0.64330  Biso   1.000  H
  O58      1.0000 0.62823  0.51765  0.49593  Biso   1.000  O
  O59      1.0000 0.59012  0.55611  0.53226  Biso   1.000  O
  O60      1.0000 0.87898  0.87170  0.72281  Biso   1.000  O
  C134     1.0000 0.63868  0.54494  0.51901  Biso   1.000  C
  C135     1.0000 0.72021  0.56825  0.53119  Biso   1.000  C
  C136     1.0000 0.73846  0.60291  0.55592  Biso   1.000  C
  H115     1.0000 0.70090  0.61290  0.56450  Biso   1.000  H
  C137     1.0000 0.95570  0.79310  0.67575  Biso   1.000  C
  H116     1.0000 0.00130  0.79710  0.68410  Biso   1.000  H
  C138     1.0000 0.93810  0.76940  0.65099  Biso   1.000  C
  C139     1.0000 0.00290  0.75910  0.63474  Biso   1.000  C
  H117     1.0000 0.00530  0.71240  0.64110  Biso   1.000  H
  H118     1.0000 0.98740  0.75120  0.61660  Biso   1.000  H
  H119     1.0000 0.05560  0.80730  0.63660  Biso   1.000  H
  C140     1.0000 0.93970  0.74990  0.65090  Biso   1.000  C
  H120     1.0000 0.97530  0.73530  0.64330  Biso   1.000  H
  O61      1.0000 0.88942  0.37177  0.49593  Biso   1.000  O
  O62      1.0000 0.96599  0.40988  0.53226  Biso   1.000  O
  O63      1.0000 0.99272  0.12102  0.72281  Biso   1.000  O
  C141     1.0000 0.90626  0.36132  0.51901  Biso   1.000  C
  C142     1.0000 0.84804  0.27979  0.53119  Biso   1.000  C
  C143     1.0000 0.86445  0.26154  0.55592  Biso   1.000  C
  H121     1.0000 0.91200  0.29910  0.56450  Biso   1.000  H
  C144     1.0000 0.83740  0.04430  0.67575  Biso   1.000  C
  H122     1.0000 0.79580  0.99870  0.68410  Biso   1.000  H
  C145     1.0000 0.83130  0.06190  0.65099  Biso   1.000  C
  C146     1.0000 0.75620  0.99710  0.63474  Biso   1.000  C
  H123     1.0000 0.70710  0.99470  0.64110  Biso   1.000  H
  H124     1.0000 0.76380  0.01260  0.61660  Biso   1.000  H
  H125     1.0000 0.75170  0.94440  0.63660  Biso   1.000  H
  C147     1.0000 0.81020  0.06030  0.65090  Biso   1.000  C
  H126     1.0000 0.76000  0.02470  0.64330  Biso   1.000  H
  O64      1.0000 0.51765  0.88942  0.99593  Biso   1.000  O
  O65      1.0000 0.55611  0.96599  0.03226  Biso   1.000  O
  O66      1.0000 0.87170  0.99272  0.22281  Biso   1.000  O
  C148     1.0000 0.54494  0.90626  0.01901  Biso   1.000  C
  C149     1.0000 0.56825  0.84804  0.03119  Biso   1.000  C
  C150     1.0000 0.60291  0.86445  0.05592  Biso   1.000  C
  H127     1.0000 0.61290  0.91200  0.06450  Biso   1.000  H
  C151     1.0000 0.79310  0.83740  0.17575  Biso   1.000  C
  H128     1.0000 0.79710  0.79580  0.18410  Biso   1.000  H
  C152     1.0000 0.76940  0.83130  0.15099  Biso   1.000  C
  C153     1.0000 0.75910  0.75620  0.13474  Biso   1.000  C
  H129     1.0000 0.71240  0.70710  0.14110  Biso   1.000  H
  H130     1.0000 0.75120  0.76380  0.11660  Biso   1.000  H
  H131     1.0000 0.80730  0.75170  0.13660  Biso   1.000  H
  C154     1.0000 0.74990  0.81020  0.15090  Biso   1.000  C
  H132     1.0000 0.73530  0.76000  0.14330  Biso   1.000  H
  O67      1.0000 0.37177  0.48235  0.99593  Biso   1.000  O
  O68      1.0000 0.40988  0.44389  0.03226  Biso   1.000  O
  O69      1.0000 0.12102  0.12830  0.22281  Biso   1.000  O
  C155     1.0000 0.36132  0.45506  0.01901  Biso   1.000  C
  C156     1.0000 0.27979  0.43175  0.03119  Biso   1.000  C
  C157     1.0000 0.26154  0.39709  0.05592  Biso   1.000  C
  H133     1.0000 0.29910  0.38710  0.06450  Biso   1.000  H
  C158     1.0000 0.04430  0.20690  0.17575  Biso   1.000  C
  H134     1.0000 0.99870  0.20290  0.18410  Biso   1.000  H
  C159     1.0000 0.06190  0.23060  0.15099  Biso   1.000  C
  C160     1.0000 0.99710  0.24090  0.13474  Biso   1.000  C
  H135     1.0000 0.99470  0.28760  0.14110  Biso   1.000  H
  H136     1.0000 0.01260  0.24880  0.11660  Biso   1.000  H
  H137     1.0000 0.94440  0.19270  0.13660  Biso   1.000  H
  C161     1.0000 0.06030  0.25010  0.15090  Biso   1.000  C
  H138     1.0000 0.02470  0.26470  0.14330  Biso   1.000  H
  O70      1.0000 0.11058  0.62823  0.99593  Biso   1.000  O
  O71      1.0000 0.03401  0.59012  0.03226  Biso   1.000  O
  O72      1.0000 0.00728  0.87898  0.22281  Biso   1.000  O
  C162     1.0000 0.09374  0.63868  0.01901  Biso   1.000  C
  C163     1.0000 0.15196  0.72021  0.03119  Biso   1.000  C
  C164     1.0000 0.13555  0.73846  0.05592  Biso   1.000  C
  H139     1.0000 0.08800  0.70090  0.06450  Biso   1.000  H
  C165     1.0000 0.16260  0.95570  0.17575  Biso   1.000  C
  H140     1.0000 0.20420  0.00130  0.18410  Biso   1.000  H
  C166     1.0000 0.16870  0.93810  0.15099  Biso   1.000  C
  C167     1.0000 0.24380  0.00290  0.13474  Biso   1.000  C
  H141     1.0000 0.29290  0.00530  0.14110  Biso   1.000  H
  H142     1.0000 0.23620  0.98740  0.11660  Biso   1.000  H
  H143     1.0000 0.24830  0.05560  0.13660  Biso   1.000  H
  C168     1.0000 0.18980  0.93970  0.15090  Biso   1.000  C
  H144     1.0000 0.24000  0.97530  0.14330  Biso   1.000  H
  Cu1      1.0000 0.04505  0.52252  0.52173  Biso   1.000  Cu
  Cu2      1.0000 0.47748  0.52252  0.52173  Biso   1.000  Cu
  Cu3      1.0000 0.47748  0.95495  0.52173  Biso   1.000  Cu
  Cu4      1.0000 0.95495  0.47748  0.02173  Biso   1.000  Cu
  Cu5      1.0000 0.52252  0.47748  0.02173  Biso   1.000  Cu
  Cu6      1.0000 0.52252  0.04505  0.02173  Biso   1.000  Cu
  Cu7      1.0000 0.52252  0.04505  0.47827  Biso   1.000  Cu
  Cu8      1.0000 0.52252  0.47748  0.47827  Biso   1.000  Cu
  Cu9      1.0000 0.95495  0.47748  0.47827  Biso   1.000  Cu
  Cu10     1.0000 0.47748  0.95495  0.97827  Biso   1.000  Cu
  Cu11     1.0000 0.47748  0.52252  0.97827  Biso   1.000  Cu
  Cu12     1.0000 0.04505  0.52252  0.97827  Biso   1.000  Cu
  Cu13     1.0000 0.05970  0.94030  0.75000  Biso   1.000  Cu
  Cu14     1.0000 0.05970  0.11940  0.75000  Biso   1.000  Cu
  Cu15     1.0000 0.88060  0.94030  0.75000  Biso   1.000  Cu
  Cu16     1.0000 0.94030  0.05970  0.25000  Biso   1.000  Cu
  Cu17     1.0000 0.94030  0.88060  0.25000  Biso   1.000  Cu
  Cu18     1.0000 0.11940  0.05970  0.25000  Biso   1.000  Cu
  C169     1.0000 0.77535  0.55070  0.51911  Biso   1.000  C
  H145     1.0000 0.76335  0.52670  0.50260  Biso   1.000  H
  C170     1.0000 0.81140  0.62280  0.56800  Biso   1.000  C
  C171     1.0000 0.82990  0.65980  0.59409  Biso   1.000  C
  C172     1.0000 0.84660  0.69320  0.61466  Biso   1.000  C
  C173     1.0000 0.86640  0.73280  0.63995  Biso   1.000  C
  C174     1.0000 0.90520  0.81040  0.68755  Biso   1.000  C
  C175     1.0000 0.92835  0.85670  0.71415  Biso   1.000  C
  C176     1.0000 0.44930  0.22465  0.51911  Biso   1.000  C
  H146     1.0000 0.47330  0.23665  0.50260  Biso   1.000  H
  C177     1.0000 0.37720  0.18860  0.56800  Biso   1.000  C
  C178     1.0000 0.34020  0.17010  0.59409  Biso   1.000  C
  C179     1.0000 0.30680  0.15340  0.61466  Biso   1.000  C
  C180     1.0000 0.26720  0.13360  0.63995  Biso   1.000  C
  C181     1.0000 0.18960  0.09480  0.68755  Biso   1.000  C
  C182     1.0000 0.14330  0.07165  0.71415  Biso   1.000  C
  C183     1.0000 0.77535  0.22465  0.51911  Biso   1.000  C
  H147     1.0000 0.76335  0.23665  0.50260  Biso   1.000  H
  C184     1.0000 0.81140  0.18860  0.56800  Biso   1.000  C
  C185     1.0000 0.82990  0.17010  0.59409  Biso   1.000  C
  C186     1.0000 0.84660  0.15340  0.61466  Biso   1.000  C
  C187     1.0000 0.86640  0.13360  0.63995  Biso   1.000  C
  C188     1.0000 0.90520  0.09480  0.68755  Biso   1.000  C
  C189     1.0000 0.92835  0.07165  0.71415  Biso   1.000  C
  C190     1.0000 0.22465  0.44930  0.01911  Biso   1.000  C
  H148     1.0000 0.23665  0.47330  0.00260  Biso   1.000  H
  C191     1.0000 0.18860  0.37720  0.06800  Biso   1.000  C
  C192     1.0000 0.17010  0.34020  0.09409  Biso   1.000  C
  C193     1.0000 0.15340  0.30680  0.11466  Biso   1.000  C
  C194     1.0000 0.13360  0.26720  0.13995  Biso   1.000  C
  C195     1.0000 0.09480  0.18960  0.18755  Biso   1.000  C
  C196     1.0000 0.07165  0.14330  0.21415  Biso   1.000  C
  C197     1.0000 0.55070  0.77535  0.01911  Biso   1.000  C
  H149     1.0000 0.52670  0.76335  0.00260  Biso   1.000  H
  C198     1.0000 0.62280  0.81140  0.06800  Biso   1.000  C
  C199     1.0000 0.65980  0.82990  0.09409  Biso   1.000  C
  C200     1.0000 0.69320  0.84660  0.11466  Biso   1.000  C
  C201     1.0000 0.73280  0.86640  0.13995  Biso   1.000  C
  C202     1.0000 0.81040  0.90520  0.18755  Biso   1.000  C
  C203     1.0000 0.85670  0.92835  0.21415  Biso   1.000  C
  C204     1.0000 0.22465  0.77535  0.01911  Biso   1.000  C
  H150     1.0000 0.23665  0.76335  0.00260  Biso   1.000  H
  C205     1.0000 0.18860  0.81140  0.06800  Biso   1.000  C
  C206     1.0000 0.17010  0.82990  0.09409  Biso   1.000  C
  C207     1.0000 0.15340  0.84660  0.11466  Biso   1.000  C
  C208     1.0000 0.13360  0.86640  0.13995  Biso   1.000  C
  C209     1.0000 0.09480  0.90520  0.18755  Biso   1.000  C
  C210     1.0000 0.07165  0.92835  0.21415  Biso   1.000  C
  C211     1.0000 0.55070  0.77535  0.48089  Biso   1.000  C
  H151     1.0000 0.52670  0.76335  0.49740  Biso   1.000  H
  C212     1.0000 0.62280  0.81140  0.43200  Biso   1.000  C
  C213     1.0000 0.65980  0.82990  0.40591  Biso   1.000  C
  C214     1.0000 0.69320  0.84660  0.38534  Biso   1.000  C
  C215     1.0000 0.73280  0.86640  0.36005  Biso   1.000  C
  C216     1.0000 0.81040  0.90520  0.31245  Biso   1.000  C
  C217     1.0000 0.85670  0.92835  0.28585  Biso   1.000  C
  C218     1.0000 0.22465  0.44930  0.48089  Biso   1.000  C
  H152     1.0000 0.23665  0.47330  0.49740  Biso   1.000  H
  C219     1.0000 0.18860  0.37720  0.43200  Biso   1.000  C
  C220     1.0000 0.17010  0.34020  0.40591  Biso   1.000  C
  C221     1.0000 0.15340  0.30680  0.38534  Biso   1.000  C
  C222     1.0000 0.13360  0.26720  0.36005  Biso   1.000  C
  C223     1.0000 0.09480  0.18960  0.31245  Biso   1.000  C
  C224     1.0000 0.07165  0.14330  0.28585  Biso   1.000  C
  C225     1.0000 0.22465  0.77535  0.48089  Biso   1.000  C
  H153     1.0000 0.23665  0.76335  0.49740  Biso   1.000  H
  C226     1.0000 0.18860  0.81140  0.43200  Biso   1.000  C
  C227     1.0000 0.17010  0.82990  0.40591  Biso   1.000  C
  C228     1.0000 0.15340  0.84660  0.38534  Biso   1.000  C
  C229     1.0000 0.13360  0.86640  0.36005  Biso   1.000  C
  C230     1.0000 0.09480  0.90520  0.31245  Biso   1.000  C
  C231     1.0000 0.07165  0.92835  0.28585  Biso   1.000  C
  C232     1.0000 0.44930  0.22465  0.98089  Biso   1.000  C
  H154     1.0000 0.47330  0.23665  0.99740  Biso   1.000  H
  C233     1.0000 0.37720  0.18860  0.93200  Biso   1.000  C
  C234     1.0000 0.34020  0.17010  0.90591  Biso   1.000  C
  C235     1.0000 0.30680  0.15340  0.88534  Biso   1.000  C
  C236     1.0000 0.26720  0.13360  0.86005  Biso   1.000  C
  C237     1.0000 0.18960  0.09480  0.81245  Biso   1.000  C
  C238     1.0000 0.14330  0.07165  0.78585  Biso   1.000  C
  C239     1.0000 0.77535  0.55070  0.98089  Biso   1.000  C
  H155     1.0000 0.76335  0.52670  0.99740  Biso   1.000  H
  C240     1.0000 0.81140  0.62280  0.93200  Biso   1.000  C
  C241     1.0000 0.82990  0.65980  0.90591  Biso   1.000  C
  C242     1.0000 0.84660  0.69320  0.88534  Biso   1.000  C
  C243     1.0000 0.86640  0.73280  0.86005  Biso   1.000  C
  C244     1.0000 0.90520  0.81040  0.81245  Biso   1.000  C
  C245     1.0000 0.92835  0.85670  0.78585  Biso   1.000  C
  C246     1.0000 0.77535  0.22465  0.98089  Biso   1.000  C
  H156     1.0000 0.76335  0.23665  0.99740  Biso   1.000  H
  C247     1.0000 0.81140  0.18860  0.93200  Biso   1.000  C
  C248     1.0000 0.82990  0.17010  0.90591  Biso   1.000  C
  C249     1.0000 0.84660  0.15340  0.88534  Biso   1.000  C
  C250     1.0000 0.86640  0.13360  0.86005  Biso   1.000  C
  C251     1.0000 0.90520  0.09480  0.81245  Biso   1.000  C
  C252     1.0000 0.92835  0.07165  0.78585  Biso   1.000  C
