data_image0
_cell_length_a       18.4468
_cell_length_b       13.2575
_cell_length_c       21.8586
_cell_angle_alpha    90
_cell_angle_beta     99.491
_cell_angle_gamma    90

_symmetry_space_group_name_H-M    "P 1"
_symmetry_int_tables_number       1

loop_
  _symmetry_equiv_pos_as_xyz
  'x, y, z'

loop_
  _atom_site_label
  _atom_site_occupancy
  _atom_site_fract_x
  _atom_site_fract_y
  _atom_site_fract_z
  _atom_site_thermal_displace_type
  _atom_site_B_iso_or_equiv
  _atom_site_type_symbol
  Cd1      1.0000 0.81597  0.42180  0.57492  Biso   1.000  Cd
  Cd2      1.0000 0.70791  0.19303  0.47145  Biso   1.000  Cd
  N1       1.0000 0.91090  0.36830  0.45410  Biso   1.000  N
  N2       1.0000 0.85730  0.34110  0.48580  Biso   1.000  N
  N3       1.0000 0.81620  0.27160  0.45450  Biso   1.000  N
  N4       1.0000 0.83980  0.25350  0.40090  Biso   1.000  N
  N5       1.0000 0.00230  0.34520  0.24120  Biso   1.000  N
  N6       1.0000 0.79690  0.65670  0.52700  Biso   1.000  N
  N7       1.0000 0.84020  0.57620  0.52870  Biso   1.000  N
  N8       1.0000 0.90010  0.60000  0.50660  Biso   1.000  N
  N9       1.0000 0.89750  0.69830  0.49040  Biso   1.000  N
  N10      1.0000 0.75290  0.02970  0.47590  Biso   1.000  N
  N11      1.0000 0.45900  0.12450  0.17790  Biso   1.000  N
  N12      1.0000 0.43990  0.09480  0.11970  Biso   1.000  N
  N13      1.0000 0.49870  0.06550  0.09760  Biso   1.000  N
  N14      1.0000 0.55830  0.07670  0.14090  Biso   1.000  N
  N15      1.0000 0.65570  0.17470  0.36800  Biso   1.000  N
  N16      1.0000 0.71360  0.74410  0.82720  Biso   1.000  N
  N17      1.0000 0.71750  0.76820  0.88690  Biso   1.000  N
  N18      1.0000 0.75760  0.69800  0.92130  Biso   1.000  N
  N19      1.0000 0.78050  0.63000  0.88450  Biso   1.000  N
  N20      1.0000 0.79160  0.50590  0.66480  Biso   1.000  N
  O1       1.0000 0.69650  0.44990  0.53800  Biso   1.000  O
  O2       1.0000 0.64870  0.33960  0.46730  Biso   1.000  O
  C1       1.0000 0.64460  0.41230  0.50270  Biso   1.000  C
  C2       1.0000 0.57020  0.45940  0.50070  Biso   1.000  C
  C3       1.0000 0.50890  0.41890  0.46560  Biso   1.000  C
  H1       1.0000 0.51380  0.36100  0.44250  Biso   1.000  H
  C4       1.0000 0.56050  0.53920  0.53700  Biso   1.000  C
  H2       1.0000 0.60030  0.56610  0.56360  Biso   1.000  H
  C5       1.0000 0.89780  0.31250  0.40100  Biso   1.000  C
  C6       1.0000 0.93080  0.33980  0.23650  Biso   1.000  C
  H3       1.0000 0.90270  0.34540  0.19720  Biso   1.000  H
  C7       1.0000 0.89330  0.32600  0.28780  Biso   1.000  C
  H4       1.0000 0.84250  0.31870  0.28170  Biso   1.000  H
  C8       1.0000 0.93460  0.32350  0.34780  Biso   1.000  C
  C9       1.0000 0.00960  0.33440  0.35150  Biso   1.000  C
  H5       1.0000 0.03900  0.33770  0.39030  Biso   1.000  H
  C10      1.0000 0.04170  0.34040  0.29950  Biso   1.000  C
  H6       1.0000 0.09270  0.34130  0.30420  Biso   1.000  H
  C11      1.0000 0.83390  0.73070  0.50320  Biso   1.000  C
  C12      1.0000 0.72440  0.96560  0.51310  Biso   1.000  C
  H7       1.0000 0.68900  0.98980  0.53520  Biso   1.000  H
  C13      1.0000 0.74490  0.86480  0.52050  Biso   1.000  C
  H8       1.0000 0.71980  0.82010  0.54220  Biso   1.000  H
  C14      1.0000 0.80560  0.83340  0.49350  Biso   1.000  C
  C15      1.0000 0.84040  0.90300  0.46170  Biso   1.000  C
  H9       1.0000 0.88310  0.88700  0.44630  Biso   1.000  H
  C16      1.0000 0.80890  0.99800  0.45370  Biso   1.000  C
  H10      1.0000 0.83050  0.04370  0.42980  Biso   1.000  H
  C17      1.0000 0.53220  0.11310  0.18930  Biso   1.000  C
  C18      1.0000 0.58660  0.20900  0.35020  Biso   1.000  C
  H11      1.0000 0.56550  0.24680  0.37840  Biso   1.000  H
  C19      1.0000 0.54620  0.19170  0.29360  Biso   1.000  C
  H12      1.0000 0.49880  0.21740  0.28380  Biso   1.000  H
  C20      1.0000 0.57650  0.13460  0.25020  Biso   1.000  C
  C21      1.0000 0.64570  0.10330  0.26720  Biso   1.000  C
  H13      1.0000 0.66870  0.06760  0.23920  Biso   1.000  H
  C22      1.0000 0.68400  0.12360  0.32660  Biso   1.000  C
  H14      1.0000 0.73180  0.09950  0.33720  Biso   1.000  H
  C23      1.0000 0.75180  0.66060  0.82670  Biso   1.000  C
  C24      1.0000 0.81720  0.47020  0.72190  Biso   1.000  C
  H15      1.0000 0.84400  0.41040  0.72550  Biso   1.000  H
  C25      1.0000 0.80570  0.51790  0.77480  Biso   1.000  C
  H16      1.0000 0.82470  0.49060  0.81340  Biso   1.000  H
  C26      1.0000 0.76590  0.60690  0.77120  Biso   1.000  C
  C27      1.0000 0.73980  0.64250  0.71260  Biso   1.000  C
  H17      1.0000 0.71240  0.70170  0.70740  Biso   1.000  H
  C28      1.0000 0.75450  0.59010  0.66190  Biso   1.000  C
  H18      1.0000 0.73690  0.61640  0.62280  Biso   1.000  H
  C29      1.0000 0.70910  0.95000  0.46850  Biso   1.000  C
  H19      1.0000 0.65880  0.96120  0.45770  Biso   1.000  H
  C30      1.0000 0.73260  0.85400  0.47600  Biso   1.000  C
  H20      1.0000 0.69890  0.80170  0.46830  Biso   1.000  H
  C31      1.0000 0.85500  0.91300  0.50100  Biso   1.000  C
  H21      1.0000 0.90520  0.90370  0.51410  Biso   1.000  H
  C32      1.0000 0.82300  0.01100  0.48900  Biso   1.000  C
  H22      1.0000 0.85540  0.06500  0.49040  Biso   1.000  H
  Cd3      1.0000 0.68403  0.92180  0.92508  Biso   1.000  Cd
  Cd4      1.0000 0.79209  0.69303  0.02855  Biso   1.000  Cd
  N21      1.0000 0.58910  0.86830  0.04590  Biso   1.000  N
  N22      1.0000 0.64270  0.84110  0.01420  Biso   1.000  N
  N23      1.0000 0.68380  0.77160  0.04550  Biso   1.000  N
  N24      1.0000 0.66020  0.75350  0.09910  Biso   1.000  N
  N25      1.0000 0.49770  0.84520  0.25880  Biso   1.000  N
  N26      1.0000 0.70310  0.15670  0.97300  Biso   1.000  N
  N27      1.0000 0.65980  0.07620  0.97130  Biso   1.000  N
  N28      1.0000 0.59990  0.10000  0.99340  Biso   1.000  N
  N29      1.0000 0.60250  0.19830  0.00960  Biso   1.000  N
  N30      1.0000 0.74710  0.52970  0.02410  Biso   1.000  N
  N31      1.0000 0.04100  0.62450  0.32210  Biso   1.000  N
  N32      1.0000 0.06010  0.59480  0.38030  Biso   1.000  N
  N33      1.0000 0.00130  0.56550  0.40240  Biso   1.000  N
  N34      1.0000 0.94170  0.57670  0.35910  Biso   1.000  N
  N35      1.0000 0.84430  0.67470  0.13200  Biso   1.000  N
  N36      1.0000 0.78640  0.24410  0.67280  Biso   1.000  N
  N37      1.0000 0.78250  0.26820  0.61310  Biso   1.000  N
  N38      1.0000 0.74240  0.19800  0.57870  Biso   1.000  N
  N39      1.0000 0.71950  0.13000  0.61550  Biso   1.000  N
  N40      1.0000 0.70840  0.00590  0.83520  Biso   1.000  N
  O3       1.0000 0.80350  0.94990  0.96200  Biso   1.000  O
  O4       1.0000 0.85130  0.83960  0.03270  Biso   1.000  O
  C33      1.0000 0.85540  0.91230  0.99730  Biso   1.000  C
  C34      1.0000 0.92980  0.95940  0.99930  Biso   1.000  C
  C35      1.0000 0.99110  0.91890  0.03440  Biso   1.000  C
  H23      1.0000 0.98620  0.86100  0.05750  Biso   1.000  H
  C36      1.0000 0.93950  0.03920  0.96300  Biso   1.000  C
  H24      1.0000 0.89970  0.06610  0.93640  Biso   1.000  H
  C37      1.0000 0.60220  0.81250  0.09900  Biso   1.000  C
  C38      1.0000 0.56920  0.83980  0.26350  Biso   1.000  C
  H25      1.0000 0.59730  0.84540  0.30280  Biso   1.000  H
  C39      1.0000 0.60670  0.82600  0.21220  Biso   1.000  C
  H26      1.0000 0.65750  0.81870  0.21830  Biso   1.000  H
  C40      1.0000 0.56540  0.82350  0.15220  Biso   1.000  C
  C41      1.0000 0.49040  0.83440  0.14850  Biso   1.000  C
  H27      1.0000 0.46100  0.83770  0.10970  Biso   1.000  H
  C42      1.0000 0.45830  0.84040  0.20050  Biso   1.000  C
  H28      1.0000 0.40730  0.84130  0.19580  Biso   1.000  H
  C43      1.0000 0.66610  0.23070  0.99680  Biso   1.000  C
  C44      1.0000 0.77560  0.46560  0.98690  Biso   1.000  C
  H29      1.0000 0.81100  0.48980  0.96480  Biso   1.000  H
  C45      1.0000 0.75510  0.36480  0.97950  Biso   1.000  C
  H30      1.0000 0.78020  0.32010  0.95780  Biso   1.000  H
  C46      1.0000 0.69440  0.33340  0.00650  Biso   1.000  C
  C47      1.0000 0.65960  0.40300  0.03830  Biso   1.000  C
  H31      1.0000 0.61690  0.38700  0.05370  Biso   1.000  H
  C48      1.0000 0.69110  0.49800  0.04630  Biso   1.000  C
  H32      1.0000 0.66950  0.54370  0.07020  Biso   1.000  H
  C49      1.0000 0.96780  0.61310  0.31070  Biso   1.000  C
  C50      1.0000 0.91340  0.70900  0.14980  Biso   1.000  C
  H33      1.0000 0.93450  0.74680  0.12160  Biso   1.000  H
  C51      1.0000 0.95380  0.69170  0.20640  Biso   1.000  C
  H34      1.0000 0.00120  0.71740  0.21620  Biso   1.000  H
  C52      1.0000 0.92350  0.63460  0.24980  Biso   1.000  C
  C53      1.0000 0.85430  0.60330  0.23280  Biso   1.000  C
  H35      1.0000 0.83130  0.56760  0.26080  Biso   1.000  H
  C54      1.0000 0.81600  0.62360  0.17340  Biso   1.000  C
  H36      1.0000 0.76820  0.59950  0.16280  Biso   1.000  H
  C55      1.0000 0.74820  0.16060  0.67330  Biso   1.000  C
  C56      1.0000 0.68280  0.97020  0.77810  Biso   1.000  C
  H37      1.0000 0.65600  0.91040  0.77450  Biso   1.000  H
  C57      1.0000 0.69430  0.01790  0.72520  Biso   1.000  C
  H38      1.0000 0.67530  0.99060  0.68660  Biso   1.000  H
  C58      1.0000 0.73410  0.10690  0.72880  Biso   1.000  C
  C59      1.0000 0.76020  0.14250  0.78740  Biso   1.000  C
  H39      1.0000 0.78760  0.20170  0.79260  Biso   1.000  H
  C60      1.0000 0.74550  0.09010  0.83810  Biso   1.000  C
  H40      1.0000 0.76310  0.11640  0.87720  Biso   1.000  H
  C61      1.0000 0.79090  0.45000  0.03150  Biso   1.000  C
  H41      1.0000 0.84120  0.46120  0.04230  Biso   1.000  H
  C62      1.0000 0.76740  0.35400  0.02400  Biso   1.000  C
  H42      1.0000 0.80110  0.30170  0.03170  Biso   1.000  H
  C63      1.0000 0.64500  0.41300  0.99900  Biso   1.000  C
  H43      1.0000 0.59480  0.40370  0.98590  Biso   1.000  H
  C64      1.0000 0.67700  0.51100  0.01100  Biso   1.000  C
  H44      1.0000 0.64460  0.56500  0.00960  Biso   1.000  H
  Cd5      1.0000 0.18403  0.57820  0.42508  Biso   1.000  Cd
  Cd6      1.0000 0.29209  0.80697  0.52855  Biso   1.000  Cd
  N41      1.0000 0.08910  0.63170  0.54590  Biso   1.000  N
  N42      1.0000 0.14270  0.65890  0.51420  Biso   1.000  N
  N43      1.0000 0.18380  0.72840  0.54550  Biso   1.000  N
  N44      1.0000 0.16020  0.74650  0.59910  Biso   1.000  N
  N45      1.0000 0.99770  0.65480  0.75880  Biso   1.000  N
  N46      1.0000 0.20310  0.34330  0.47300  Biso   1.000  N
  N47      1.0000 0.15980  0.42380  0.47130  Biso   1.000  N
  N48      1.0000 0.09990  0.40000  0.49340  Biso   1.000  N
  N49      1.0000 0.10250  0.30170  0.50960  Biso   1.000  N
  N50      1.0000 0.24710  0.97030  0.52410  Biso   1.000  N
  N51      1.0000 0.54100  0.87550  0.82210  Biso   1.000  N
  N52      1.0000 0.56010  0.90520  0.88030  Biso   1.000  N
  N53      1.0000 0.50130  0.93450  0.90240  Biso   1.000  N
  N54      1.0000 0.44170  0.92330  0.85910  Biso   1.000  N
  N55      1.0000 0.34430  0.82530  0.63200  Biso   1.000  N
  N56      1.0000 0.28640  0.25590  0.17280  Biso   1.000  N
  N57      1.0000 0.28250  0.23180  0.11310  Biso   1.000  N
  N58      1.0000 0.24240  0.30200  0.07870  Biso   1.000  N
  N59      1.0000 0.21950  0.37000  0.11550  Biso   1.000  N
  N60      1.0000 0.20840  0.49410  0.33520  Biso   1.000  N
  O5       1.0000 0.30350  0.55010  0.46200  Biso   1.000  O
  O6       1.0000 0.35130  0.66040  0.53270  Biso   1.000  O
  C65      1.0000 0.35540  0.58770  0.49730  Biso   1.000  C
  C66      1.0000 0.42980  0.54060  0.49930  Biso   1.000  C
  C67      1.0000 0.49110  0.58110  0.53440  Biso   1.000  C
  H45      1.0000 0.48620  0.63900  0.55750  Biso   1.000  H
  C68      1.0000 0.43950  0.46080  0.46300  Biso   1.000  C
  H46      1.0000 0.39970  0.43390  0.43640  Biso   1.000  H
  C69      1.0000 0.10220  0.68750  0.59900  Biso   1.000  C
  C70      1.0000 0.06920  0.66020  0.76350  Biso   1.000  C
  H47      1.0000 0.09730  0.65460  0.80280  Biso   1.000  H
  C71      1.0000 0.10670  0.67400  0.71220  Biso   1.000  C
  H48      1.0000 0.15750  0.68130  0.71830  Biso   1.000  H
  C72      1.0000 0.06540  0.67650  0.65220  Biso   1.000  C
  C73      1.0000 0.99040  0.66560  0.64850  Biso   1.000  C
  H49      1.0000 0.96100  0.66230  0.60970  Biso   1.000  H
  C74      1.0000 0.95830  0.65960  0.70050  Biso   1.000  C
  H50      1.0000 0.90730  0.65870  0.69580  Biso   1.000  H
  C75      1.0000 0.16610  0.26930  0.49680  Biso   1.000  C
  C76      1.0000 0.27560  0.03440  0.48690  Biso   1.000  C
  H51      1.0000 0.31100  0.01020  0.46480  Biso   1.000  H
  C77      1.0000 0.25510  0.13520  0.47950  Biso   1.000  C
  H52      1.0000 0.28020  0.17990  0.45780  Biso   1.000  H
  C78      1.0000 0.19440  0.16660  0.50650  Biso   1.000  C
  C79      1.0000 0.15960  0.09700  0.53830  Biso   1.000  C
  H53      1.0000 0.11690  0.11300  0.55370  Biso   1.000  H
  C80      1.0000 0.19110  0.00200  0.54630  Biso   1.000  C
  H54      1.0000 0.16950  0.95630  0.57020  Biso   1.000  H
  C81      1.0000 0.46780  0.88690  0.81070  Biso   1.000  C
  C82      1.0000 0.41340  0.79100  0.64980  Biso   1.000  C
  H55      1.0000 0.43450  0.75320  0.62160  Biso   1.000  H
  C83      1.0000 0.45380  0.80830  0.70640  Biso   1.000  C
  H56      1.0000 0.50120  0.78260  0.71620  Biso   1.000  H
  C84      1.0000 0.42350  0.86540  0.74980  Biso   1.000  C
  C85      1.0000 0.35430  0.89670  0.73280  Biso   1.000  C
  H57      1.0000 0.33130  0.93240  0.76080  Biso   1.000  H
  C86      1.0000 0.31600  0.87640  0.67340  Biso   1.000  C
  H58      1.0000 0.26820  0.90050  0.66280  Biso   1.000  H
  C87      1.0000 0.24820  0.33940  0.17330  Biso   1.000  C
  C88      1.0000 0.18280  0.52980  0.27810  Biso   1.000  C
  H59      1.0000 0.15600  0.58960  0.27450  Biso   1.000  H
  C89      1.0000 0.19430  0.48210  0.22520  Biso   1.000  C
  H60      1.0000 0.17530  0.50940  0.18660  Biso   1.000  H
  C90      1.0000 0.23410  0.39310  0.22880  Biso   1.000  C
  C91      1.0000 0.26020  0.35750  0.28740  Biso   1.000  C
  H61      1.0000 0.28760  0.29830  0.29260  Biso   1.000  H
  C92      1.0000 0.24550  0.40990  0.33810  Biso   1.000  C
  H62      1.0000 0.26310  0.38360  0.37720  Biso   1.000  H
  C93      1.0000 0.29090  0.05000  0.53150  Biso   1.000  C
  H63      1.0000 0.34120  0.03880  0.54230  Biso   1.000  H
  C94      1.0000 0.26740  0.14600  0.52400  Biso   1.000  C
  H64      1.0000 0.30110  0.19830  0.53170  Biso   1.000  H
  C95      1.0000 0.14500  0.08700  0.49900  Biso   1.000  C
  H65      1.0000 0.09480  0.09630  0.48590  Biso   1.000  H
  C96      1.0000 0.17700  0.98900  0.51100  Biso   1.000  C
  H66      1.0000 0.14460  0.93500  0.50960  Biso   1.000  H
  Cd7      1.0000 0.31597  0.07820  0.07492  Biso   1.000  Cd
  Cd8      1.0000 0.20791  0.30697  0.97145  Biso   1.000  Cd
  N61      1.0000 0.41090  0.13170  0.95410  Biso   1.000  N
  N62      1.0000 0.35730  0.15890  0.98580  Biso   1.000  N
  N63      1.0000 0.31620  0.22840  0.95450  Biso   1.000  N
  N64      1.0000 0.33980  0.24650  0.90090  Biso   1.000  N
  N65      1.0000 0.50230  0.15480  0.74120  Biso   1.000  N
  N66      1.0000 0.29690  0.84330  0.02700  Biso   1.000  N
  N67      1.0000 0.34020  0.92380  0.02870  Biso   1.000  N
  N68      1.0000 0.40010  0.90000  0.00660  Biso   1.000  N
  N69      1.0000 0.39750  0.80170  0.99040  Biso   1.000  N
  N70      1.0000 0.25290  0.47030  0.97590  Biso   1.000  N
  N71      1.0000 0.95900  0.37550  0.67790  Biso   1.000  N
  N72      1.0000 0.93990  0.40520  0.61970  Biso   1.000  N
  N73      1.0000 0.99870  0.43450  0.59760  Biso   1.000  N
  N74      1.0000 0.05830  0.42330  0.64090  Biso   1.000  N
  N75      1.0000 0.15570  0.32530  0.86800  Biso   1.000  N
  N76      1.0000 0.21360  0.75590  0.32720  Biso   1.000  N
  N77      1.0000 0.21750  0.73180  0.38690  Biso   1.000  N
  N78      1.0000 0.25760  0.80200  0.42130  Biso   1.000  N
  N79      1.0000 0.28050  0.87000  0.38450  Biso   1.000  N
  N80      1.0000 0.29160  0.99410  0.16480  Biso   1.000  N
  O7       1.0000 0.19650  0.05010  0.03800  Biso   1.000  O
  O8       1.0000 0.14870  0.16040  0.96730  Biso   1.000  O
  C97      1.0000 0.14460  0.08770  0.00270  Biso   1.000  C
  C98      1.0000 0.07020  0.04060  0.00070  Biso   1.000  C
  C99      1.0000 0.00890  0.08110  0.96560  Biso   1.000  C
  H67      1.0000 0.01380  0.13900  0.94250  Biso   1.000  H
  C100     1.0000 0.06050  0.96080  0.03700  Biso   1.000  C
  H68      1.0000 0.10030  0.93390  0.06360  Biso   1.000  H
  C101     1.0000 0.39780  0.18750  0.90100  Biso   1.000  C
  C102     1.0000 0.43080  0.16020  0.73650  Biso   1.000  C
  H69      1.0000 0.40270  0.15460  0.69720  Biso   1.000  H
  C103     1.0000 0.39330  0.17400  0.78780  Biso   1.000  C
  H70      1.0000 0.34250  0.18130  0.78170  Biso   1.000  H
  C104     1.0000 0.43460  0.17650  0.84780  Biso   1.000  C
  C105     1.0000 0.50960  0.16560  0.85150  Biso   1.000  C
  H71      1.0000 0.53900  0.16230  0.89030  Biso   1.000  H
  C106     1.0000 0.54170  0.15960  0.79950  Biso   1.000  C
  H72      1.0000 0.59270  0.15870  0.80420  Biso   1.000  H
  C107     1.0000 0.33390  0.76930  0.00320  Biso   1.000  C
  C108     1.0000 0.22440  0.53440  0.01310  Biso   1.000  C
  H73      1.0000 0.18900  0.51020  0.03520  Biso   1.000  H
  C109     1.0000 0.24490  0.63520  0.02050  Biso   1.000  C
  H74      1.0000 0.21980  0.67990  0.04220  Biso   1.000  H
  C110     1.0000 0.30560  0.66660  0.99350  Biso   1.000  C
  C111     1.0000 0.34040  0.59700  0.96170  Biso   1.000  C
  H75      1.0000 0.38310  0.61300  0.94630  Biso   1.000  H
  C112     1.0000 0.30890  0.50200  0.95370  Biso   1.000  C
  H76      1.0000 0.33050  0.45630  0.92980  Biso   1.000  H
  C113     1.0000 0.03220  0.38690  0.68930  Biso   1.000  C
  C114     1.0000 0.08660  0.29100  0.85020  Biso   1.000  C
  H77      1.0000 0.06550  0.25320  0.87840  Biso   1.000  H
  C115     1.0000 0.04620  0.30830  0.79360  Biso   1.000  C
  H78      1.0000 0.99880  0.28260  0.78380  Biso   1.000  H
  C116     1.0000 0.07650  0.36540  0.75020  Biso   1.000  C
  C117     1.0000 0.14570  0.39670  0.76720  Biso   1.000  C
  H79      1.0000 0.16870  0.43240  0.73920  Biso   1.000  H
  C118     1.0000 0.18400  0.37640  0.82660  Biso   1.000  C
  H80      1.0000 0.23180  0.40050  0.83720  Biso   1.000  H
  C119     1.0000 0.25180  0.83940  0.32670  Biso   1.000  C
  C120     1.0000 0.31720  0.02980  0.22190  Biso   1.000  C
  H81      1.0000 0.34400  0.08960  0.22550  Biso   1.000  H
  C121     1.0000 0.30570  0.98210  0.27480  Biso   1.000  C
  H82      1.0000 0.32470  0.00940  0.31340  Biso   1.000  H
  C122     1.0000 0.26590  0.89310  0.27120  Biso   1.000  C
  C123     1.0000 0.23980  0.85750  0.21260  Biso   1.000  C
  H83      1.0000 0.21240  0.79830  0.20740  Biso   1.000  H
  C124     1.0000 0.25450  0.90990  0.16190  Biso   1.000  C
  H84      1.0000 0.23690  0.88360  0.12280  Biso   1.000  H
  C125     1.0000 0.20910  0.55000  0.96850  Biso   1.000  C
  H85      1.0000 0.15880  0.53880  0.95770  Biso   1.000  H
  C126     1.0000 0.23260  0.64600  0.97600  Biso   1.000  C
  H86      1.0000 0.19890  0.69830  0.96830  Biso   1.000  H
  C127     1.0000 0.35500  0.58700  0.00100  Biso   1.000  C
  H87      1.0000 0.40520  0.59630  0.01410  Biso   1.000  H
  C128     1.0000 0.32300  0.48900  0.98900  Biso   1.000  C
  H88      1.0000 0.35540  0.43500  0.99040  Biso   1.000  H
  Cd9      1.0000 0.00000  0.50000  0.50000  Biso   1.000  Cd
  Cd10     1.0000 0.50000  0.00000  0.00000  Biso   1.000  Cd
