data_image0
_cell_length_a       10.4309
_cell_length_b       11.4737
_cell_length_c       12.9497
_cell_angle_alpha    106.724
_cell_angle_beta     90.209
_cell_angle_gamma    93.187

_symmetry_space_group_name_H-M    "P 1"
_symmetry_int_tables_number       1

loop_
  _symmetry_equiv_pos_as_xyz
  'x, y, z'

loop_
  _atom_site_label
  _atom_site_occupancy
  _atom_site_fract_x
  _atom_site_fract_y
  _atom_site_fract_z
  _atom_site_thermal_displace_type
  _atom_site_B_iso_or_equiv
  _atom_site_type_symbol
  Nd1      1.0000 0.52459  0.54627  0.66380  Biso   1.000  Nd
  O1       1.0000 0.61412  0.72168  0.81402  Biso   1.000  O
  O2       1.0000 0.40439  0.71589  0.78483  Biso   1.000  O
  O3       1.0000 0.64444  0.49058  0.49260  Biso   1.000  O
  O4       1.0000 0.71426  0.52562  0.34392  Biso   1.000  O
  O5       1.0000 0.51059  0.32880  0.58586  Biso   1.000  O
  O6       1.0000 0.46221  0.27437  0.40929  Biso   1.000  O
  C1       1.0000 0.50550  0.76710  0.83276  Biso   1.000  C
  C2       1.0000 0.50020  0.88790  0.91768  Biso   1.000  C
  C3       1.0000 0.55370  0.99500  0.89830  Biso   1.000  C
  C4       1.0000 0.60430  0.99480  0.79540  Biso   1.000  C
  H1       1.0000 0.60340  0.92070  0.73880  Biso   1.000  H
  C5       1.0000 0.65350  0.09980  0.77810  Biso   1.000  C
  H2       1.0000 0.68590  0.09820  0.70930  Biso   1.000  H
  C6       1.0000 0.65680  0.21180  0.86200  Biso   1.000  C
  H3       1.0000 0.69280  0.28420  0.84920  Biso   1.000  H
  C7       1.0000 0.60910  0.21600  0.96010  Biso   1.000  C
  H4       1.0000 0.61170  0.29170  0.01510  Biso   1.000  H
  C8       1.0000 0.55460  0.10850  0.98250  Biso   1.000  C
  C9       1.0000 0.73550  0.51070  0.43340  Biso   1.000  C
  C10      1.0000 0.87160  0.50610  0.46860  Biso   1.000  C
  C11      1.0000 0.92480  0.59600  0.55740  Biso   1.000  C
  C12      1.0000 0.85290  0.69570  0.61690  Biso   1.000  C
  H5       1.0000 0.76710  0.70160  0.59520  Biso   1.000  H
  C13      1.0000 0.90620  0.78220  0.70450  Biso   1.000  C
  H6       1.0000 0.85670  0.84690  0.74390  Biso   1.000  H
  C14      1.0000 0.03490  0.77580  0.73670  Biso   1.000  C
  H7       1.0000 0.07110  0.83670  0.79750  Biso   1.000  H
  C15      1.0000 0.10770  0.68380  0.68220  Biso   1.000  C
  H8       1.0000 0.19390  0.68140  0.70510  Biso   1.000  H
  C16      1.0000 0.05540  0.59060  0.59050  Biso   1.000  C
  C17      1.0000 0.48830  0.25240  0.49555  Biso   1.000  C
  C18      1.0000 0.49360  0.12045  0.49549  Biso   1.000  C
  C19      1.0000 0.38640  0.06160  0.52660  Biso   1.000  C
  C20      1.0000 0.26770  0.12090  0.55170  Biso   1.000  C
  H9       1.0000 0.26320  0.20320  0.55090  Biso   1.000  H
  C21      1.0000 0.16260  0.06070  0.57620  Biso   1.000  C
  H10      1.0000 0.08400  0.10000  0.58990  Biso   1.000  H
  C22      1.0000 0.16840  0.93930  0.58180  Biso   1.000  C
  H11      1.0000 0.09430  0.89900  0.60130  Biso   1.000  H
  C23      1.0000 0.27850  0.88040  0.55970  Biso   1.000  C
  H12      1.0000 0.28030  0.79920  0.56390  Biso   1.000  H
  C24      1.0000 0.39270  0.93790  0.53010  Biso   1.000  C
  C25      1.0000 0.37900  0.05400  0.50300  Biso   1.000  C
  C26      1.0000 0.25560  0.09850  0.51030  Biso   1.000  C
  H13      1.0000 0.24590  0.17930  0.50750  Biso   1.000  H
  C27      1.0000 0.14960  0.02860  0.52130  Biso   1.000  C
  H14      1.0000 0.06750  0.06120  0.52480  Biso   1.000  H
  C28      1.0000 0.15950  0.90870  0.52750  Biso   1.000  C
  H15      1.0000 0.08420  0.86270  0.53690  Biso   1.000  H
  C29      1.0000 0.27580  0.85760  0.52020  Biso   1.000  C
  H16      1.0000 0.28290  0.77600  0.52200  Biso   1.000  H
  C30      1.0000 0.38500  0.93200  0.51000  Biso   1.000  C
  Nd2      1.0000 0.47541  0.45373  0.33620  Biso   1.000  Nd
  O7       1.0000 0.38588  0.27832  0.18598  Biso   1.000  O
  O8       1.0000 0.59561  0.28411  0.21517  Biso   1.000  O
  O9       1.0000 0.35556  0.50942  0.50740  Biso   1.000  O
  O10      1.0000 0.28574  0.47438  0.65608  Biso   1.000  O
  O11      1.0000 0.48941  0.67120  0.41414  Biso   1.000  O
  O12      1.0000 0.53779  0.72563  0.59071  Biso   1.000  O
  C31      1.0000 0.49450  0.23290  0.16724  Biso   1.000  C
  C32      1.0000 0.49980  0.11210  0.08232  Biso   1.000  C
  C33      1.0000 0.44630  0.00500  0.10170  Biso   1.000  C
  C34      1.0000 0.39570  0.00520  0.20460  Biso   1.000  C
  H17      1.0000 0.39660  0.07930  0.26120  Biso   1.000  H
  C35      1.0000 0.34650  0.90020  0.22190  Biso   1.000  C
  H18      1.0000 0.31410  0.90180  0.29070  Biso   1.000  H
  C36      1.0000 0.34320  0.78820  0.13800  Biso   1.000  C
  H19      1.0000 0.30720  0.71580  0.15080  Biso   1.000  H
  C37      1.0000 0.39090  0.78400  0.03990  Biso   1.000  C
  H20      1.0000 0.38830  0.70830  0.98490  Biso   1.000  H
  C38      1.0000 0.44540  0.89150  0.01750  Biso   1.000  C
  C39      1.0000 0.26450  0.48930  0.56660  Biso   1.000  C
  C40      1.0000 0.12840  0.49390  0.53140  Biso   1.000  C
  C41      1.0000 0.07520  0.40400  0.44260  Biso   1.000  C
  C42      1.0000 0.14710  0.30430  0.38310  Biso   1.000  C
  H21      1.0000 0.23290  0.29840  0.40480  Biso   1.000  H
  C43      1.0000 0.09380  0.21780  0.29550  Biso   1.000  C
  H22      1.0000 0.14330  0.15310  0.25610  Biso   1.000  H
  C44      1.0000 0.96510  0.22420  0.26330  Biso   1.000  C
  H23      1.0000 0.92890  0.16330  0.20250  Biso   1.000  H
  C45      1.0000 0.89230  0.31620  0.31780  Biso   1.000  C
  H24      1.0000 0.80610  0.31860  0.29490  Biso   1.000  H
  C46      1.0000 0.94460  0.40940  0.40950  Biso   1.000  C
  C47      1.0000 0.51170  0.74760  0.50445  Biso   1.000  C
  C48      1.0000 0.50640  0.87955  0.50451  Biso   1.000  C
  C49      1.0000 0.61360  0.93840  0.47340  Biso   1.000  C
  C50      1.0000 0.73230  0.87910  0.44830  Biso   1.000  C
  H25      1.0000 0.73680  0.79680  0.44910  Biso   1.000  H
  C51      1.0000 0.83740  0.93930  0.42380  Biso   1.000  C
  H26      1.0000 0.91600  0.90000  0.41010  Biso   1.000  H
  C52      1.0000 0.83160  0.06070  0.41820  Biso   1.000  C
  H27      1.0000 0.90570  0.10100  0.39870  Biso   1.000  H
  C53      1.0000 0.72150  0.11960  0.44030  Biso   1.000  C
  H28      1.0000 0.71970  0.20080  0.43610  Biso   1.000  H
  C54      1.0000 0.60730  0.06210  0.46990  Biso   1.000  C
  C55      1.0000 0.62100  0.94600  0.49700  Biso   1.000  C
  C56      1.0000 0.74440  0.90150  0.48970  Biso   1.000  C
  H29      1.0000 0.75410  0.82070  0.49250  Biso   1.000  H
  C57      1.0000 0.85040  0.97140  0.47870  Biso   1.000  C
  H30      1.0000 0.93250  0.93880  0.47520  Biso   1.000  H
  C58      1.0000 0.84050  0.09130  0.47250  Biso   1.000  C
  H31      1.0000 0.91580  0.13730  0.46310  Biso   1.000  H
  C59      1.0000 0.72420  0.14240  0.47980  Biso   1.000  C
  H32      1.0000 0.71710  0.22400  0.47800  Biso   1.000  H
  C60      1.0000 0.61500  0.06800  0.49000  Biso   1.000  C
