data_image0
_cell_length_a       10.4024
_cell_length_b       11.4246
_cell_length_c       12.9388
_cell_angle_alpha    106.928
_cell_angle_beta     90.122
_cell_angle_gamma    92.989

_symmetry_space_group_name_H-M    "P 1"
_symmetry_int_tables_number       1

loop_
  _symmetry_equiv_pos_as_xyz
  'x, y, z'

loop_
  _atom_site_label
  _atom_site_occupancy
  _atom_site_fract_x
  _atom_site_fract_y
  _atom_site_fract_z
  _atom_site_thermal_displace_type
  _atom_site_B_iso_or_equiv
  _atom_site_type_symbol
  Sm1      1.0000 0.52347  0.54606  0.66258  Biso   1.000  Sm
  O1       1.0000 0.61359  0.71976  0.81154  Biso   1.000  O
  O2       1.0000 0.40382  0.71487  0.78316  Biso   1.000  O
  O3       1.0000 0.64292  0.49124  0.49277  Biso   1.000  O
  O4       1.0000 0.71409  0.52495  0.34397  Biso   1.000  O
  O5       1.0000 0.51046  0.33042  0.58566  Biso   1.000  O
  O6       1.0000 0.46400  0.27511  0.40840  Biso   1.000  O
  C1       1.0000 0.50530  0.76635  0.83152  Biso   1.000  C
  C2       1.0000 0.50030  0.88743  0.91713  Biso   1.000  C
  C3       1.0000 0.55390  0.99475  0.89815  Biso   1.000  C
  C4       1.0000 0.60510  0.99490  0.79531  Biso   1.000  C
  H1       1.0000 0.60430  0.92050  0.73830  Biso   1.000  H
  C5       1.0000 0.65470  0.10000  0.77820  Biso   1.000  C
  H2       1.0000 0.68750  0.09830  0.70930  Biso   1.000  H
  C6       1.0000 0.65810  0.21270  0.86300  Biso   1.000  C
  H3       1.0000 0.69410  0.28540  0.85050  Biso   1.000  H
  C7       1.0000 0.61010  0.21690  0.96160  Biso   1.000  C
  H4       1.0000 0.61290  0.29280  0.01710  Biso   1.000  H
  C8       1.0000 0.55530  0.10893  0.98316  Biso   1.000  C
  C9       1.0000 0.73469  0.51077  0.43367  Biso   1.000  C
  C10      1.0000 0.87133  0.50580  0.46901  Biso   1.000  C
  C11      1.0000 0.92430  0.59660  0.55818  Biso   1.000  C
  C12      1.0000 0.85260  0.69700  0.61840  Biso   1.000  C
  H5       1.0000 0.76630  0.70280  0.59710  Biso   1.000  H
  C13      1.0000 0.90550  0.78430  0.70540  Biso   1.000  C
  H6       1.0000 0.85580  0.84960  0.74470  Biso   1.000  H
  C14      1.0000 0.03490  0.77790  0.73750  Biso   1.000  C
  H7       1.0000 0.07120  0.83930  0.79830  Biso   1.000  H
  C15      1.0000 0.10760  0.68530  0.68260  Biso   1.000  C
  H8       1.0000 0.19410  0.68290  0.70540  Biso   1.000  H
  C16      1.0000 0.05580  0.59120  0.59076  Biso   1.000  C
  C17      1.0000 0.48904  0.25333  0.49537  Biso   1.000  C
  C18      1.0000 0.49379  0.12099  0.49510  Biso   1.000  C
  C19      1.0000 0.38570  0.06280  0.52570  Biso   1.000  C
  C20      1.0000 0.26650  0.12170  0.54990  Biso   1.000  C
  H9       1.0000 0.26170  0.20420  0.54910  Biso   1.000  H
  C21      1.0000 0.16030  0.06100  0.57390  Biso   1.000  C
  H10      1.0000 0.08180  0.10120  0.58830  Biso   1.000  H
  C22      1.0000 0.16520  0.93840  0.57760  Biso   1.000  C
  H11      1.0000 0.08990  0.89700  0.59400  Biso   1.000  H
  C23      1.0000 0.27720  0.87980  0.55790  Biso   1.000  C
  H12      1.0000 0.27990  0.79860  0.56260  Biso   1.000  H
  C24      1.0000 0.39050  0.93870  0.53020  Biso   1.000  C
  C25      1.0000 0.37800  0.05100  0.50250  Biso   1.000  C
  C26      1.0000 0.25530  0.10110  0.51100  Biso   1.000  C
  H13      1.0000 0.24650  0.18290  0.50920  Biso   1.000  H
  C27      1.0000 0.15030  0.03020  0.52160  Biso   1.000  C
  H14      1.0000 0.06760  0.06260  0.52540  Biso   1.000  H
  C28      1.0000 0.16090  0.90990  0.52720  Biso   1.000  C
  H15      1.0000 0.08500  0.86360  0.53520  Biso   1.000  H
  C29      1.0000 0.27310  0.85940  0.52160  Biso   1.000  C
  H16      1.0000 0.27760  0.77850  0.52710  Biso   1.000  H
  C30      1.0000 0.39100  0.92900  0.50690  Biso   1.000  C
  Sm2      1.0000 0.47653  0.45394  0.33742  Biso   1.000  Sm
  O7       1.0000 0.38641  0.28024  0.18846  Biso   1.000  O
  O8       1.0000 0.59618  0.28513  0.21684  Biso   1.000  O
  O9       1.0000 0.35708  0.50876  0.50723  Biso   1.000  O
  O10      1.0000 0.28591  0.47505  0.65603  Biso   1.000  O
  O11      1.0000 0.48954  0.66958  0.41434  Biso   1.000  O
  O12      1.0000 0.53600  0.72489  0.59160  Biso   1.000  O
  C31      1.0000 0.49470  0.23365  0.16848  Biso   1.000  C
  C32      1.0000 0.49970  0.11257  0.08287  Biso   1.000  C
  C33      1.0000 0.44610  0.00525  0.10185  Biso   1.000  C
  C34      1.0000 0.39490  0.00510  0.20469  Biso   1.000  C
  H17      1.0000 0.39570  0.07950  0.26170  Biso   1.000  H
  C35      1.0000 0.34530  0.90000  0.22180  Biso   1.000  C
  H18      1.0000 0.31250  0.90170  0.29070  Biso   1.000  H
  C36      1.0000 0.34190  0.78730  0.13700  Biso   1.000  C
  H19      1.0000 0.30590  0.71460  0.14950  Biso   1.000  H
  C37      1.0000 0.38990  0.78310  0.03840  Biso   1.000  C
  H20      1.0000 0.38710  0.70720  0.98290  Biso   1.000  H
  C38      1.0000 0.44470  0.89107  0.01684  Biso   1.000  C
  C39      1.0000 0.26531  0.48923  0.56633  Biso   1.000  C
  C40      1.0000 0.12867  0.49420  0.53099  Biso   1.000  C
  C41      1.0000 0.07570  0.40340  0.44182  Biso   1.000  C
  C42      1.0000 0.14740  0.30300  0.38160  Biso   1.000  C
  H21      1.0000 0.23370  0.29720  0.40290  Biso   1.000  H
  C43      1.0000 0.09450  0.21570  0.29460  Biso   1.000  C
  H22      1.0000 0.14420  0.15040  0.25530  Biso   1.000  H
  C44      1.0000 0.96510  0.22210  0.26250  Biso   1.000  C
  H23      1.0000 0.92880  0.16070  0.20170  Biso   1.000  H
  C45      1.0000 0.89240  0.31470  0.31740  Biso   1.000  C
  H24      1.0000 0.80590  0.31710  0.29460  Biso   1.000  H
  C46      1.0000 0.94420  0.40880  0.40924  Biso   1.000  C
  C47      1.0000 0.51096  0.74667  0.50463  Biso   1.000  C
  C48      1.0000 0.50621  0.87901  0.50490  Biso   1.000  C
  C49      1.0000 0.61430  0.93720  0.47430  Biso   1.000  C
  C50      1.0000 0.73350  0.87830  0.45010  Biso   1.000  C
  H25      1.0000 0.73830  0.79580  0.45090  Biso   1.000  H
  C51      1.0000 0.83970  0.93900  0.42610  Biso   1.000  C
  H26      1.0000 0.91820  0.89880  0.41170  Biso   1.000  H
  C52      1.0000 0.83480  0.06160  0.42240  Biso   1.000  C
  H27      1.0000 0.91010  0.10300  0.40600  Biso   1.000  H
  C53      1.0000 0.72280  0.12020  0.44210  Biso   1.000  C
  H28      1.0000 0.72010  0.20140  0.43740  Biso   1.000  H
  C54      1.0000 0.60950  0.06130  0.46980  Biso   1.000  C
  C55      1.0000 0.62200  0.94900  0.49750  Biso   1.000  C
  C56      1.0000 0.74470  0.89890  0.48900  Biso   1.000  C
  H29      1.0000 0.75350  0.81710  0.49080  Biso   1.000  H
  C57      1.0000 0.84970  0.96980  0.47840  Biso   1.000  C
  H30      1.0000 0.93240  0.93740  0.47460  Biso   1.000  H
  C58      1.0000 0.83910  0.09010  0.47280  Biso   1.000  C
  H31      1.0000 0.91500  0.13640  0.46480  Biso   1.000  H
  C59      1.0000 0.72690  0.14060  0.47840  Biso   1.000  C
  H32      1.0000 0.72240  0.22150  0.47290  Biso   1.000  H
  C60      1.0000 0.60900  0.07100  0.49310  Biso   1.000  C
