data_image0
_cell_length_a       10.4511
_cell_length_b       11.5252
_cell_length_c       12.9767
_cell_angle_alpha    106.487
_cell_angle_beta     90.202
_cell_angle_gamma    93.46

_symmetry_space_group_name_H-M    "P 1"
_symmetry_int_tables_number       1

loop_
  _symmetry_equiv_pos_as_xyz
  'x, y, z'

loop_
  _atom_site_label
  _atom_site_occupancy
  _atom_site_fract_x
  _atom_site_fract_y
  _atom_site_fract_z
  _atom_site_thermal_displace_type
  _atom_site_B_iso_or_equiv
  _atom_site_type_symbol
  Ce1      1.0000 0.52662  0.54629  0.66503  Biso   1.000  Ce
  O1       1.0000 0.61480  0.72386  0.81689  Biso   1.000  O
  O2       1.0000 0.40563  0.71658  0.78693  Biso   1.000  O
  O3       1.0000 0.64595  0.49083  0.49178  Biso   1.000  O
  O4       1.0000 0.71564  0.52709  0.34353  Biso   1.000  O
  O5       1.0000 0.51180  0.32731  0.58558  Biso   1.000  O
  O6       1.0000 0.46141  0.27339  0.41021  Biso   1.000  O
  C1       1.0000 0.50690  0.76850  0.83490  Biso   1.000  C
  C2       1.0000 0.50060  0.88840  0.91880  Biso   1.000  C
  C3       1.0000 0.55340  0.99490  0.89840  Biso   1.000  C
  C4       1.0000 0.60390  0.99500  0.79570  Biso   1.000  C
  H1       1.0000 0.60320  0.92120  0.73960  Biso   1.000  H
  C5       1.0000 0.65260  0.09900  0.77770  Biso   1.000  C
  H2       1.0000 0.68500  0.09730  0.70900  Biso   1.000  H
  C6       1.0000 0.65570  0.21080  0.86040  Biso   1.000  C
  H3       1.0000 0.69120  0.28280  0.84690  Biso   1.000  H
  C7       1.0000 0.60810  0.21510  0.95850  Biso   1.000  C
  H4       1.0000 0.61070  0.29040  0.01290  Biso   1.000  H
  C8       1.0000 0.55410  0.10810  0.98180  Biso   1.000  C
  C9       1.0000 0.73670  0.51100  0.43240  Biso   1.000  C
  C10      1.0000 0.87250  0.50600  0.46790  Biso   1.000  C
  C11      1.0000 0.92540  0.59530  0.55680  Biso   1.000  C
  C12      1.0000 0.85390  0.69400  0.61560  Biso   1.000  C
  H5       1.0000 0.76830  0.69990  0.59350  Biso   1.000  H
  C13      1.0000 0.90680  0.77950  0.70270  Biso   1.000  C
  H6       1.0000 0.85760  0.84370  0.74140  Biso   1.000  H
  C14      1.0000 0.03540  0.77330  0.73610  Biso   1.000  C
  H7       1.0000 0.07140  0.83360  0.79690  Biso   1.000  H
  C15      1.0000 0.10710  0.68220  0.68200  Biso   1.000  C
  H8       1.0000 0.19300  0.67990  0.70500  Biso   1.000  H
  C16      1.0000 0.05540  0.58970  0.59080  Biso   1.000  C
  C17      1.0000 0.48850  0.25130  0.49600  Biso   1.000  C
  C18      1.0000 0.49360  0.12030  0.49563  Biso   1.000  C
  C19      1.0000 0.38380  0.06060  0.52630  Biso   1.000  C
  C20      1.0000 0.26910  0.11950  0.55180  Biso   1.000  C
  H9       1.0000 0.26550  0.20140  0.55110  Biso   1.000  H
  C21      1.0000 0.16420  0.06010  0.57740  Biso   1.000  C
  H10      1.0000 0.08630  0.09960  0.59200  Biso   1.000  H
  C22      1.0000 0.16910  0.93910  0.58270  Biso   1.000  C
  H11      1.0000 0.09500  0.89880  0.60210  Biso   1.000  H
  C23      1.0000 0.27950  0.88020  0.55990  Biso   1.000  C
  H12      1.0000 0.28100  0.79930  0.56390  Biso   1.000  H
  C24      1.0000 0.39300  0.93730  0.53030  Biso   1.000  C
  C25      1.0000 0.38800  0.05400  0.50500  Biso   1.000  C
  C26      1.0000 0.25500  0.09830  0.51140  Biso   1.000  C
  H13      1.0000 0.24430  0.17850  0.50810  Biso   1.000  H
  C27      1.0000 0.14900  0.02730  0.52180  Biso   1.000  C
  H14      1.0000 0.06670  0.05900  0.52640  Biso   1.000  H
  C28      1.0000 0.16090  0.90570  0.52580  Biso   1.000  C
  H15      1.0000 0.08590  0.85870  0.53400  Biso   1.000  H
  C29      1.0000 0.27250  0.85650  0.51840  Biso   1.000  C
  H16      1.0000 0.27900  0.77490  0.51910  Biso   1.000  H
  C30      1.0000 0.38600  0.93400  0.50900  Biso   1.000  C
  Ce2      1.0000 0.47338  0.45371  0.33497  Biso   1.000  Ce
  O7       1.0000 0.38520  0.27614  0.18311  Biso   1.000  O
  O8       1.0000 0.59437  0.28342  0.21307  Biso   1.000  O
  O9       1.0000 0.35405  0.50917  0.50822  Biso   1.000  O
  O10      1.0000 0.28436  0.47291  0.65647  Biso   1.000  O
  O11      1.0000 0.48820  0.67269  0.41442  Biso   1.000  O
  O12      1.0000 0.53859  0.72661  0.58979  Biso   1.000  O
  C31      1.0000 0.49310  0.23150  0.16510  Biso   1.000  C
  C32      1.0000 0.49940  0.11160  0.08120  Biso   1.000  C
  C33      1.0000 0.44660  0.00510  0.10160  Biso   1.000  C
  C34      1.0000 0.39610  0.00500  0.20430  Biso   1.000  C
  H17      1.0000 0.39680  0.07880  0.26040  Biso   1.000  H
  C35      1.0000 0.34740  0.90100  0.22230  Biso   1.000  C
  H18      1.0000 0.31500  0.90270  0.29100  Biso   1.000  H
  C36      1.0000 0.34430  0.78920  0.13960  Biso   1.000  C
  H19      1.0000 0.30880  0.71720  0.15310  Biso   1.000  H
  C37      1.0000 0.39190  0.78490  0.04150  Biso   1.000  C
  H20      1.0000 0.38930  0.70960  0.98710  Biso   1.000  H
  C38      1.0000 0.44590  0.89190  0.01820  Biso   1.000  C
  C39      1.0000 0.26330  0.48900  0.56760  Biso   1.000  C
  C40      1.0000 0.12750  0.49400  0.53210  Biso   1.000  C
  C41      1.0000 0.07460  0.40470  0.44320  Biso   1.000  C
  C42      1.0000 0.14610  0.30600  0.38440  Biso   1.000  C
  H21      1.0000 0.23170  0.30010  0.40650  Biso   1.000  H
  C43      1.0000 0.09320  0.22050  0.29730  Biso   1.000  C
  H22      1.0000 0.14240  0.15630  0.25860  Biso   1.000  H
  C44      1.0000 0.96460  0.22670  0.26390  Biso   1.000  C
  H23      1.0000 0.92860  0.16640  0.20310  Biso   1.000  H
  C45      1.0000 0.89290  0.31780  0.31800  Biso   1.000  C
  H24      1.0000 0.80700  0.32010  0.29500  Biso   1.000  H
  C46      1.0000 0.94460  0.41030  0.40920  Biso   1.000  C
  C47      1.0000 0.51150  0.74870  0.50400  Biso   1.000  C
  C48      1.0000 0.50640  0.87970  0.50437  Biso   1.000  C
  C49      1.0000 0.61620  0.93940  0.47370  Biso   1.000  C
  C50      1.0000 0.73090  0.88050  0.44820  Biso   1.000  C
  H25      1.0000 0.73450  0.79860  0.44890  Biso   1.000  H
  C51      1.0000 0.83580  0.93990  0.42260  Biso   1.000  C
  H26      1.0000 0.91370  0.90040  0.40800  Biso   1.000  H
  C52      1.0000 0.83090  0.06090  0.41730  Biso   1.000  C
  H27      1.0000 0.90500  0.10120  0.39790  Biso   1.000  H
  C53      1.0000 0.72050  0.11980  0.44010  Biso   1.000  C
  H28      1.0000 0.71900  0.20070  0.43610  Biso   1.000  H
  C54      1.0000 0.60700  0.06270  0.46970  Biso   1.000  C
  C55      1.0000 0.61200  0.94600  0.49500  Biso   1.000  C
  C56      1.0000 0.74500  0.90170  0.48860  Biso   1.000  C
  H29      1.0000 0.75570  0.82150  0.49190  Biso   1.000  H
  C57      1.0000 0.85100  0.97270  0.47820  Biso   1.000  C
  H30      1.0000 0.93330  0.94100  0.47360  Biso   1.000  H
  C58      1.0000 0.83910  0.09430  0.47420  Biso   1.000  C
  H31      1.0000 0.91410  0.14130  0.46600  Biso   1.000  H
  C59      1.0000 0.72750  0.14350  0.48160  Biso   1.000  C
  H32      1.0000 0.72100  0.22510  0.48090  Biso   1.000  H
  C60      1.0000 0.61400  0.06600  0.49100  Biso   1.000  C
