data_image0
_cell_length_a       10.4425
_cell_length_b       11.4902
_cell_length_c       12.9208
_cell_angle_alpha    106.462
_cell_angle_beta     90.503
_cell_angle_gamma    93.335

_symmetry_space_group_name_H-M    "P 1"
_symmetry_int_tables_number       1

loop_
  _symmetry_equiv_pos_as_xyz
  'x, y, z'

loop_
  _atom_site_label
  _atom_site_occupancy
  _atom_site_fract_x
  _atom_site_fract_y
  _atom_site_fract_z
  _atom_site_thermal_displace_type
  _atom_site_B_iso_or_equiv
  _atom_site_type_symbol
  Pr1      1.0000 0.52681  0.54603  0.66480  Biso   1.000  Pr
  O1       1.0000 0.61501  0.72305  0.81615  Biso   1.000  O
  O2       1.0000 0.40551  0.71511  0.78492  Biso   1.000  O
  O3       1.0000 0.64775  0.49032  0.49085  Biso   1.000  O
  O4       1.0000 0.71430  0.52830  0.34338  Biso   1.000  O
  O5       1.0000 0.51270  0.32824  0.58583  Biso   1.000  O
  O6       1.0000 0.46010  0.27423  0.41012  Biso   1.000  O
  C1       1.0000 0.50680  0.76760  0.83350  Biso   1.000  C
  C2       1.0000 0.50050  0.88860  0.91840  Biso   1.000  C
  C3       1.0000 0.55400  0.99480  0.89850  Biso   1.000  C
  C4       1.0000 0.60480  0.99500  0.79570  Biso   1.000  C
  H1       1.0000 0.60400  0.92090  0.73940  Biso   1.000  H
  C5       1.0000 0.65430  0.09970  0.77750  Biso   1.000  C
  H2       1.0000 0.68670  0.09800  0.70860  Biso   1.000  H
  C6       1.0000 0.65750  0.21160  0.86140  Biso   1.000  C
  H3       1.0000 0.69350  0.28390  0.84830  Biso   1.000  H
  C7       1.0000 0.60970  0.21580  0.95970  Biso   1.000  C
  H4       1.0000 0.61250  0.29120  0.01460  Biso   1.000  H
  C8       1.0000 0.55480  0.10810  0.98210  Biso   1.000  C
  C9       1.0000 0.73490  0.51140  0.43410  Biso   1.000  C
  C10      1.0000 0.87200  0.50610  0.46810  Biso   1.000  C
  C11      1.0000 0.92590  0.59580  0.55710  Biso   1.000  C
  C12      1.0000 0.85540  0.69570  0.61640  Biso   1.000  C
  H5       1.0000 0.76990  0.70240  0.59410  Biso   1.000  H
  C13      1.0000 0.90830  0.78070  0.70380  Biso   1.000  C
  H6       1.0000 0.85870  0.84460  0.74310  Biso   1.000  H
  C14      1.0000 0.03780  0.77530  0.73720  Biso   1.000  C
  H7       1.0000 0.07460  0.83630  0.79770  Biso   1.000  H
  C15      1.0000 0.10900  0.68280  0.68240  Biso   1.000  C
  H8       1.0000 0.19500  0.67980  0.70560  Biso   1.000  H
  C16      1.0000 0.05640  0.59010  0.59080  Biso   1.000  C
  C17      1.0000 0.48820  0.25200  0.49580  Biso   1.000  C
  C18      1.0000 0.49370  0.12050  0.49540  Biso   1.000  C
  C19      1.0000 0.38670  0.06170  0.52800  Biso   1.000  C
  C20      1.0000 0.27090  0.12140  0.55460  Biso   1.000  C
  H9       1.0000 0.26700  0.20350  0.55360  Biso   1.000  H
  C21      1.0000 0.16550  0.06170  0.58160  Biso   1.000  C
  H10      1.0000 0.08760  0.10130  0.59640  Biso   1.000  H
  C22      1.0000 0.17130  0.94120  0.58780  Biso   1.000  C
  H11      1.0000 0.09840  0.90190  0.61000  Biso   1.000  H
  C23      1.0000 0.27960  0.88120  0.56240  Biso   1.000  C
  H12      1.0000 0.28020  0.79940  0.56490  Biso   1.000  H
  C24      1.0000 0.39490  0.93850  0.53150  Biso   1.000  C
  C25      1.0000 0.38000  0.05400  0.50490  Biso   1.000  C
  C26      1.0000 0.25340  0.09930  0.51300  Biso   1.000  C
  H13      1.0000 0.24310  0.18000  0.51030  Biso   1.000  H
  C27      1.0000 0.14990  0.02960  0.52440  Biso   1.000  C
  H14      1.0000 0.06800  0.06240  0.53000  Biso   1.000  H
  C28      1.0000 0.15950  0.90730  0.52820  Biso   1.000  C
  H15      1.0000 0.08430  0.86030  0.53610  Biso   1.000  H
  C29      1.0000 0.27480  0.85790  0.52060  Biso   1.000  C
  H16      1.0000 0.28130  0.77600  0.52140  Biso   1.000  H
  C30      1.0000 0.38300  0.93000  0.51160  Biso   1.000  C
  Pr2      1.0000 0.47319  0.45397  0.33520  Biso   1.000  Pr
  O7       1.0000 0.38499  0.27695  0.18385  Biso   1.000  O
  O8       1.0000 0.59449  0.28489  0.21508  Biso   1.000  O
  O9       1.0000 0.35225  0.50968  0.50915  Biso   1.000  O
  O10      1.0000 0.28570  0.47170  0.65662  Biso   1.000  O
  O11      1.0000 0.48730  0.67176  0.41417  Biso   1.000  O
  O12      1.0000 0.53990  0.72577  0.58988  Biso   1.000  O
  C31      1.0000 0.49320  0.23240  0.16650  Biso   1.000  C
  C32      1.0000 0.49950  0.11140  0.08160  Biso   1.000  C
  C33      1.0000 0.44600  0.00520  0.10150  Biso   1.000  C
  C34      1.0000 0.39520  0.00500  0.20430  Biso   1.000  C
  H17      1.0000 0.39600  0.07910  0.26060  Biso   1.000  H
  C35      1.0000 0.34570  0.90030  0.22250  Biso   1.000  C
  H18      1.0000 0.31330  0.90200  0.29140  Biso   1.000  H
  C36      1.0000 0.34250  0.78840  0.13860  Biso   1.000  C
  H19      1.0000 0.30650  0.71610  0.15170  Biso   1.000  H
  C37      1.0000 0.39030  0.78420  0.04030  Biso   1.000  C
  H20      1.0000 0.38750  0.70880  0.98540  Biso   1.000  H
  C38      1.0000 0.44520  0.89190  0.01790  Biso   1.000  C
  C39      1.0000 0.26510  0.48860  0.56590  Biso   1.000  C
  C40      1.0000 0.12800  0.49390  0.53190  Biso   1.000  C
  C41      1.0000 0.07410  0.40420  0.44290  Biso   1.000  C
  C42      1.0000 0.14460  0.30430  0.38360  Biso   1.000  C
  H21      1.0000 0.23010  0.29760  0.40590  Biso   1.000  H
  C43      1.0000 0.09170  0.21930  0.29620  Biso   1.000  C
  H22      1.0000 0.14130  0.15540  0.25690  Biso   1.000  H
  C44      1.0000 0.96220  0.22470  0.26280  Biso   1.000  C
  H23      1.0000 0.92540  0.16370  0.20230  Biso   1.000  H
  C45      1.0000 0.89100  0.31720  0.31760  Biso   1.000  C
  H24      1.0000 0.80500  0.32020  0.29440  Biso   1.000  H
  C46      1.0000 0.94360  0.40990  0.40920  Biso   1.000  C
  C47      1.0000 0.51180  0.74800  0.50420  Biso   1.000  C
  C48      1.0000 0.50630  0.87950  0.50460  Biso   1.000  C
  C49      1.0000 0.61330  0.93830  0.47200  Biso   1.000  C
  C50      1.0000 0.72910  0.87860  0.44540  Biso   1.000  C
  H25      1.0000 0.73300  0.79650  0.44640  Biso   1.000  H
  C51      1.0000 0.83450  0.93830  0.41840  Biso   1.000  C
  H26      1.0000 0.91240  0.89870  0.40360  Biso   1.000  H
  C52      1.0000 0.82870  0.05880  0.41220  Biso   1.000  C
  H27      1.0000 0.90160  0.09810  0.39000  Biso   1.000  H
  C53      1.0000 0.72040  0.11880  0.43760  Biso   1.000  C
  H28      1.0000 0.71980  0.20060  0.43510  Biso   1.000  H
  C54      1.0000 0.60510  0.06150  0.46850  Biso   1.000  C
  C55      1.0000 0.62000  0.94600  0.49510  Biso   1.000  C
  C56      1.0000 0.74660  0.90070  0.48700  Biso   1.000  C
  H29      1.0000 0.75690  0.82000  0.48970  Biso   1.000  H
  C57      1.0000 0.85010  0.97040  0.47560  Biso   1.000  C
  H30      1.0000 0.93200  0.93760  0.47000  Biso   1.000  H
  C58      1.0000 0.84050  0.09270  0.47180  Biso   1.000  C
  H31      1.0000 0.91570  0.13970  0.46390  Biso   1.000  H
  C59      1.0000 0.72520  0.14210  0.47940  Biso   1.000  C
  H32      1.0000 0.71870  0.22400  0.47860  Biso   1.000  H
  C60      1.0000 0.61700  0.07000  0.48840  Biso   1.000  C
