data_image0
_cell_length_a       15.916
_cell_length_b       15.74
_cell_length_c       5.471
_cell_angle_alpha    90
_cell_angle_beta     90
_cell_angle_gamma    90

_symmetry_space_group_name_H-M    "P 1"
_symmetry_int_tables_number       1

loop_
  _symmetry_equiv_pos_as_xyz
  'x, y, z'

loop_
  _atom_site_label
  _atom_site_occupancy
  _atom_site_fract_x
  _atom_site_fract_y
  _atom_site_fract_z
  _atom_site_thermal_displace_type
  _atom_site_B_iso_or_equiv
  _atom_site_type_symbol
  N1       1.0000 0.25620  0.11300  0.87890  Biso   1.000  N
  N2       1.0000 0.13680  0.00590  0.36670  Biso   1.000  N
  C1       1.0000 0.24960  0.15120  0.05800  Biso   1.000  C
  C2       1.0000 0.24540  0.20210  0.27900  Biso   1.000  C
  H1       1.0000 0.29320  0.18880  0.38240  Biso   1.000  H
  H2       1.0000 0.19470  0.18780  0.36850  Biso   1.000  H
  C3       1.0000 0.25300  0.17980  0.96800  Biso   1.000  C
  C4       1.0000 0.25110  0.25750  0.11300  Biso   1.000  C
  H3       1.0000 0.20110  0.28930  0.06940  Biso   1.000  H
  H4       1.0000 0.29940  0.29210  0.07070  Biso   1.000  H
  C5       1.0000 0.09860  0.99900  0.18800  Biso   1.000  C
  C6       1.0000 0.04640  0.98740  0.97300  Biso   1.000  C
  H5       1.0000 0.04870  0.92850  0.92140  Biso   1.000  H
  H6       1.0000 0.06780  0.02220  0.84020  Biso   1.000  H
  C7       1.0000 0.07220  0.01100  0.27100  Biso   1.000  C
  C8       1.0000 0.99460  0.01200  0.13300  Biso   1.000  C
  H7       1.0000 0.97020  0.06840  0.14190  Biso   1.000  H
  H8       1.0000 0.95540  0.97280  0.20820  Biso   1.000  H
  N3       1.0000 0.24380  0.88700  0.87890  Biso   1.000  N
  N4       1.0000 0.36320  0.99410  0.36670  Biso   1.000  N
  C9       1.0000 0.25040  0.84880  0.05800  Biso   1.000  C
  C10      1.0000 0.25460  0.79790  0.27900  Biso   1.000  C
  H9       1.0000 0.20680  0.81120  0.38240  Biso   1.000  H
  H10      1.0000 0.30530  0.81220  0.36850  Biso   1.000  H
  C11      1.0000 0.24700  0.82020  0.96800  Biso   1.000  C
  C12      1.0000 0.24890  0.74250  0.11300  Biso   1.000  C
  H11      1.0000 0.29890  0.71070  0.06940  Biso   1.000  H
  H12      1.0000 0.20060  0.70790  0.07070  Biso   1.000  H
  C13      1.0000 0.40140  0.00100  0.18800  Biso   1.000  C
  C14      1.0000 0.45360  0.01260  0.97300  Biso   1.000  C
  H13      1.0000 0.45130  0.07150  0.92140  Biso   1.000  H
  H14      1.0000 0.43220  0.97780  0.84020  Biso   1.000  H
  C15      1.0000 0.42780  0.98900  0.27100  Biso   1.000  C
  C16      1.0000 0.50540  0.98800  0.13300  Biso   1.000  C
  H15      1.0000 0.52980  0.93160  0.14190  Biso   1.000  H
  H16      1.0000 0.54460  0.02720  0.20820  Biso   1.000  H
  N5       1.0000 0.24380  0.61300  0.62110  Biso   1.000  N
  N6       1.0000 0.36320  0.50590  0.13330  Biso   1.000  N
  C17      1.0000 0.25040  0.65120  0.44200  Biso   1.000  C
  C18      1.0000 0.25460  0.70210  0.22100  Biso   1.000  C
  H17      1.0000 0.20680  0.68880  0.11760  Biso   1.000  H
  H18      1.0000 0.30530  0.68780  0.13150  Biso   1.000  H
  C19      1.0000 0.24700  0.67980  0.53200  Biso   1.000  C
  C20      1.0000 0.24890  0.75750  0.38700  Biso   1.000  C
  H19      1.0000 0.29890  0.78930  0.43060  Biso   1.000  H
  H20      1.0000 0.20060  0.79210  0.42930  Biso   1.000  H
  C21      1.0000 0.40140  0.49900  0.31200  Biso   1.000  C
  C22      1.0000 0.45360  0.48740  0.52700  Biso   1.000  C
  H21      1.0000 0.45130  0.42850  0.57860  Biso   1.000  H
  H22      1.0000 0.43220  0.52220  0.65980  Biso   1.000  H
  C23      1.0000 0.42780  0.51100  0.22900  Biso   1.000  C
  C24      1.0000 0.50540  0.51200  0.36700  Biso   1.000  C
  H23      1.0000 0.52980  0.56840  0.35810  Biso   1.000  H
  H24      1.0000 0.54460  0.47280  0.29180  Biso   1.000  H
  N7       1.0000 0.25620  0.38700  0.62110  Biso   1.000  N
  N8       1.0000 0.13680  0.49410  0.13330  Biso   1.000  N
  C25      1.0000 0.24960  0.34880  0.44200  Biso   1.000  C
  C26      1.0000 0.24540  0.29790  0.22100  Biso   1.000  C
  H25      1.0000 0.29320  0.31120  0.11760  Biso   1.000  H
  H26      1.0000 0.19470  0.31220  0.13150  Biso   1.000  H
  C27      1.0000 0.25300  0.32020  0.53200  Biso   1.000  C
  C28      1.0000 0.25110  0.24250  0.38700  Biso   1.000  C
  H27      1.0000 0.20110  0.21070  0.43060  Biso   1.000  H
  H28      1.0000 0.29940  0.20790  0.42930  Biso   1.000  H
  C29      1.0000 0.09860  0.50100  0.31200  Biso   1.000  C
  C30      1.0000 0.04640  0.51260  0.52700  Biso   1.000  C
  H29      1.0000 0.04870  0.57150  0.57860  Biso   1.000  H
  H30      1.0000 0.06780  0.47780  0.65980  Biso   1.000  H
  C31      1.0000 0.07220  0.48900  0.22900  Biso   1.000  C
  C32      1.0000 0.99460  0.48800  0.36700  Biso   1.000  C
  H31      1.0000 0.97020  0.43160  0.35810  Biso   1.000  H
  H32      1.0000 0.95540  0.52720  0.29180  Biso   1.000  H
  N9       1.0000 0.74380  0.88700  0.12110  Biso   1.000  N
  N10      1.0000 0.86320  0.99410  0.63330  Biso   1.000  N
  C33      1.0000 0.75040  0.84880  0.94200  Biso   1.000  C
  C34      1.0000 0.75460  0.79790  0.72100  Biso   1.000  C
  H33      1.0000 0.70680  0.81120  0.61760  Biso   1.000  H
  H34      1.0000 0.80530  0.81220  0.63150  Biso   1.000  H
  C35      1.0000 0.74700  0.82020  0.03200  Biso   1.000  C
  C36      1.0000 0.74890  0.74250  0.88700  Biso   1.000  C
  H35      1.0000 0.79890  0.71070  0.93060  Biso   1.000  H
  H36      1.0000 0.70060  0.70790  0.92930  Biso   1.000  H
  C37      1.0000 0.90140  0.00100  0.81200  Biso   1.000  C
  C38      1.0000 0.95360  0.01260  0.02700  Biso   1.000  C
  H37      1.0000 0.95130  0.07150  0.07860  Biso   1.000  H
  H38      1.0000 0.93220  0.97780  0.15980  Biso   1.000  H
  C39      1.0000 0.92780  0.98900  0.72900  Biso   1.000  C
  C40      1.0000 0.00540  0.98800  0.86700  Biso   1.000  C
  H39      1.0000 0.02980  0.93160  0.85810  Biso   1.000  H
  H40      1.0000 0.04460  0.02720  0.79180  Biso   1.000  H
  N11      1.0000 0.75620  0.11300  0.12110  Biso   1.000  N
  N12      1.0000 0.63680  0.00590  0.63330  Biso   1.000  N
  C41      1.0000 0.74960  0.15120  0.94200  Biso   1.000  C
  C42      1.0000 0.74540  0.20210  0.72100  Biso   1.000  C
  H41      1.0000 0.79320  0.18880  0.61760  Biso   1.000  H
  H42      1.0000 0.69470  0.18780  0.63150  Biso   1.000  H
  C43      1.0000 0.75300  0.17980  0.03200  Biso   1.000  C
  C44      1.0000 0.75110  0.25750  0.88700  Biso   1.000  C
  H43      1.0000 0.70110  0.28930  0.93060  Biso   1.000  H
  H44      1.0000 0.79940  0.29210  0.92930  Biso   1.000  H
  C45      1.0000 0.59860  0.99900  0.81200  Biso   1.000  C
  C46      1.0000 0.54640  0.98740  0.02700  Biso   1.000  C
  H45      1.0000 0.54870  0.92850  0.07860  Biso   1.000  H
  H46      1.0000 0.56780  0.02220  0.15980  Biso   1.000  H
  C47      1.0000 0.57220  0.01100  0.72900  Biso   1.000  C
  C48      1.0000 0.49460  0.01200  0.86700  Biso   1.000  C
  H47      1.0000 0.47020  0.06840  0.85810  Biso   1.000  H
  H48      1.0000 0.45540  0.97280  0.79180  Biso   1.000  H
  N13      1.0000 0.75620  0.38700  0.37890  Biso   1.000  N
  N14      1.0000 0.63680  0.49410  0.86670  Biso   1.000  N
  C49      1.0000 0.74960  0.34880  0.55800  Biso   1.000  C
  C50      1.0000 0.74540  0.29790  0.77900  Biso   1.000  C
  H49      1.0000 0.79320  0.31120  0.88240  Biso   1.000  H
  H50      1.0000 0.69470  0.31220  0.86850  Biso   1.000  H
  C51      1.0000 0.75300  0.32020  0.46800  Biso   1.000  C
  C52      1.0000 0.75110  0.24250  0.61300  Biso   1.000  C
  H51      1.0000 0.70110  0.21070  0.56940  Biso   1.000  H
  H52      1.0000 0.79940  0.20790  0.57070  Biso   1.000  H
  C53      1.0000 0.59860  0.50100  0.68800  Biso   1.000  C
  C54      1.0000 0.54640  0.51260  0.47300  Biso   1.000  C
  H53      1.0000 0.54870  0.57150  0.42140  Biso   1.000  H
  H54      1.0000 0.56780  0.47780  0.34020  Biso   1.000  H
  C55      1.0000 0.57220  0.48900  0.77100  Biso   1.000  C
  C56      1.0000 0.49460  0.48800  0.63300  Biso   1.000  C
  H55      1.0000 0.47020  0.43160  0.64190  Biso   1.000  H
  H56      1.0000 0.45540  0.52720  0.70820  Biso   1.000  H
  N15      1.0000 0.74380  0.61300  0.37890  Biso   1.000  N
  N16      1.0000 0.86320  0.50590  0.86670  Biso   1.000  N
  C57      1.0000 0.75040  0.65120  0.55800  Biso   1.000  C
  C58      1.0000 0.75460  0.70210  0.77900  Biso   1.000  C
  H57      1.0000 0.70680  0.68880  0.88240  Biso   1.000  H
  H58      1.0000 0.80530  0.68780  0.86850  Biso   1.000  H
  C59      1.0000 0.74700  0.67980  0.46800  Biso   1.000  C
  C60      1.0000 0.74890  0.75750  0.61300  Biso   1.000  C
  H59      1.0000 0.79890  0.78930  0.56940  Biso   1.000  H
  H60      1.0000 0.70060  0.79210  0.57070  Biso   1.000  H
  C61      1.0000 0.90140  0.49900  0.68800  Biso   1.000  C
  C62      1.0000 0.95360  0.48740  0.47300  Biso   1.000  C
  H61      1.0000 0.95130  0.42850  0.42140  Biso   1.000  H
  H62      1.0000 0.93220  0.52220  0.34020  Biso   1.000  H
  C63      1.0000 0.92780  0.51100  0.77100  Biso   1.000  C
  C64      1.0000 0.00540  0.51200  0.63300  Biso   1.000  C
  H63      1.0000 0.02980  0.56840  0.64190  Biso   1.000  H
  H64      1.0000 0.04460  0.47280  0.70820  Biso   1.000  H
  Ag1      1.0000 0.25000  0.00000  0.62102  Biso   1.000  Ag
  Ag2      1.0000 0.25000  0.50000  0.87898  Biso   1.000  Ag
  Ag3      1.0000 0.75000  0.00000  0.37898  Biso   1.000  Ag
  Ag4      1.0000 0.75000  0.50000  0.12102  Biso   1.000  Ag
