data_image0
_cell_length_a       11.261
_cell_length_b       11.261
_cell_length_c       6.319
_cell_angle_alpha    90
_cell_angle_beta     90
_cell_angle_gamma    90

_symmetry_space_group_name_H-M    "P 1"
_symmetry_int_tables_number       1

loop_
  _symmetry_equiv_pos_as_xyz
  'x, y, z'

loop_
  _atom_site_label
  _atom_site_occupancy
  _atom_site_fract_x
  _atom_site_fract_y
  _atom_site_fract_z
  _atom_site_thermal_displace_type
  _atom_site_B_iso_or_equiv
  _atom_site_type_symbol
  N1       1.0000 0.39000  0.85800  0.16800  Biso   1.000  N
  C1       1.0000 0.44600  0.91620  0.26400  Biso   1.000  C
  C2       1.0000 0.52070  0.99760  0.39000  Biso   1.000  C
  H1       1.0000 0.51750  0.07650  0.32810  Biso   1.000  H
  H2       1.0000 0.60250  0.97090  0.38590  Biso   1.000  H
  N2       1.0000 0.35700  0.83500  0.25800  Biso   1.000  N
  C3       1.0000 0.39600  0.88200  0.39200  Biso   1.000  C
  C4       1.0000 0.45100  0.96400  0.54500  Biso   1.000  C
  H3       1.0000 0.39060  0.01740  0.59870  Biso   1.000  H
  H4       1.0000 0.48160  0.91860  0.66290  Biso   1.000  H
  N3       1.0000 0.11000  0.64200  0.16800  Biso   1.000  N
  C5       1.0000 0.05400  0.58380  0.26400  Biso   1.000  C
  C6       1.0000 0.97930  0.50240  0.39000  Biso   1.000  C
  H5       1.0000 0.98250  0.42350  0.32810  Biso   1.000  H
  H6       1.0000 0.89750  0.52910  0.38590  Biso   1.000  H
  N4       1.0000 0.14300  0.66500  0.25800  Biso   1.000  N
  C7       1.0000 0.10400  0.61800  0.39200  Biso   1.000  C
  C8       1.0000 0.04900  0.53600  0.54500  Biso   1.000  C
  H7       1.0000 0.10940  0.48260  0.59870  Biso   1.000  H
  H8       1.0000 0.01840  0.58140  0.66290  Biso   1.000  H
  N5       1.0000 0.64200  0.39000  0.16800  Biso   1.000  N
  C9       1.0000 0.58380  0.44600  0.26400  Biso   1.000  C
  C10      1.0000 0.50240  0.52070  0.39000  Biso   1.000  C
  H9       1.0000 0.42350  0.51750  0.32810  Biso   1.000  H
  H10      1.0000 0.52910  0.60250  0.38590  Biso   1.000  H
  N6       1.0000 0.66500  0.35700  0.25800  Biso   1.000  N
  C11      1.0000 0.61800  0.39600  0.39200  Biso   1.000  C
  C12      1.0000 0.53600  0.45100  0.54500  Biso   1.000  C
  H11      1.0000 0.48260  0.39060  0.59870  Biso   1.000  H
  H12      1.0000 0.58140  0.48160  0.66290  Biso   1.000  H
  N7       1.0000 0.85800  0.11000  0.16800  Biso   1.000  N
  C13      1.0000 0.91620  0.05400  0.26400  Biso   1.000  C
  C14      1.0000 0.99760  0.97930  0.39000  Biso   1.000  C
  H13      1.0000 0.07650  0.98250  0.32810  Biso   1.000  H
  H14      1.0000 0.97090  0.89750  0.38590  Biso   1.000  H
  N8       1.0000 0.83500  0.14300  0.25800  Biso   1.000  N
  C15      1.0000 0.88200  0.10400  0.39200  Biso   1.000  C
  C16      1.0000 0.96400  0.04900  0.54500  Biso   1.000  C
  H15      1.0000 0.01740  0.10940  0.59870  Biso   1.000  H
  H16      1.0000 0.91860  0.01840  0.66290  Biso   1.000  H
  N9       1.0000 0.61000  0.14200  0.83200  Biso   1.000  N
  C17      1.0000 0.55400  0.08380  0.73600  Biso   1.000  C
  C18      1.0000 0.47930  0.00240  0.61000  Biso   1.000  C
  H17      1.0000 0.48250  0.92350  0.67190  Biso   1.000  H
  H18      1.0000 0.39750  0.02910  0.61410  Biso   1.000  H
  N10      1.0000 0.64300  0.16500  0.74200  Biso   1.000  N
  C19      1.0000 0.60400  0.11800  0.60800  Biso   1.000  C
  C20      1.0000 0.54900  0.03600  0.45500  Biso   1.000  C
  H19      1.0000 0.60940  0.98260  0.40130  Biso   1.000  H
  H20      1.0000 0.51840  0.08140  0.33710  Biso   1.000  H
  N11      1.0000 0.89000  0.35800  0.83200  Biso   1.000  N
  C21      1.0000 0.94600  0.41620  0.73600  Biso   1.000  C
  C22      1.0000 0.02070  0.49760  0.61000  Biso   1.000  C
  H21      1.0000 0.01750  0.57650  0.67190  Biso   1.000  H
  H22      1.0000 0.10250  0.47090  0.61410  Biso   1.000  H
  N12      1.0000 0.85700  0.33500  0.74200  Biso   1.000  N
  C23      1.0000 0.89600  0.38200  0.60800  Biso   1.000  C
  C24      1.0000 0.95100  0.46400  0.45500  Biso   1.000  C
  H23      1.0000 0.89060  0.51740  0.40130  Biso   1.000  H
  H24      1.0000 0.98160  0.41860  0.33710  Biso   1.000  H
  N13      1.0000 0.35800  0.61000  0.83200  Biso   1.000  N
  C25      1.0000 0.41620  0.55400  0.73600  Biso   1.000  C
  C26      1.0000 0.49760  0.47930  0.61000  Biso   1.000  C
  H25      1.0000 0.57650  0.48250  0.67190  Biso   1.000  H
  H26      1.0000 0.47090  0.39750  0.61410  Biso   1.000  H
  N14      1.0000 0.33500  0.64300  0.74200  Biso   1.000  N
  C27      1.0000 0.38200  0.60400  0.60800  Biso   1.000  C
  C28      1.0000 0.46400  0.54900  0.45500  Biso   1.000  C
  H27      1.0000 0.51740  0.60940  0.40130  Biso   1.000  H
  H28      1.0000 0.41860  0.51840  0.33710  Biso   1.000  H
  N15      1.0000 0.14200  0.89000  0.83200  Biso   1.000  N
  C29      1.0000 0.08380  0.94600  0.73600  Biso   1.000  C
  C30      1.0000 0.00240  0.02070  0.61000  Biso   1.000  C
  H29      1.0000 0.92350  0.01750  0.67190  Biso   1.000  H
  H30      1.0000 0.02910  0.10250  0.61410  Biso   1.000  H
  N16      1.0000 0.16500  0.85700  0.74200  Biso   1.000  N
  C31      1.0000 0.11800  0.89600  0.60800  Biso   1.000  C
  C32      1.0000 0.03600  0.95100  0.45500  Biso   1.000  C
  H31      1.0000 0.98260  0.89060  0.40130  Biso   1.000  H
  H32      1.0000 0.08140  0.98160  0.33710  Biso   1.000  H
  Ag1      1.0000 0.25000  0.75000  0.00000  Biso   1.000  Ag
  Ag2      1.0000 0.75000  0.25000  0.00000  Biso   1.000  Ag
