data_image0
_cell_length_a       16.378
_cell_length_b       16.16
_cell_length_c       5.277
_cell_angle_alpha    90
_cell_angle_beta     90
_cell_angle_gamma    90

_symmetry_space_group_name_H-M    "P 1"
_symmetry_int_tables_number       1

loop_
  _symmetry_equiv_pos_as_xyz
  'x, y, z'

loop_
  _atom_site_label
  _atom_site_occupancy
  _atom_site_fract_x
  _atom_site_fract_y
  _atom_site_fract_z
  _atom_site_thermal_displace_type
  _atom_site_B_iso_or_equiv
  _atom_site_type_symbol
  N1       1.0000 0.25320  0.11040  0.88470  Biso   1.000  N
  N2       1.0000 0.13890  0.00360  0.35850  Biso   1.000  N
  C1       1.0000 0.24860  0.15220  0.05900  Biso   1.000  C
  C2       1.0000 0.24540  0.20390  0.28440  Biso   1.000  C
  H1       1.0000 0.29210  0.19200  0.39120  Biso   1.000  H
  H2       1.0000 0.19630  0.19110  0.37980  Biso   1.000  H
  C3       1.0000 0.25900  0.17640  0.96600  Biso   1.000  C
  C4       1.0000 0.25100  0.25500  0.10200  Biso   1.000  C
  H3       1.0000 0.20110  0.28220  0.05060  Biso   1.000  H
  H4       1.0000 0.29640  0.29070  0.05340  Biso   1.000  H
  C5       1.0000 0.09920  0.99740  0.18200  Biso   1.000  C
  C6       1.0000 0.04550  0.99530  0.96280  Biso   1.000  C
  H5       1.0000 0.05300  0.94330  0.87400  Biso   1.000  H
  H6       1.0000 0.06040  0.03970  0.84800  Biso   1.000  H
  C7       1.0000 0.07640  0.01030  0.26500  Biso   1.000  C
  C8       1.0000 0.99760  0.01270  0.13600  Biso   1.000  C
  H7       1.0000 0.97580  0.06850  0.14600  Biso   1.000  H
  H8       1.0000 0.95990  0.97630  0.22390  Biso   1.000  H
  N3       1.0000 0.24680  0.88960  0.88470  Biso   1.000  N
  N4       1.0000 0.36110  0.99640  0.35850  Biso   1.000  N
  C9       1.0000 0.25140  0.84780  0.05900  Biso   1.000  C
  C10      1.0000 0.25460  0.79610  0.28440  Biso   1.000  C
  H9       1.0000 0.20790  0.80800  0.39120  Biso   1.000  H
  H10      1.0000 0.30370  0.80890  0.37980  Biso   1.000  H
  C11      1.0000 0.24100  0.82360  0.96600  Biso   1.000  C
  C12      1.0000 0.24900  0.74500  0.10200  Biso   1.000  C
  H11      1.0000 0.29890  0.71780  0.05060  Biso   1.000  H
  H12      1.0000 0.20360  0.70930  0.05340  Biso   1.000  H
  C13      1.0000 0.40080  0.00260  0.18200  Biso   1.000  C
  C14      1.0000 0.45450  0.00470  0.96280  Biso   1.000  C
  H13      1.0000 0.44700  0.05670  0.87400  Biso   1.000  H
  H14      1.0000 0.43960  0.96030  0.84800  Biso   1.000  H
  C15      1.0000 0.42360  0.98970  0.26500  Biso   1.000  C
  C16      1.0000 0.50240  0.98730  0.13600  Biso   1.000  C
  H15      1.0000 0.52420  0.93150  0.14600  Biso   1.000  H
  H16      1.0000 0.54010  0.02370  0.22390  Biso   1.000  H
  N5       1.0000 0.24680  0.61040  0.61530  Biso   1.000  N
  N6       1.0000 0.36110  0.50360  0.14150  Biso   1.000  N
  C17      1.0000 0.25140  0.65220  0.44100  Biso   1.000  C
  C18      1.0000 0.25460  0.70390  0.21560  Biso   1.000  C
  H17      1.0000 0.20790  0.69200  0.10880  Biso   1.000  H
  H18      1.0000 0.30370  0.69110  0.12020  Biso   1.000  H
  C19      1.0000 0.24100  0.67640  0.53400  Biso   1.000  C
  C20      1.0000 0.24900  0.75500  0.39800  Biso   1.000  C
  H19      1.0000 0.29890  0.78220  0.44940  Biso   1.000  H
  H20      1.0000 0.20360  0.79070  0.44660  Biso   1.000  H
  C21      1.0000 0.40080  0.49740  0.31800  Biso   1.000  C
  C22      1.0000 0.45450  0.49530  0.53720  Biso   1.000  C
  H21      1.0000 0.44700  0.44330  0.62600  Biso   1.000  H
  H22      1.0000 0.43960  0.53970  0.65200  Biso   1.000  H
  C23      1.0000 0.42360  0.51030  0.23500  Biso   1.000  C
  C24      1.0000 0.50240  0.51270  0.36400  Biso   1.000  C
  H23      1.0000 0.52420  0.56850  0.35400  Biso   1.000  H
  H24      1.0000 0.54010  0.47630  0.27610  Biso   1.000  H
  N7       1.0000 0.25320  0.38960  0.61530  Biso   1.000  N
  N8       1.0000 0.13890  0.49640  0.14150  Biso   1.000  N
  C25      1.0000 0.24860  0.34780  0.44100  Biso   1.000  C
  C26      1.0000 0.24540  0.29610  0.21560  Biso   1.000  C
  H25      1.0000 0.29210  0.30800  0.10880  Biso   1.000  H
  H26      1.0000 0.19630  0.30890  0.12020  Biso   1.000  H
  C27      1.0000 0.25900  0.32360  0.53400  Biso   1.000  C
  C28      1.0000 0.25100  0.24500  0.39800  Biso   1.000  C
  H27      1.0000 0.20110  0.21780  0.44940  Biso   1.000  H
  H28      1.0000 0.29640  0.20930  0.44660  Biso   1.000  H
  C29      1.0000 0.09920  0.50260  0.31800  Biso   1.000  C
  C30      1.0000 0.04550  0.50470  0.53720  Biso   1.000  C
  H29      1.0000 0.05300  0.55670  0.62600  Biso   1.000  H
  H30      1.0000 0.06040  0.46030  0.65200  Biso   1.000  H
  C31      1.0000 0.07640  0.48970  0.23500  Biso   1.000  C
  C32      1.0000 0.99760  0.48730  0.36400  Biso   1.000  C
  H31      1.0000 0.97580  0.43150  0.35400  Biso   1.000  H
  H32      1.0000 0.95990  0.52370  0.27610  Biso   1.000  H
  N9       1.0000 0.74680  0.88960  0.11530  Biso   1.000  N
  N10      1.0000 0.86110  0.99640  0.64150  Biso   1.000  N
  C33      1.0000 0.75140  0.84780  0.94100  Biso   1.000  C
  C34      1.0000 0.75460  0.79610  0.71560  Biso   1.000  C
  H33      1.0000 0.70790  0.80800  0.60880  Biso   1.000  H
  H34      1.0000 0.80370  0.80890  0.62020  Biso   1.000  H
  C35      1.0000 0.74100  0.82360  0.03400  Biso   1.000  C
  C36      1.0000 0.74900  0.74500  0.89800  Biso   1.000  C
  H35      1.0000 0.79890  0.71780  0.94940  Biso   1.000  H
  H36      1.0000 0.70360  0.70930  0.94660  Biso   1.000  H
  C37      1.0000 0.90080  0.00260  0.81800  Biso   1.000  C
  C38      1.0000 0.95450  0.00470  0.03720  Biso   1.000  C
  H37      1.0000 0.94700  0.05670  0.12600  Biso   1.000  H
  H38      1.0000 0.93960  0.96030  0.15200  Biso   1.000  H
  C39      1.0000 0.92360  0.98970  0.73500  Biso   1.000  C
  C40      1.0000 0.00240  0.98730  0.86400  Biso   1.000  C
  H39      1.0000 0.02420  0.93150  0.85400  Biso   1.000  H
  H40      1.0000 0.04010  0.02370  0.77610  Biso   1.000  H
  N11      1.0000 0.75320  0.11040  0.11530  Biso   1.000  N
  N12      1.0000 0.63890  0.00360  0.64150  Biso   1.000  N
  C41      1.0000 0.74860  0.15220  0.94100  Biso   1.000  C
  C42      1.0000 0.74540  0.20390  0.71560  Biso   1.000  C
  H41      1.0000 0.79210  0.19200  0.60880  Biso   1.000  H
  H42      1.0000 0.69630  0.19110  0.62020  Biso   1.000  H
  C43      1.0000 0.75900  0.17640  0.03400  Biso   1.000  C
  C44      1.0000 0.75100  0.25500  0.89800  Biso   1.000  C
  H43      1.0000 0.70110  0.28220  0.94940  Biso   1.000  H
  H44      1.0000 0.79640  0.29070  0.94660  Biso   1.000  H
  C45      1.0000 0.59920  0.99740  0.81800  Biso   1.000  C
  C46      1.0000 0.54550  0.99530  0.03720  Biso   1.000  C
  H45      1.0000 0.55300  0.94330  0.12600  Biso   1.000  H
  H46      1.0000 0.56040  0.03970  0.15200  Biso   1.000  H
  C47      1.0000 0.57640  0.01030  0.73500  Biso   1.000  C
  C48      1.0000 0.49760  0.01270  0.86400  Biso   1.000  C
  H47      1.0000 0.47580  0.06850  0.85400  Biso   1.000  H
  H48      1.0000 0.45990  0.97630  0.77610  Biso   1.000  H
  N13      1.0000 0.75320  0.38960  0.38470  Biso   1.000  N
  N14      1.0000 0.63890  0.49640  0.85850  Biso   1.000  N
  C49      1.0000 0.74860  0.34780  0.55900  Biso   1.000  C
  C50      1.0000 0.74540  0.29610  0.78440  Biso   1.000  C
  H49      1.0000 0.79210  0.30800  0.89120  Biso   1.000  H
  H50      1.0000 0.69630  0.30890  0.87980  Biso   1.000  H
  C51      1.0000 0.75900  0.32360  0.46600  Biso   1.000  C
  C52      1.0000 0.75100  0.24500  0.60200  Biso   1.000  C
  H51      1.0000 0.70110  0.21780  0.55060  Biso   1.000  H
  H52      1.0000 0.79640  0.20930  0.55340  Biso   1.000  H
  C53      1.0000 0.59920  0.50260  0.68200  Biso   1.000  C
  C54      1.0000 0.54550  0.50470  0.46280  Biso   1.000  C
  H53      1.0000 0.55300  0.55670  0.37400  Biso   1.000  H
  H54      1.0000 0.56040  0.46030  0.34800  Biso   1.000  H
  C55      1.0000 0.57640  0.48970  0.76500  Biso   1.000  C
  C56      1.0000 0.49760  0.48730  0.63600  Biso   1.000  C
  H55      1.0000 0.47580  0.43150  0.64600  Biso   1.000  H
  H56      1.0000 0.45990  0.52370  0.72390  Biso   1.000  H
  N15      1.0000 0.74680  0.61040  0.38470  Biso   1.000  N
  N16      1.0000 0.86110  0.50360  0.85850  Biso   1.000  N
  C57      1.0000 0.75140  0.65220  0.55900  Biso   1.000  C
  C58      1.0000 0.75460  0.70390  0.78440  Biso   1.000  C
  H57      1.0000 0.70790  0.69200  0.89120  Biso   1.000  H
  H58      1.0000 0.80370  0.69110  0.87980  Biso   1.000  H
  C59      1.0000 0.74100  0.67640  0.46600  Biso   1.000  C
  C60      1.0000 0.74900  0.75500  0.60200  Biso   1.000  C
  H59      1.0000 0.79890  0.78220  0.55060  Biso   1.000  H
  H60      1.0000 0.70360  0.79070  0.55340  Biso   1.000  H
  C61      1.0000 0.90080  0.49740  0.68200  Biso   1.000  C
  C62      1.0000 0.95450  0.49530  0.46280  Biso   1.000  C
  H61      1.0000 0.94700  0.44330  0.37400  Biso   1.000  H
  H62      1.0000 0.93960  0.53970  0.34800  Biso   1.000  H
  C63      1.0000 0.92360  0.51030  0.76500  Biso   1.000  C
  C64      1.0000 0.00240  0.51270  0.63600  Biso   1.000  C
  H63      1.0000 0.02420  0.56850  0.64600  Biso   1.000  H
  H64      1.0000 0.04010  0.47630  0.72390  Biso   1.000  H
  Ag1      1.0000 0.25000  0.00000  0.61884  Biso   1.000  Ag
  Ag2      1.0000 0.25000  0.50000  0.88116  Biso   1.000  Ag
  Ag3      1.0000 0.75000  0.00000  0.38116  Biso   1.000  Ag
  Ag4      1.0000 0.75000  0.50000  0.11884  Biso   1.000  Ag
