data_image0
_cell_length_a       10.92
_cell_length_b       12.842
_cell_length_c       13.279
_cell_angle_alpha    90
_cell_angle_beta     90
_cell_angle_gamma    90

_symmetry_space_group_name_H-M    "P 1"
_symmetry_int_tables_number       1

loop_
  _symmetry_equiv_pos_as_xyz
  'x, y, z'

loop_
  _atom_site_label
  _atom_site_occupancy
  _atom_site_fract_x
  _atom_site_fract_y
  _atom_site_fract_z
  _atom_site_thermal_displace_type
  _atom_site_B_iso_or_equiv
  _atom_site_type_symbol
  N1       1.0000 0.62960  0.39070  0.21090  Biso   1.000  N
  C1       1.0000 0.55600  0.44320  0.18170  Biso   1.000  C
  C2       1.0000 0.47120  0.51690  0.14070  Biso   1.000  C
  H1       1.0000 0.47140  0.57830  0.18320  Biso   1.000  H
  H2       1.0000 0.38970  0.48710  0.14350  Biso   1.000  H
  C3       1.0000 0.49700  0.55140  0.03070  Biso   1.000  C
  H3       1.0000 0.57410  0.58870  0.02650  Biso   1.000  H
  H4       1.0000 0.43210  0.59600  0.00600  Biso   1.000  H
  C4       1.0000 0.44060  0.48900  0.02990  Biso   1.000  C
  H5       1.0000 0.41750  0.41630  0.02410  Biso   1.000  H
  H6       1.0000 0.37390  0.53180  0.00510  Biso   1.000  H
  N2       1.0000 0.85590  0.28890  0.39040  Biso   1.000  N
  C5       1.0000 0.92020  0.31280  0.45260  Biso   1.000  C
  C6       1.0000 0.01280  0.35260  0.51780  Biso   1.000  C
  H7       1.0000 0.08290  0.30620  0.51490  Biso   1.000  H
  H8       1.0000 0.98190  0.35120  0.58630  Biso   1.000  H
  C7       1.0000 0.05720  0.46450  0.49400  Biso   1.000  C
  H9       1.0000 0.08970  0.46850  0.42650  Biso   1.000  H
  H10      1.0000 0.12070  0.48530  0.54130  Biso   1.000  H
  C8       1.0000 0.99000  0.46750  0.54860  Biso   1.000  C
  H11      1.0000 0.04750  0.48870  0.60050  Biso   1.000  H
  H12      1.0000 0.90760  0.47640  0.57390  Biso   1.000  H
  N3       1.0000 0.62960  0.10930  0.28910  Biso   1.000  N
  C9       1.0000 0.55600  0.05680  0.31830  Biso   1.000  C
  C10      1.0000 0.47120  0.98310  0.35930  Biso   1.000  C
  H13      1.0000 0.47140  0.92170  0.31680  Biso   1.000  H
  H14      1.0000 0.38970  0.01290  0.35650  Biso   1.000  H
  C11      1.0000 0.49700  0.94860  0.46930  Biso   1.000  C
  H15      1.0000 0.57410  0.91130  0.47350  Biso   1.000  H
  H16      1.0000 0.43210  0.90400  0.49400  Biso   1.000  H
  C12      1.0000 0.44060  0.01100  0.47010  Biso   1.000  C
  H17      1.0000 0.41750  0.08370  0.47590  Biso   1.000  H
  H18      1.0000 0.37390  0.96820  0.49490  Biso   1.000  H
  N4       1.0000 0.85590  0.21110  0.10960  Biso   1.000  N
  C13      1.0000 0.92020  0.18720  0.04740  Biso   1.000  C
  C14      1.0000 0.01280  0.14740  0.98220  Biso   1.000  C
  H19      1.0000 0.08290  0.19380  0.98510  Biso   1.000  H
  H20      1.0000 0.98190  0.14880  0.91370  Biso   1.000  H
  C15      1.0000 0.05720  0.03550  0.00600  Biso   1.000  C
  H21      1.0000 0.08970  0.03150  0.07350  Biso   1.000  H
  H22      1.0000 0.12070  0.01470  0.95870  Biso   1.000  H
  C16      1.0000 0.99000  0.03250  0.95140  Biso   1.000  C
  H23      1.0000 0.04750  0.01130  0.89950  Biso   1.000  H
  H24      1.0000 0.90760  0.02360  0.92610  Biso   1.000  H
  N5       1.0000 0.37040  0.60930  0.78910  Biso   1.000  N
  C17      1.0000 0.44400  0.55680  0.81830  Biso   1.000  C
  C18      1.0000 0.52880  0.48310  0.85930  Biso   1.000  C
  H25      1.0000 0.52860  0.42170  0.81680  Biso   1.000  H
  H26      1.0000 0.61030  0.51290  0.85650  Biso   1.000  H
  C19      1.0000 0.50300  0.44860  0.96930  Biso   1.000  C
  H27      1.0000 0.42590  0.41130  0.97350  Biso   1.000  H
  H28      1.0000 0.56790  0.40400  0.99400  Biso   1.000  H
  C20      1.0000 0.55940  0.51100  0.97010  Biso   1.000  C
  H29      1.0000 0.58250  0.58370  0.97590  Biso   1.000  H
  H30      1.0000 0.62610  0.46820  0.99490  Biso   1.000  H
  N6       1.0000 0.14410  0.71110  0.60960  Biso   1.000  N
  C21      1.0000 0.07980  0.68720  0.54740  Biso   1.000  C
  C22      1.0000 0.98720  0.64740  0.48220  Biso   1.000  C
  H31      1.0000 0.91710  0.69380  0.48510  Biso   1.000  H
  H32      1.0000 0.01810  0.64880  0.41370  Biso   1.000  H
  C23      1.0000 0.94280  0.53550  0.50600  Biso   1.000  C
  H33      1.0000 0.91030  0.53150  0.57350  Biso   1.000  H
  H34      1.0000 0.87930  0.51470  0.45870  Biso   1.000  H
  C24      1.0000 0.01000  0.53250  0.45140  Biso   1.000  C
  H35      1.0000 0.95250  0.51130  0.39950  Biso   1.000  H
  H36      1.0000 0.09240  0.52360  0.42610  Biso   1.000  H
  N7       1.0000 0.37040  0.89070  0.71090  Biso   1.000  N
  C25      1.0000 0.44400  0.94320  0.68170  Biso   1.000  C
  C26      1.0000 0.52880  0.01690  0.64070  Biso   1.000  C
  H37      1.0000 0.52860  0.07830  0.68320  Biso   1.000  H
  H38      1.0000 0.61030  0.98710  0.64350  Biso   1.000  H
  C27      1.0000 0.50300  0.05140  0.53070  Biso   1.000  C
  H39      1.0000 0.42590  0.08870  0.52650  Biso   1.000  H
  H40      1.0000 0.56790  0.09600  0.50600  Biso   1.000  H
  C28      1.0000 0.55940  0.98900  0.52990  Biso   1.000  C
  H41      1.0000 0.58250  0.91630  0.52410  Biso   1.000  H
  H42      1.0000 0.62610  0.03180  0.50510  Biso   1.000  H
  N8       1.0000 0.14410  0.78890  0.89040  Biso   1.000  N
  C29      1.0000 0.07980  0.81280  0.95260  Biso   1.000  C
  C30      1.0000 0.98720  0.85260  0.01780  Biso   1.000  C
  H43      1.0000 0.91710  0.80620  0.01490  Biso   1.000  H
  H44      1.0000 0.01810  0.85120  0.08630  Biso   1.000  H
  C31      1.0000 0.94280  0.96450  0.99400  Biso   1.000  C
  H45      1.0000 0.91030  0.96850  0.92650  Biso   1.000  H
  H46      1.0000 0.87930  0.98530  0.04130  Biso   1.000  H
  C32      1.0000 0.01000  0.96750  0.04860  Biso   1.000  C
  H47      1.0000 0.95250  0.98870  0.10050  Biso   1.000  H
  H48      1.0000 0.09240  0.97640  0.07390  Biso   1.000  H
  Ag1      1.0000 0.74816  0.25000  0.25000  Biso   1.000  Ag
  Ag2      1.0000 0.25184  0.75000  0.75000  Biso   1.000  Ag
  N9       1.0000 0.87040  0.39070  0.78910  Biso   1.000  N
  C33      1.0000 0.94400  0.44320  0.81830  Biso   1.000  C
  C34      1.0000 0.02880  0.51690  0.85930  Biso   1.000  C
  H49      1.0000 0.02860  0.57830  0.81680  Biso   1.000  H
  H50      1.0000 0.11030  0.48710  0.85650  Biso   1.000  H
  C35      1.0000 0.00300  0.55140  0.96930  Biso   1.000  C
  H51      1.0000 0.92590  0.58870  0.97350  Biso   1.000  H
  H52      1.0000 0.06790  0.59600  0.99400  Biso   1.000  H
  C36      1.0000 0.05940  0.48900  0.97010  Biso   1.000  C
  H53      1.0000 0.08250  0.41630  0.97590  Biso   1.000  H
  H54      1.0000 0.12610  0.53180  0.99490  Biso   1.000  H
  N10      1.0000 0.64410  0.28890  0.60960  Biso   1.000  N
  C37      1.0000 0.57980  0.31280  0.54740  Biso   1.000  C
  C38      1.0000 0.48720  0.35260  0.48220  Biso   1.000  C
  H55      1.0000 0.41710  0.30620  0.48510  Biso   1.000  H
  H56      1.0000 0.51810  0.35120  0.41370  Biso   1.000  H
  C39      1.0000 0.44280  0.46450  0.50600  Biso   1.000  C
  H57      1.0000 0.41030  0.46850  0.57350  Biso   1.000  H
  H58      1.0000 0.37930  0.48530  0.45870  Biso   1.000  H
  C40      1.0000 0.51000  0.46750  0.45140  Biso   1.000  C
  H59      1.0000 0.45250  0.48870  0.39950  Biso   1.000  H
  H60      1.0000 0.59240  0.47640  0.42610  Biso   1.000  H
  N11      1.0000 0.87040  0.10930  0.71090  Biso   1.000  N
  C41      1.0000 0.94400  0.05680  0.68170  Biso   1.000  C
  C42      1.0000 0.02880  0.98310  0.64070  Biso   1.000  C
  H61      1.0000 0.02860  0.92170  0.68320  Biso   1.000  H
  H62      1.0000 0.11030  0.01290  0.64350  Biso   1.000  H
  C43      1.0000 0.00300  0.94860  0.53070  Biso   1.000  C
  H63      1.0000 0.92590  0.91130  0.52650  Biso   1.000  H
  H64      1.0000 0.06790  0.90400  0.50600  Biso   1.000  H
  C44      1.0000 0.05940  0.01100  0.52990  Biso   1.000  C
  H65      1.0000 0.08250  0.08370  0.52410  Biso   1.000  H
  H66      1.0000 0.12610  0.96820  0.50510  Biso   1.000  H
  N12      1.0000 0.64410  0.21110  0.89040  Biso   1.000  N
  C45      1.0000 0.57980  0.18720  0.95260  Biso   1.000  C
  C46      1.0000 0.48720  0.14740  0.01780  Biso   1.000  C
  H67      1.0000 0.41710  0.19380  0.01490  Biso   1.000  H
  H68      1.0000 0.51810  0.14880  0.08630  Biso   1.000  H
  C47      1.0000 0.44280  0.03550  0.99400  Biso   1.000  C
  H69      1.0000 0.41030  0.03150  0.92650  Biso   1.000  H
  H70      1.0000 0.37930  0.01470  0.04130  Biso   1.000  H
  C48      1.0000 0.51000  0.03250  0.04860  Biso   1.000  C
  H71      1.0000 0.45250  0.01130  0.10050  Biso   1.000  H
  H72      1.0000 0.59240  0.02360  0.07390  Biso   1.000  H
  N13      1.0000 0.12960  0.60930  0.21090  Biso   1.000  N
  C49      1.0000 0.05600  0.55680  0.18170  Biso   1.000  C
  C50      1.0000 0.97120  0.48310  0.14070  Biso   1.000  C
  H73      1.0000 0.97140  0.42170  0.18320  Biso   1.000  H
  H74      1.0000 0.88970  0.51290  0.14350  Biso   1.000  H
  C51      1.0000 0.99700  0.44860  0.03070  Biso   1.000  C
  H75      1.0000 0.07410  0.41130  0.02650  Biso   1.000  H
  H76      1.0000 0.93210  0.40400  0.00600  Biso   1.000  H
  C52      1.0000 0.94060  0.51100  0.02990  Biso   1.000  C
  H77      1.0000 0.91750  0.58370  0.02410  Biso   1.000  H
  H78      1.0000 0.87390  0.46820  0.00510  Biso   1.000  H
  N14      1.0000 0.35590  0.71110  0.39040  Biso   1.000  N
  C53      1.0000 0.42020  0.68720  0.45260  Biso   1.000  C
  C54      1.0000 0.51280  0.64740  0.51780  Biso   1.000  C
  H79      1.0000 0.58290  0.69380  0.51490  Biso   1.000  H
  H80      1.0000 0.48190  0.64880  0.58630  Biso   1.000  H
  C55      1.0000 0.55720  0.53550  0.49400  Biso   1.000  C
  H81      1.0000 0.58970  0.53150  0.42650  Biso   1.000  H
  H82      1.0000 0.62070  0.51470  0.54130  Biso   1.000  H
  C56      1.0000 0.49000  0.53250  0.54860  Biso   1.000  C
  H83      1.0000 0.54750  0.51130  0.60050  Biso   1.000  H
  H84      1.0000 0.40760  0.52360  0.57390  Biso   1.000  H
  N15      1.0000 0.12960  0.89070  0.28910  Biso   1.000  N
  C57      1.0000 0.05600  0.94320  0.31830  Biso   1.000  C
  C58      1.0000 0.97120  0.01690  0.35930  Biso   1.000  C
  H85      1.0000 0.97140  0.07830  0.31680  Biso   1.000  H
  H86      1.0000 0.88970  0.98710  0.35650  Biso   1.000  H
  C59      1.0000 0.99700  0.05140  0.46930  Biso   1.000  C
  H87      1.0000 0.07410  0.08870  0.47350  Biso   1.000  H
  H88      1.0000 0.93210  0.09600  0.49400  Biso   1.000  H
  C60      1.0000 0.94060  0.98900  0.47010  Biso   1.000  C
  H89      1.0000 0.91750  0.91630  0.47590  Biso   1.000  H
  H90      1.0000 0.87390  0.03180  0.49490  Biso   1.000  H
  N16      1.0000 0.35590  0.78890  0.10960  Biso   1.000  N
  C61      1.0000 0.42020  0.81280  0.04740  Biso   1.000  C
  C62      1.0000 0.51280  0.85260  0.98220  Biso   1.000  C
  H91      1.0000 0.58290  0.80620  0.98510  Biso   1.000  H
  H92      1.0000 0.48190  0.85120  0.91370  Biso   1.000  H
  C63      1.0000 0.55720  0.96450  0.00600  Biso   1.000  C
  H93      1.0000 0.58970  0.96850  0.07350  Biso   1.000  H
  H94      1.0000 0.62070  0.98530  0.95870  Biso   1.000  H
  C64      1.0000 0.49000  0.96750  0.95140  Biso   1.000  C
  H95      1.0000 0.54750  0.98870  0.89950  Biso   1.000  H
  H96      1.0000 0.40760  0.97640  0.92610  Biso   1.000  H
  Ag3      1.0000 0.75184  0.25000  0.75000  Biso   1.000  Ag
  Ag4      1.0000 0.24816  0.75000  0.25000  Biso   1.000  Ag
