data_image0
_cell_length_a       11.195
_cell_length_b       12.757
_cell_length_c       13.508
_cell_angle_alpha    90
_cell_angle_beta     90
_cell_angle_gamma    90

_symmetry_space_group_name_H-M    "P 1"
_symmetry_int_tables_number       1

loop_
  _symmetry_equiv_pos_as_xyz
  'x, y, z'

loop_
  _atom_site_label
  _atom_site_occupancy
  _atom_site_fract_x
  _atom_site_fract_y
  _atom_site_fract_z
  _atom_site_thermal_displace_type
  _atom_site_B_iso_or_equiv
  _atom_site_type_symbol
  N1       1.0000 0.63540  0.38620  0.20490  Biso   1.000  N
  C1       1.0000 0.56450  0.44270  0.17820  Biso   1.000  C
  C2       1.0000 0.47870  0.51600  0.14160  Biso   1.000  C
  H1       1.0000 0.47980  0.57850  0.18240  Biso   1.000  H
  H2       1.0000 0.39950  0.48550  0.14560  Biso   1.000  H
  C3       1.0000 0.50600  0.54530  0.03510  Biso   1.000  C
  H3       1.0000 0.45110  0.60030  0.01460  Biso   1.000  H
  H4       1.0000 0.58610  0.57300  0.03130  Biso   1.000  H
  C4       1.0000 0.44810  0.49880  0.03480  Biso   1.000  C
  H5       1.0000 0.40860  0.43140  0.02850  Biso   1.000  H
  H6       1.0000 0.39140  0.55220  0.01460  Biso   1.000  H
  N2       1.0000 0.85490  0.29370  0.38480  Biso   1.000  N
  C5       1.0000 0.91290  0.32050  0.44650  Biso   1.000  C
  C6       1.0000 0.98650  0.35440  0.52600  Biso   1.000  C
  H7       1.0000 0.04890  0.30250  0.53540  Biso   1.000  H
  H8       1.0000 0.93840  0.35510  0.58580  Biso   1.000  H
  C7       1.0000 0.04450  0.45930  0.51580  Biso   1.000  C
  H9       1.0000 0.10820  0.45520  0.46730  Biso   1.000  H
  H10      1.0000 0.07940  0.47960  0.57870  Biso   1.000  H
  C8       1.0000 0.97130  0.47110  0.54250  Biso   1.000  C
  H11      1.0000 0.88700  0.48840  0.54600  Biso   1.000  H
  H12      1.0000 0.00850  0.49140  0.60440  Biso   1.000  H
  N3       1.0000 0.63540  0.11380  0.29510  Biso   1.000  N
  C9       1.0000 0.56450  0.05730  0.32180  Biso   1.000  C
  C10      1.0000 0.47870  0.98400  0.35840  Biso   1.000  C
  H13      1.0000 0.47980  0.92150  0.31760  Biso   1.000  H
  H14      1.0000 0.39950  0.01450  0.35440  Biso   1.000  H
  C11      1.0000 0.50600  0.95470  0.46490  Biso   1.000  C
  H15      1.0000 0.45110  0.89970  0.48540  Biso   1.000  H
  H16      1.0000 0.58610  0.92700  0.46870  Biso   1.000  H
  C12      1.0000 0.44810  0.00120  0.46520  Biso   1.000  C
  H17      1.0000 0.40860  0.06860  0.47150  Biso   1.000  H
  H18      1.0000 0.39140  0.94780  0.48540  Biso   1.000  H
  N4       1.0000 0.85490  0.20630  0.11520  Biso   1.000  N
  C13      1.0000 0.91290  0.17950  0.05350  Biso   1.000  C
  C14      1.0000 0.98650  0.14560  0.97400  Biso   1.000  C
  H19      1.0000 0.04890  0.19750  0.96460  Biso   1.000  H
  H20      1.0000 0.93840  0.14490  0.91420  Biso   1.000  H
  C15      1.0000 0.04450  0.04070  0.98420  Biso   1.000  C
  H21      1.0000 0.10820  0.04480  0.03270  Biso   1.000  H
  H22      1.0000 0.07940  0.02040  0.92130  Biso   1.000  H
  C16      1.0000 0.97130  0.02890  0.95750  Biso   1.000  C
  H23      1.0000 0.88700  0.01160  0.95400  Biso   1.000  H
  H24      1.0000 0.00850  0.00860  0.89560  Biso   1.000  H
  N5       1.0000 0.36460  0.61380  0.79510  Biso   1.000  N
  C17      1.0000 0.43550  0.55730  0.82180  Biso   1.000  C
  C18      1.0000 0.52130  0.48400  0.85840  Biso   1.000  C
  H25      1.0000 0.52020  0.42150  0.81760  Biso   1.000  H
  H26      1.0000 0.60050  0.51450  0.85440  Biso   1.000  H
  C19      1.0000 0.49400  0.45470  0.96490  Biso   1.000  C
  H27      1.0000 0.54890  0.39970  0.98540  Biso   1.000  H
  H28      1.0000 0.41390  0.42700  0.96870  Biso   1.000  H
  C20      1.0000 0.55190  0.50120  0.96520  Biso   1.000  C
  H29      1.0000 0.59140  0.56860  0.97150  Biso   1.000  H
  H30      1.0000 0.60860  0.44780  0.98540  Biso   1.000  H
  N6       1.0000 0.14510  0.70630  0.61520  Biso   1.000  N
  C21      1.0000 0.08710  0.67950  0.55350  Biso   1.000  C
  C22      1.0000 0.01350  0.64560  0.47400  Biso   1.000  C
  H31      1.0000 0.95110  0.69750  0.46460  Biso   1.000  H
  H32      1.0000 0.06160  0.64490  0.41420  Biso   1.000  H
  C23      1.0000 0.95550  0.54070  0.48420  Biso   1.000  C
  H33      1.0000 0.89180  0.54480  0.53270  Biso   1.000  H
  H34      1.0000 0.92060  0.52040  0.42130  Biso   1.000  H
  C24      1.0000 0.02870  0.52890  0.45750  Biso   1.000  C
  H35      1.0000 0.11300  0.51160  0.45400  Biso   1.000  H
  H36      1.0000 0.99150  0.50860  0.39560  Biso   1.000  H
  N7       1.0000 0.36460  0.88620  0.70490  Biso   1.000  N
  C25      1.0000 0.43550  0.94270  0.67820  Biso   1.000  C
  C26      1.0000 0.52130  0.01600  0.64160  Biso   1.000  C
  H37      1.0000 0.52020  0.07850  0.68240  Biso   1.000  H
  H38      1.0000 0.60050  0.98550  0.64560  Biso   1.000  H
  C27      1.0000 0.49400  0.04530  0.53510  Biso   1.000  C
  H39      1.0000 0.54890  0.10030  0.51460  Biso   1.000  H
  H40      1.0000 0.41390  0.07300  0.53130  Biso   1.000  H
  C28      1.0000 0.55190  0.99880  0.53480  Biso   1.000  C
  H41      1.0000 0.59140  0.93140  0.52850  Biso   1.000  H
  H42      1.0000 0.60860  0.05220  0.51460  Biso   1.000  H
  N8       1.0000 0.14510  0.79370  0.88480  Biso   1.000  N
  C29      1.0000 0.08710  0.82050  0.94650  Biso   1.000  C
  C30      1.0000 0.01350  0.85440  0.02600  Biso   1.000  C
  H43      1.0000 0.95110  0.80250  0.03540  Biso   1.000  H
  H44      1.0000 0.06160  0.85510  0.08580  Biso   1.000  H
  C31      1.0000 0.95550  0.95930  0.01580  Biso   1.000  C
  H45      1.0000 0.89180  0.95520  0.96730  Biso   1.000  H
  H46      1.0000 0.92060  0.97960  0.07870  Biso   1.000  H
  C32      1.0000 0.02870  0.97110  0.04250  Biso   1.000  C
  H47      1.0000 0.11300  0.98840  0.04600  Biso   1.000  H
  H48      1.0000 0.99150  0.99140  0.10440  Biso   1.000  H
  Ag1      1.0000 0.75139  0.25000  0.25000  Biso   1.000  Ag
  Ag2      1.0000 0.24861  0.75000  0.75000  Biso   1.000  Ag
  N9       1.0000 0.86460  0.38620  0.79510  Biso   1.000  N
  C33      1.0000 0.93550  0.44270  0.82180  Biso   1.000  C
  C34      1.0000 0.02130  0.51600  0.85840  Biso   1.000  C
  H49      1.0000 0.02020  0.57850  0.81760  Biso   1.000  H
  H50      1.0000 0.10050  0.48550  0.85440  Biso   1.000  H
  C35      1.0000 0.99400  0.54530  0.96490  Biso   1.000  C
  H51      1.0000 0.04890  0.60030  0.98540  Biso   1.000  H
  H52      1.0000 0.91390  0.57300  0.96870  Biso   1.000  H
  C36      1.0000 0.05190  0.49880  0.96520  Biso   1.000  C
  H53      1.0000 0.09140  0.43140  0.97150  Biso   1.000  H
  H54      1.0000 0.10860  0.55220  0.98540  Biso   1.000  H
  N10      1.0000 0.64510  0.29370  0.61520  Biso   1.000  N
  C37      1.0000 0.58710  0.32050  0.55350  Biso   1.000  C
  C38      1.0000 0.51350  0.35440  0.47400  Biso   1.000  C
  H55      1.0000 0.45110  0.30250  0.46460  Biso   1.000  H
  H56      1.0000 0.56160  0.35510  0.41420  Biso   1.000  H
  C39      1.0000 0.45550  0.45930  0.48420  Biso   1.000  C
  H57      1.0000 0.39180  0.45520  0.53270  Biso   1.000  H
  H58      1.0000 0.42060  0.47960  0.42130  Biso   1.000  H
  C40      1.0000 0.52870  0.47110  0.45750  Biso   1.000  C
  H59      1.0000 0.61300  0.48840  0.45400  Biso   1.000  H
  H60      1.0000 0.49150  0.49140  0.39560  Biso   1.000  H
  N11      1.0000 0.86460  0.11380  0.70490  Biso   1.000  N
  C41      1.0000 0.93550  0.05730  0.67820  Biso   1.000  C
  C42      1.0000 0.02130  0.98400  0.64160  Biso   1.000  C
  H61      1.0000 0.02020  0.92150  0.68240  Biso   1.000  H
  H62      1.0000 0.10050  0.01450  0.64560  Biso   1.000  H
  C43      1.0000 0.99400  0.95470  0.53510  Biso   1.000  C
  H63      1.0000 0.04890  0.89970  0.51460  Biso   1.000  H
  H64      1.0000 0.91390  0.92700  0.53130  Biso   1.000  H
  C44      1.0000 0.05190  0.00120  0.53480  Biso   1.000  C
  H65      1.0000 0.09140  0.06860  0.52850  Biso   1.000  H
  H66      1.0000 0.10860  0.94780  0.51460  Biso   1.000  H
  N12      1.0000 0.64510  0.20630  0.88480  Biso   1.000  N
  C45      1.0000 0.58710  0.17950  0.94650  Biso   1.000  C
  C46      1.0000 0.51350  0.14560  0.02600  Biso   1.000  C
  H67      1.0000 0.45110  0.19750  0.03540  Biso   1.000  H
  H68      1.0000 0.56160  0.14490  0.08580  Biso   1.000  H
  C47      1.0000 0.45550  0.04070  0.01580  Biso   1.000  C
  H69      1.0000 0.39180  0.04480  0.96730  Biso   1.000  H
  H70      1.0000 0.42060  0.02040  0.07870  Biso   1.000  H
  C48      1.0000 0.52870  0.02890  0.04250  Biso   1.000  C
  H71      1.0000 0.61300  0.01160  0.04600  Biso   1.000  H
  H72      1.0000 0.49150  0.00860  0.10440  Biso   1.000  H
  N13      1.0000 0.13540  0.61380  0.20490  Biso   1.000  N
  C49      1.0000 0.06450  0.55730  0.17820  Biso   1.000  C
  C50      1.0000 0.97870  0.48400  0.14160  Biso   1.000  C
  H73      1.0000 0.97980  0.42150  0.18240  Biso   1.000  H
  H74      1.0000 0.89950  0.51450  0.14560  Biso   1.000  H
  C51      1.0000 0.00600  0.45470  0.03510  Biso   1.000  C
  H75      1.0000 0.95110  0.39970  0.01460  Biso   1.000  H
  H76      1.0000 0.08610  0.42700  0.03130  Biso   1.000  H
  C52      1.0000 0.94810  0.50120  0.03480  Biso   1.000  C
  H77      1.0000 0.90860  0.56860  0.02850  Biso   1.000  H
  H78      1.0000 0.89140  0.44780  0.01460  Biso   1.000  H
  N14      1.0000 0.35490  0.70630  0.38480  Biso   1.000  N
  C53      1.0000 0.41290  0.67950  0.44650  Biso   1.000  C
  C54      1.0000 0.48650  0.64560  0.52600  Biso   1.000  C
  H79      1.0000 0.54890  0.69750  0.53540  Biso   1.000  H
  H80      1.0000 0.43840  0.64490  0.58580  Biso   1.000  H
  C55      1.0000 0.54450  0.54070  0.51580  Biso   1.000  C
  H81      1.0000 0.60820  0.54480  0.46730  Biso   1.000  H
  H82      1.0000 0.57940  0.52040  0.57870  Biso   1.000  H
  C56      1.0000 0.47130  0.52890  0.54250  Biso   1.000  C
  H83      1.0000 0.38700  0.51160  0.54600  Biso   1.000  H
  H84      1.0000 0.50850  0.50860  0.60440  Biso   1.000  H
  N15      1.0000 0.13540  0.88620  0.29510  Biso   1.000  N
  C57      1.0000 0.06450  0.94270  0.32180  Biso   1.000  C
  C58      1.0000 0.97870  0.01600  0.35840  Biso   1.000  C
  H85      1.0000 0.97980  0.07850  0.31760  Biso   1.000  H
  H86      1.0000 0.89950  0.98550  0.35440  Biso   1.000  H
  C59      1.0000 0.00600  0.04530  0.46490  Biso   1.000  C
  H87      1.0000 0.95110  0.10030  0.48540  Biso   1.000  H
  H88      1.0000 0.08610  0.07300  0.46870  Biso   1.000  H
  C60      1.0000 0.94810  0.99880  0.46520  Biso   1.000  C
  H89      1.0000 0.90860  0.93140  0.47150  Biso   1.000  H
  H90      1.0000 0.89140  0.05220  0.48540  Biso   1.000  H
  N16      1.0000 0.35490  0.79370  0.11520  Biso   1.000  N
  C61      1.0000 0.41290  0.82050  0.05350  Biso   1.000  C
  C62      1.0000 0.48650  0.85440  0.97400  Biso   1.000  C
  H91      1.0000 0.54890  0.80250  0.96460  Biso   1.000  H
  H92      1.0000 0.43840  0.85510  0.91420  Biso   1.000  H
  C63      1.0000 0.54450  0.95930  0.98420  Biso   1.000  C
  H93      1.0000 0.60820  0.95520  0.03270  Biso   1.000  H
  H94      1.0000 0.57940  0.97960  0.92130  Biso   1.000  H
  C64      1.0000 0.47130  0.97110  0.95750  Biso   1.000  C
  H95      1.0000 0.38700  0.98840  0.95400  Biso   1.000  H
  H96      1.0000 0.50850  0.99140  0.89560  Biso   1.000  H
  Ag3      1.0000 0.74861  0.25000  0.75000  Biso   1.000  Ag
  Ag4      1.0000 0.25139  0.75000  0.25000  Biso   1.000  Ag
