data_image0
_cell_length_a       11.136
_cell_length_b       12.852
_cell_length_c       13.459
_cell_angle_alpha    90
_cell_angle_beta     90
_cell_angle_gamma    90

_symmetry_space_group_name_H-M    "P 1"
_symmetry_int_tables_number       1

loop_
  _symmetry_equiv_pos_as_xyz
  'x, y, z'

loop_
  _atom_site_label
  _atom_site_occupancy
  _atom_site_fract_x
  _atom_site_fract_y
  _atom_site_fract_z
  _atom_site_thermal_displace_type
  _atom_site_B_iso_or_equiv
  _atom_site_type_symbol
  N1       1.0000 0.63060  0.38720  0.20710  Biso   1.000  N
  C1       1.0000 0.56450  0.44440  0.17930  Biso   1.000  C
  C2       1.0000 0.47230  0.51590  0.14150  Biso   1.000  C
  H1       1.0000 0.46900  0.57760  0.18300  Biso   1.000  H
  H2       1.0000 0.39430  0.48240  0.14360  Biso   1.000  H
  C3       1.0000 0.50200  0.54700  0.03440  Biso   1.000  C
  H3       1.0000 0.44500  0.59870  0.01170  Biso   1.000  H
  H4       1.0000 0.58160  0.57770  0.03220  Biso   1.000  H
  C4       1.0000 0.44530  0.49320  0.03270  Biso   1.000  C
  H5       1.0000 0.41610  0.42240  0.02660  Biso   1.000  H
  H6       1.0000 0.38230  0.53960  0.01000  Biso   1.000  H
  N2       1.0000 0.85200  0.29250  0.38880  Biso   1.000  N
  C5       1.0000 0.91680  0.31800  0.44660  Biso   1.000  C
  C6       1.0000 0.99840  0.35300  0.52340  Biso   1.000  C
  H7       1.0000 0.06350  0.30330  0.53000  Biso   1.000  H
  H8       1.0000 0.95600  0.35590  0.58630  Biso   1.000  H
  C7       1.0000 0.05020  0.45980  0.50020  Biso   1.000  C
  H9       1.0000 0.08930  0.45850  0.43580  Biso   1.000  H
  H10      1.0000 0.10970  0.47820  0.54980  Biso   1.000  H
  C8       1.0000 0.98280  0.46860  0.54570  Biso   1.000  C
  H11      1.0000 0.03340  0.48820  0.60130  Biso   1.000  H
  H12      1.0000 0.90000  0.48270  0.56350  Biso   1.000  H
  N3       1.0000 0.63060  0.11280  0.29290  Biso   1.000  N
  C9       1.0000 0.56450  0.05560  0.32070  Biso   1.000  C
  C10      1.0000 0.47230  0.98410  0.35850  Biso   1.000  C
  H13      1.0000 0.46900  0.92240  0.31700  Biso   1.000  H
  H14      1.0000 0.39430  0.01760  0.35640  Biso   1.000  H
  C11      1.0000 0.50200  0.95300  0.46560  Biso   1.000  C
  H15      1.0000 0.44500  0.90130  0.48830  Biso   1.000  H
  H16      1.0000 0.58160  0.92230  0.46780  Biso   1.000  H
  C12      1.0000 0.44530  0.00680  0.46730  Biso   1.000  C
  H17      1.0000 0.41610  0.07760  0.47340  Biso   1.000  H
  H18      1.0000 0.38230  0.96040  0.49000  Biso   1.000  H
  N4       1.0000 0.85200  0.20750  0.11120  Biso   1.000  N
  C13      1.0000 0.91680  0.18200  0.05340  Biso   1.000  C
  C14      1.0000 0.99840  0.14700  0.97660  Biso   1.000  C
  H19      1.0000 0.06350  0.19670  0.97000  Biso   1.000  H
  H20      1.0000 0.95600  0.14410  0.91370  Biso   1.000  H
  C15      1.0000 0.05020  0.04020  0.99980  Biso   1.000  C
  H21      1.0000 0.08930  0.04150  0.06420  Biso   1.000  H
  H22      1.0000 0.10970  0.02180  0.95020  Biso   1.000  H
  C16      1.0000 0.98280  0.03140  0.95430  Biso   1.000  C
  H23      1.0000 0.03340  0.01180  0.89870  Biso   1.000  H
  H24      1.0000 0.90000  0.01730  0.93650  Biso   1.000  H
  N5       1.0000 0.36940  0.61280  0.79290  Biso   1.000  N
  C17      1.0000 0.43550  0.55560  0.82070  Biso   1.000  C
  C18      1.0000 0.52770  0.48410  0.85850  Biso   1.000  C
  H25      1.0000 0.53100  0.42240  0.81700  Biso   1.000  H
  H26      1.0000 0.60570  0.51760  0.85640  Biso   1.000  H
  C19      1.0000 0.49800  0.45300  0.96560  Biso   1.000  C
  H27      1.0000 0.55500  0.40130  0.98830  Biso   1.000  H
  H28      1.0000 0.41840  0.42230  0.96780  Biso   1.000  H
  C20      1.0000 0.55470  0.50680  0.96730  Biso   1.000  C
  H29      1.0000 0.58390  0.57760  0.97340  Biso   1.000  H
  H30      1.0000 0.61770  0.46040  0.99000  Biso   1.000  H
  N6       1.0000 0.14800  0.70750  0.61120  Biso   1.000  N
  C21      1.0000 0.08320  0.68200  0.55340  Biso   1.000  C
  C22      1.0000 0.00160  0.64700  0.47660  Biso   1.000  C
  H31      1.0000 0.93650  0.69670  0.47000  Biso   1.000  H
  H32      1.0000 0.04400  0.64410  0.41370  Biso   1.000  H
  C23      1.0000 0.94980  0.54020  0.49980  Biso   1.000  C
  H33      1.0000 0.91070  0.54150  0.56420  Biso   1.000  H
  H34      1.0000 0.89030  0.52180  0.45020  Biso   1.000  H
  C24      1.0000 0.01720  0.53140  0.45430  Biso   1.000  C
  H35      1.0000 0.96660  0.51180  0.39870  Biso   1.000  H
  H36      1.0000 0.10000  0.51730  0.43650  Biso   1.000  H
  N7       1.0000 0.36940  0.88720  0.70710  Biso   1.000  N
  C25      1.0000 0.43550  0.94440  0.67930  Biso   1.000  C
  C26      1.0000 0.52770  0.01590  0.64150  Biso   1.000  C
  H37      1.0000 0.53100  0.07760  0.68300  Biso   1.000  H
  H38      1.0000 0.60570  0.98240  0.64360  Biso   1.000  H
  C27      1.0000 0.49800  0.04700  0.53440  Biso   1.000  C
  H39      1.0000 0.55500  0.09870  0.51170  Biso   1.000  H
  H40      1.0000 0.41840  0.07770  0.53220  Biso   1.000  H
  C28      1.0000 0.55470  0.99320  0.53270  Biso   1.000  C
  H41      1.0000 0.58390  0.92240  0.52660  Biso   1.000  H
  H42      1.0000 0.61770  0.03960  0.51000  Biso   1.000  H
  N8       1.0000 0.14800  0.79250  0.88880  Biso   1.000  N
  C29      1.0000 0.08320  0.81800  0.94660  Biso   1.000  C
  C30      1.0000 0.00160  0.85300  0.02340  Biso   1.000  C
  H43      1.0000 0.93650  0.80330  0.03000  Biso   1.000  H
  H44      1.0000 0.04400  0.85590  0.08630  Biso   1.000  H
  C31      1.0000 0.94980  0.95980  0.00020  Biso   1.000  C
  H45      1.0000 0.91070  0.95850  0.93580  Biso   1.000  H
  H46      1.0000 0.89030  0.97820  0.04980  Biso   1.000  H
  C32      1.0000 0.01720  0.96860  0.04570  Biso   1.000  C
  H47      1.0000 0.96660  0.98820  0.10130  Biso   1.000  H
  H48      1.0000 0.10000  0.98270  0.06350  Biso   1.000  H
  Ag1      1.0000 0.74797  0.25000  0.25000  Biso   1.000  Ag
  Ag2      1.0000 0.25203  0.75000  0.75000  Biso   1.000  Ag
  N9       1.0000 0.86940  0.38720  0.79290  Biso   1.000  N
  C33      1.0000 0.93550  0.44440  0.82070  Biso   1.000  C
  C34      1.0000 0.02770  0.51590  0.85850  Biso   1.000  C
  H49      1.0000 0.03100  0.57760  0.81700  Biso   1.000  H
  H50      1.0000 0.10570  0.48240  0.85640  Biso   1.000  H
  C35      1.0000 0.99800  0.54700  0.96560  Biso   1.000  C
  H51      1.0000 0.05500  0.59870  0.98830  Biso   1.000  H
  H52      1.0000 0.91840  0.57770  0.96780  Biso   1.000  H
  C36      1.0000 0.05470  0.49320  0.96730  Biso   1.000  C
  H53      1.0000 0.08390  0.42240  0.97340  Biso   1.000  H
  H54      1.0000 0.11770  0.53960  0.99000  Biso   1.000  H
  N10      1.0000 0.64800  0.29250  0.61120  Biso   1.000  N
  C37      1.0000 0.58320  0.31800  0.55340  Biso   1.000  C
  C38      1.0000 0.50160  0.35300  0.47660  Biso   1.000  C
  H55      1.0000 0.43650  0.30330  0.47000  Biso   1.000  H
  H56      1.0000 0.54400  0.35590  0.41370  Biso   1.000  H
  C39      1.0000 0.44980  0.45980  0.49980  Biso   1.000  C
  H57      1.0000 0.41070  0.45850  0.56420  Biso   1.000  H
  H58      1.0000 0.39030  0.47820  0.45020  Biso   1.000  H
  C40      1.0000 0.51720  0.46860  0.45430  Biso   1.000  C
  H59      1.0000 0.46660  0.48820  0.39870  Biso   1.000  H
  H60      1.0000 0.60000  0.48270  0.43650  Biso   1.000  H
  N11      1.0000 0.86940  0.11280  0.70710  Biso   1.000  N
  C41      1.0000 0.93550  0.05560  0.67930  Biso   1.000  C
  C42      1.0000 0.02770  0.98410  0.64150  Biso   1.000  C
  H61      1.0000 0.03100  0.92240  0.68300  Biso   1.000  H
  H62      1.0000 0.10570  0.01760  0.64360  Biso   1.000  H
  C43      1.0000 0.99800  0.95300  0.53440  Biso   1.000  C
  H63      1.0000 0.05500  0.90130  0.51170  Biso   1.000  H
  H64      1.0000 0.91840  0.92230  0.53220  Biso   1.000  H
  C44      1.0000 0.05470  0.00680  0.53270  Biso   1.000  C
  H65      1.0000 0.08390  0.07760  0.52660  Biso   1.000  H
  H66      1.0000 0.11770  0.96040  0.51000  Biso   1.000  H
  N12      1.0000 0.64800  0.20750  0.88880  Biso   1.000  N
  C45      1.0000 0.58320  0.18200  0.94660  Biso   1.000  C
  C46      1.0000 0.50160  0.14700  0.02340  Biso   1.000  C
  H67      1.0000 0.43650  0.19670  0.03000  Biso   1.000  H
  H68      1.0000 0.54400  0.14410  0.08630  Biso   1.000  H
  C47      1.0000 0.44980  0.04020  0.00020  Biso   1.000  C
  H69      1.0000 0.41070  0.04150  0.93580  Biso   1.000  H
  H70      1.0000 0.39030  0.02180  0.04980  Biso   1.000  H
  C48      1.0000 0.51720  0.03140  0.04570  Biso   1.000  C
  H71      1.0000 0.46660  0.01180  0.10130  Biso   1.000  H
  H72      1.0000 0.60000  0.01730  0.06350  Biso   1.000  H
  N13      1.0000 0.13060  0.61280  0.20710  Biso   1.000  N
  C49      1.0000 0.06450  0.55560  0.17930  Biso   1.000  C
  C50      1.0000 0.97230  0.48410  0.14150  Biso   1.000  C
  H73      1.0000 0.96900  0.42240  0.18300  Biso   1.000  H
  H74      1.0000 0.89430  0.51760  0.14360  Biso   1.000  H
  C51      1.0000 0.00200  0.45300  0.03440  Biso   1.000  C
  H75      1.0000 0.94500  0.40130  0.01170  Biso   1.000  H
  H76      1.0000 0.08160  0.42230  0.03220  Biso   1.000  H
  C52      1.0000 0.94530  0.50680  0.03270  Biso   1.000  C
  H77      1.0000 0.91610  0.57760  0.02660  Biso   1.000  H
  H78      1.0000 0.88230  0.46040  0.01000  Biso   1.000  H
  N14      1.0000 0.35200  0.70750  0.38880  Biso   1.000  N
  C53      1.0000 0.41680  0.68200  0.44660  Biso   1.000  C
  C54      1.0000 0.49840  0.64700  0.52340  Biso   1.000  C
  H79      1.0000 0.56350  0.69670  0.53000  Biso   1.000  H
  H80      1.0000 0.45600  0.64410  0.58630  Biso   1.000  H
  C55      1.0000 0.55020  0.54020  0.50020  Biso   1.000  C
  H81      1.0000 0.58930  0.54150  0.43580  Biso   1.000  H
  H82      1.0000 0.60970  0.52180  0.54980  Biso   1.000  H
  C56      1.0000 0.48280  0.53140  0.54570  Biso   1.000  C
  H83      1.0000 0.53340  0.51180  0.60130  Biso   1.000  H
  H84      1.0000 0.40000  0.51730  0.56350  Biso   1.000  H
  N15      1.0000 0.13060  0.88720  0.29290  Biso   1.000  N
  C57      1.0000 0.06450  0.94440  0.32070  Biso   1.000  C
  C58      1.0000 0.97230  0.01590  0.35850  Biso   1.000  C
  H85      1.0000 0.96900  0.07760  0.31700  Biso   1.000  H
  H86      1.0000 0.89430  0.98240  0.35640  Biso   1.000  H
  C59      1.0000 0.00200  0.04700  0.46560  Biso   1.000  C
  H87      1.0000 0.94500  0.09870  0.48830  Biso   1.000  H
  H88      1.0000 0.08160  0.07770  0.46780  Biso   1.000  H
  C60      1.0000 0.94530  0.99320  0.46730  Biso   1.000  C
  H89      1.0000 0.91610  0.92240  0.47340  Biso   1.000  H
  H90      1.0000 0.88230  0.03960  0.49000  Biso   1.000  H
  N16      1.0000 0.35200  0.79250  0.11120  Biso   1.000  N
  C61      1.0000 0.41680  0.81800  0.05340  Biso   1.000  C
  C62      1.0000 0.49840  0.85300  0.97660  Biso   1.000  C
  H91      1.0000 0.56350  0.80330  0.97000  Biso   1.000  H
  H92      1.0000 0.45600  0.85590  0.91370  Biso   1.000  H
  C63      1.0000 0.55020  0.95980  0.99980  Biso   1.000  C
  H93      1.0000 0.58930  0.95850  0.06420  Biso   1.000  H
  H94      1.0000 0.60970  0.97820  0.95020  Biso   1.000  H
  C64      1.0000 0.48280  0.96860  0.95430  Biso   1.000  C
  H95      1.0000 0.53340  0.98820  0.89870  Biso   1.000  H
  H96      1.0000 0.40000  0.98270  0.93650  Biso   1.000  H
  Ag3      1.0000 0.75203  0.25000  0.75000  Biso   1.000  Ag
  Ag4      1.0000 0.24797  0.75000  0.25000  Biso   1.000  Ag
