data_image0
_cell_length_a       33.6189
_cell_length_b       7.053
_cell_length_c       20.3468
_cell_angle_alpha    90
_cell_angle_beta     116.039
_cell_angle_gamma    90

_symmetry_space_group_name_H-M    "P 1"
_symmetry_int_tables_number       1

loop_
  _symmetry_equiv_pos_as_xyz
  'x, y, z'

loop_
  _atom_site_label
  _atom_site_occupancy
  _atom_site_fract_x
  _atom_site_fract_y
  _atom_site_fract_z
  _atom_site_thermal_displace_type
  _atom_site_B_iso_or_equiv
  _atom_site_type_symbol
  N1       1.0000 0.14554  0.15670  0.54656  Biso   1.000  N
  N2       1.0000 0.19870  0.92210  0.51025  Biso   1.000  N
  N3       1.0000 0.32910  0.02950  0.58924  Biso   1.000  N
  N4       1.0000 0.28617  0.97260  0.56030  Biso   1.000  N
  N5       1.0000 0.28889  0.25090  0.61320  Biso   1.000  N
  N6       1.0000 0.44635  0.53510  0.71361  Biso   1.000  N
  O1       1.0000 0.46090  0.95260  0.78330  Biso   1.000  O
  O2       1.0000 0.52130  0.83600  0.85480  Biso   1.000  O
  O3       1.0000 0.44968  0.15740  0.09220  Biso   1.000  O
  O4       1.0000 0.51340  0.12190  0.18720  Biso   1.000  O
  C1       1.0000 0.15623  0.88340  0.48899  Biso   1.000  C
  H1       1.0000 0.14400  0.77500  0.46150  Biso   1.000  H
  C2       1.0000 0.13000  0.00110  0.50703  Biso   1.000  C
  H2       1.0000 0.10030  0.97040  0.49090  Biso   1.000  H
  C3       1.0000 0.18856  0.19540  0.56837  Biso   1.000  C
  H3       1.0000 0.20060  0.30400  0.59590  Biso   1.000  H
  C4       1.0000 0.21558  0.07820  0.55097  Biso   1.000  C
  C5       1.0000 0.26344  0.10660  0.57540  Biso   1.000  C
  C6       1.0000 0.32922  0.19640  0.62006  Biso   1.000  C
  C7       1.0000 0.36997  0.31080  0.65507  Biso   1.000  C
  C8       1.0000 0.40870  0.25020  0.65436  Biso   1.000  C
  H4       1.0000 0.41010  0.13290  0.63460  Biso   1.000  H
  C9       1.0000 0.44557  0.36650  0.68354  Biso   1.000  C
  H5       1.0000 0.47140  0.32440  0.68210  Biso   1.000  H
  C10      1.0000 0.37033  0.48500  0.68654  Biso   1.000  C
  H6       1.0000 0.34490  0.52990  0.68880  Biso   1.000  H
  C11      1.0000 0.40860  0.59180  0.71458  Biso   1.000  C
  H7       1.0000 0.40820  0.70900  0.73520  Biso   1.000  H
  C12      1.0000 0.49280  0.95820  0.84200  Biso   1.000  C
  C13      1.0000 0.49800  0.10700  0.89700  Biso   1.000  C
  C14      1.0000 0.53450  0.10200  0.96470  Biso   1.000  C
  C15      1.0000 0.54120  0.24580  0.01520  Biso   1.000  C
  C16      1.0000 0.51230  0.39600  0.99690  Biso   1.000  C
  C17      1.0000 0.47640  0.40290  0.93020  Biso   1.000  C
  C18      1.0000 0.46830  0.25900  0.87830  Biso   1.000  C
  C19      1.0000 0.49400  0.90100  0.09200  Biso   1.000  C
  C20      1.0000 0.53220  0.79300  0.13260  Biso   1.000  C
  C21      1.0000 0.54030  0.62450  0.10580  Biso   1.000  C
  C22      1.0000 0.51200  0.56250  0.03690  Biso   1.000  C
  C23      1.0000 0.47520  0.67000  0.99480  Biso   1.000  C
  C24      1.0000 0.46570  0.83900  0.02120  Biso   1.000  C
  C25      1.0000 0.45042  0.57900  0.92150  Biso   1.000  C
  C26      1.0000 0.48440  0.07920  0.12300  Biso   1.000  C
  H8       1.0000 0.42050  0.55100  0.91250  Biso   1.000  H
  H9       1.0000 0.44310  0.26350  0.83140  Biso   1.000  H
  H10      1.0000 0.55500  0.99780  0.97710  Biso   1.000  H
  H11      1.0000 0.56610  0.24080  0.06250  Biso   1.000  H
  H12      1.0000 0.56590  0.55060  0.13550  Biso   1.000  H
  H13      1.0000 0.55260  0.83790  0.18010  Biso   1.000  H
  H14      1.0000 0.44000  0.91180  0.99130  Biso   1.000  H
  H15      1.0000 0.45020  0.65770  0.88290  Biso   1.000  H
  N7       1.0000 0.64554  0.65670  0.54656  Biso   1.000  N
  N8       1.0000 0.69870  0.42210  0.51025  Biso   1.000  N
  N9       1.0000 0.82910  0.52950  0.58924  Biso   1.000  N
  N10      1.0000 0.78617  0.47260  0.56030  Biso   1.000  N
  N11      1.0000 0.78889  0.75090  0.61320  Biso   1.000  N
  N12      1.0000 0.94635  0.03510  0.71361  Biso   1.000  N
  O5       1.0000 0.96090  0.45260  0.78330  Biso   1.000  O
  O6       1.0000 0.02130  0.33600  0.85480  Biso   1.000  O
  O7       1.0000 0.94968  0.65740  0.09220  Biso   1.000  O
  O8       1.0000 0.01340  0.62190  0.18720  Biso   1.000  O
  C27      1.0000 0.65623  0.38340  0.48899  Biso   1.000  C
  H16      1.0000 0.64400  0.27500  0.46150  Biso   1.000  H
  C28      1.0000 0.63000  0.50110  0.50703  Biso   1.000  C
  H17      1.0000 0.60030  0.47040  0.49090  Biso   1.000  H
  C29      1.0000 0.68856  0.69540  0.56837  Biso   1.000  C
  H18      1.0000 0.70060  0.80400  0.59590  Biso   1.000  H
  C30      1.0000 0.71558  0.57820  0.55097  Biso   1.000  C
  C31      1.0000 0.76344  0.60660  0.57540  Biso   1.000  C
  C32      1.0000 0.82922  0.69640  0.62006  Biso   1.000  C
  C33      1.0000 0.86997  0.81080  0.65507  Biso   1.000  C
  C34      1.0000 0.90870  0.75020  0.65436  Biso   1.000  C
  H19      1.0000 0.91010  0.63290  0.63460  Biso   1.000  H
  C35      1.0000 0.94557  0.86650  0.68354  Biso   1.000  C
  H20      1.0000 0.97140  0.82440  0.68210  Biso   1.000  H
  C36      1.0000 0.87033  0.98500  0.68654  Biso   1.000  C
  H21      1.0000 0.84490  0.02990  0.68880  Biso   1.000  H
  C37      1.0000 0.90860  0.09180  0.71458  Biso   1.000  C
  H22      1.0000 0.90820  0.20900  0.73520  Biso   1.000  H
  C38      1.0000 0.99280  0.45820  0.84200  Biso   1.000  C
  C39      1.0000 0.99800  0.60700  0.89700  Biso   1.000  C
  C40      1.0000 0.03450  0.60200  0.96470  Biso   1.000  C
  C41      1.0000 0.04120  0.74580  0.01520  Biso   1.000  C
  C42      1.0000 0.01230  0.89600  0.99690  Biso   1.000  C
  C43      1.0000 0.97640  0.90290  0.93020  Biso   1.000  C
  C44      1.0000 0.96830  0.75900  0.87830  Biso   1.000  C
  C45      1.0000 0.99400  0.40100  0.09200  Biso   1.000  C
  C46      1.0000 0.03220  0.29300  0.13260  Biso   1.000  C
  C47      1.0000 0.04030  0.12450  0.10580  Biso   1.000  C
  C48      1.0000 0.01200  0.06250  0.03690  Biso   1.000  C
  C49      1.0000 0.97520  0.17000  0.99480  Biso   1.000  C
  C50      1.0000 0.96570  0.33900  0.02120  Biso   1.000  C
  C51      1.0000 0.95042  0.07900  0.92150  Biso   1.000  C
  C52      1.0000 0.98440  0.57920  0.12300  Biso   1.000  C
  H23      1.0000 0.92050  0.05100  0.91250  Biso   1.000  H
  H24      1.0000 0.94310  0.76350  0.83140  Biso   1.000  H
  H25      1.0000 0.05500  0.49780  0.97710  Biso   1.000  H
  H26      1.0000 0.06610  0.74080  0.06250  Biso   1.000  H
  H27      1.0000 0.06590  0.05060  0.13550  Biso   1.000  H
  H28      1.0000 0.05260  0.33790  0.18010  Biso   1.000  H
  H29      1.0000 0.94000  0.41180  0.99130  Biso   1.000  H
  H30      1.0000 0.95020  0.15770  0.88290  Biso   1.000  H
  N13      1.0000 0.85446  0.15670  0.95344  Biso   1.000  N
  N14      1.0000 0.80130  0.92210  0.98975  Biso   1.000  N
  N15      1.0000 0.67090  0.02950  0.91076  Biso   1.000  N
  N16      1.0000 0.71383  0.97260  0.93970  Biso   1.000  N
  N17      1.0000 0.71111  0.25090  0.88680  Biso   1.000  N
  N18      1.0000 0.55365  0.53510  0.78639  Biso   1.000  N
  O9       1.0000 0.53910  0.95260  0.71670  Biso   1.000  O
  O10      1.0000 0.47870  0.83600  0.64520  Biso   1.000  O
  O11      1.0000 0.55032  0.15740  0.40780  Biso   1.000  O
  O12      1.0000 0.48660  0.12190  0.31280  Biso   1.000  O
  C53      1.0000 0.84377  0.88340  0.01101  Biso   1.000  C
  H31      1.0000 0.85600  0.77500  0.03850  Biso   1.000  H
  C54      1.0000 0.87000  0.00110  0.99297  Biso   1.000  C
  H32      1.0000 0.89970  0.97040  0.00910  Biso   1.000  H
  C55      1.0000 0.81144  0.19540  0.93163  Biso   1.000  C
  H33      1.0000 0.79940  0.30400  0.90410  Biso   1.000  H
  C56      1.0000 0.78442  0.07820  0.94903  Biso   1.000  C
  C57      1.0000 0.73656  0.10660  0.92460  Biso   1.000  C
  C58      1.0000 0.67078  0.19640  0.87994  Biso   1.000  C
  C59      1.0000 0.63003  0.31080  0.84493  Biso   1.000  C
  C60      1.0000 0.59130  0.25020  0.84564  Biso   1.000  C
  H34      1.0000 0.58990  0.13290  0.86540  Biso   1.000  H
  C61      1.0000 0.55443  0.36650  0.81646  Biso   1.000  C
  H35      1.0000 0.52860  0.32440  0.81790  Biso   1.000  H
  C62      1.0000 0.62967  0.48500  0.81346  Biso   1.000  C
  H36      1.0000 0.65510  0.52990  0.81120  Biso   1.000  H
  C63      1.0000 0.59140  0.59180  0.78542  Biso   1.000  C
  H37      1.0000 0.59180  0.70900  0.76480  Biso   1.000  H
  C64      1.0000 0.50720  0.95820  0.65800  Biso   1.000  C
  C65      1.0000 0.50200  0.10700  0.60300  Biso   1.000  C
  C66      1.0000 0.46550  0.10200  0.53530  Biso   1.000  C
  C67      1.0000 0.45880  0.24580  0.48480  Biso   1.000  C
  C68      1.0000 0.48770  0.39600  0.50310  Biso   1.000  C
  C69      1.0000 0.52360  0.40290  0.56980  Biso   1.000  C
  C70      1.0000 0.53170  0.25900  0.62170  Biso   1.000  C
  C71      1.0000 0.50600  0.90100  0.40800  Biso   1.000  C
  C72      1.0000 0.46780  0.79300  0.36740  Biso   1.000  C
  C73      1.0000 0.45970  0.62450  0.39420  Biso   1.000  C
  C74      1.0000 0.48800  0.56250  0.46310  Biso   1.000  C
  C75      1.0000 0.52480  0.67000  0.50520  Biso   1.000  C
  C76      1.0000 0.53430  0.83900  0.47880  Biso   1.000  C
  C77      1.0000 0.54958  0.57900  0.57850  Biso   1.000  C
  C78      1.0000 0.51560  0.07920  0.37700  Biso   1.000  C
  H38      1.0000 0.57950  0.55100  0.58750  Biso   1.000  H
  H39      1.0000 0.55690  0.26350  0.66860  Biso   1.000  H
  H40      1.0000 0.44500  0.99780  0.52290  Biso   1.000  H
  H41      1.0000 0.43390  0.24080  0.43750  Biso   1.000  H
  H42      1.0000 0.43410  0.55060  0.36450  Biso   1.000  H
  H43      1.0000 0.44740  0.83790  0.31990  Biso   1.000  H
  H44      1.0000 0.56000  0.91180  0.50870  Biso   1.000  H
  H45      1.0000 0.54980  0.65770  0.61710  Biso   1.000  H
  N19      1.0000 0.35446  0.65670  0.95344  Biso   1.000  N
  N20      1.0000 0.30130  0.42210  0.98975  Biso   1.000  N
  N21      1.0000 0.17090  0.52950  0.91076  Biso   1.000  N
  N22      1.0000 0.21383  0.47260  0.93970  Biso   1.000  N
  N23      1.0000 0.21111  0.75090  0.88680  Biso   1.000  N
  N24      1.0000 0.05365  0.03510  0.78639  Biso   1.000  N
  O13      1.0000 0.03910  0.45260  0.71670  Biso   1.000  O
  O14      1.0000 0.97870  0.33600  0.64520  Biso   1.000  O
  O15      1.0000 0.05032  0.65740  0.40780  Biso   1.000  O
  O16      1.0000 0.98660  0.62190  0.31280  Biso   1.000  O
  C79      1.0000 0.34377  0.38340  0.01101  Biso   1.000  C
  H46      1.0000 0.35600  0.27500  0.03850  Biso   1.000  H
  C80      1.0000 0.37000  0.50110  0.99297  Biso   1.000  C
  H47      1.0000 0.39970  0.47040  0.00910  Biso   1.000  H
  C81      1.0000 0.31144  0.69540  0.93163  Biso   1.000  C
  H48      1.0000 0.29940  0.80400  0.90410  Biso   1.000  H
  C82      1.0000 0.28442  0.57820  0.94903  Biso   1.000  C
  C83      1.0000 0.23656  0.60660  0.92460  Biso   1.000  C
  C84      1.0000 0.17078  0.69640  0.87994  Biso   1.000  C
  C85      1.0000 0.13003  0.81080  0.84493  Biso   1.000  C
  C86      1.0000 0.09130  0.75020  0.84564  Biso   1.000  C
  H49      1.0000 0.08990  0.63290  0.86540  Biso   1.000  H
  C87      1.0000 0.05443  0.86650  0.81646  Biso   1.000  C
  H50      1.0000 0.02860  0.82440  0.81790  Biso   1.000  H
  C88      1.0000 0.12967  0.98500  0.81346  Biso   1.000  C
  H51      1.0000 0.15510  0.02990  0.81120  Biso   1.000  H
  C89      1.0000 0.09140  0.09180  0.78542  Biso   1.000  C
  H52      1.0000 0.09180  0.20900  0.76480  Biso   1.000  H
  C90      1.0000 0.00720  0.45820  0.65800  Biso   1.000  C
  C91      1.0000 0.00200  0.60700  0.60300  Biso   1.000  C
  C92      1.0000 0.96550  0.60200  0.53530  Biso   1.000  C
  C93      1.0000 0.95880  0.74580  0.48480  Biso   1.000  C
  C94      1.0000 0.98770  0.89600  0.50310  Biso   1.000  C
  C95      1.0000 0.02360  0.90290  0.56980  Biso   1.000  C
  C96      1.0000 0.03170  0.75900  0.62170  Biso   1.000  C
  C97      1.0000 0.00600  0.40100  0.40800  Biso   1.000  C
  C98      1.0000 0.96780  0.29300  0.36740  Biso   1.000  C
  C99      1.0000 0.95970  0.12450  0.39420  Biso   1.000  C
  C100     1.0000 0.98800  0.06250  0.46310  Biso   1.000  C
  C101     1.0000 0.02480  0.17000  0.50520  Biso   1.000  C
  C102     1.0000 0.03430  0.33900  0.47880  Biso   1.000  C
  C103     1.0000 0.04958  0.07900  0.57850  Biso   1.000  C
  C104     1.0000 0.01560  0.57920  0.37700  Biso   1.000  C
  H53      1.0000 0.07950  0.05100  0.58750  Biso   1.000  H
  H54      1.0000 0.05690  0.76350  0.66860  Biso   1.000  H
  H55      1.0000 0.94500  0.49780  0.52290  Biso   1.000  H
  H56      1.0000 0.93390  0.74080  0.43750  Biso   1.000  H
  H57      1.0000 0.93410  0.05060  0.36450  Biso   1.000  H
  H58      1.0000 0.94740  0.33790  0.31990  Biso   1.000  H
  H59      1.0000 0.06000  0.41180  0.50870  Biso   1.000  H
  H60      1.0000 0.04980  0.15770  0.61710  Biso   1.000  H
  N25      1.0000 0.85446  0.84330  0.45344  Biso   1.000  N
  N26      1.0000 0.80130  0.07790  0.48975  Biso   1.000  N
  N27      1.0000 0.67090  0.97050  0.41076  Biso   1.000  N
  N28      1.0000 0.71383  0.02740  0.43970  Biso   1.000  N
  N29      1.0000 0.71111  0.74910  0.38680  Biso   1.000  N
  N30      1.0000 0.55365  0.46490  0.28639  Biso   1.000  N
  O17      1.0000 0.53910  0.04740  0.21670  Biso   1.000  O
  O18      1.0000 0.47870  0.16400  0.14520  Biso   1.000  O
  O19      1.0000 0.55032  0.84260  0.90780  Biso   1.000  O
  O20      1.0000 0.48660  0.87810  0.81280  Biso   1.000  O
  C105     1.0000 0.84377  0.11660  0.51101  Biso   1.000  C
  H61      1.0000 0.85600  0.22500  0.53850  Biso   1.000  H
  C106     1.0000 0.87000  0.99890  0.49297  Biso   1.000  C
  H62      1.0000 0.89970  0.02960  0.50910  Biso   1.000  H
  C107     1.0000 0.81144  0.80460  0.43163  Biso   1.000  C
  H63      1.0000 0.79940  0.69600  0.40410  Biso   1.000  H
  C108     1.0000 0.78442  0.92180  0.44903  Biso   1.000  C
  C109     1.0000 0.73656  0.89340  0.42460  Biso   1.000  C
  C110     1.0000 0.67078  0.80360  0.37994  Biso   1.000  C
  C111     1.0000 0.63003  0.68920  0.34493  Biso   1.000  C
  C112     1.0000 0.59130  0.74980  0.34564  Biso   1.000  C
  H64      1.0000 0.58990  0.86710  0.36540  Biso   1.000  H
  C113     1.0000 0.55443  0.63350  0.31646  Biso   1.000  C
  H65      1.0000 0.52860  0.67560  0.31790  Biso   1.000  H
  C114     1.0000 0.62967  0.51500  0.31346  Biso   1.000  C
  H66      1.0000 0.65510  0.47010  0.31120  Biso   1.000  H
  C115     1.0000 0.59140  0.40820  0.28542  Biso   1.000  C
  H67      1.0000 0.59180  0.29100  0.26480  Biso   1.000  H
  C116     1.0000 0.50720  0.04180  0.15800  Biso   1.000  C
  C117     1.0000 0.50200  0.89300  0.10300  Biso   1.000  C
  C118     1.0000 0.46550  0.89800  0.03530  Biso   1.000  C
  C119     1.0000 0.45880  0.75420  0.98480  Biso   1.000  C
  C120     1.0000 0.48770  0.60400  0.00310  Biso   1.000  C
  C121     1.0000 0.52360  0.59710  0.06980  Biso   1.000  C
  C122     1.0000 0.53170  0.74100  0.12170  Biso   1.000  C
  C123     1.0000 0.50600  0.09900  0.90800  Biso   1.000  C
  C124     1.0000 0.46780  0.20700  0.86740  Biso   1.000  C
  C125     1.0000 0.45970  0.37550  0.89420  Biso   1.000  C
  C126     1.0000 0.48800  0.43750  0.96310  Biso   1.000  C
  C127     1.0000 0.52480  0.33000  0.00520  Biso   1.000  C
  C128     1.0000 0.53430  0.16100  0.97880  Biso   1.000  C
  C129     1.0000 0.54958  0.42100  0.07850  Biso   1.000  C
  C130     1.0000 0.51560  0.92080  0.87700  Biso   1.000  C
  H68      1.0000 0.57950  0.44900  0.08750  Biso   1.000  H
  H69      1.0000 0.55690  0.73650  0.16860  Biso   1.000  H
  H70      1.0000 0.44500  0.00220  0.02290  Biso   1.000  H
  H71      1.0000 0.43390  0.75920  0.93750  Biso   1.000  H
  H72      1.0000 0.43410  0.44940  0.86450  Biso   1.000  H
  H73      1.0000 0.44740  0.16210  0.81990  Biso   1.000  H
  H74      1.0000 0.56000  0.08820  0.00870  Biso   1.000  H
  H75      1.0000 0.54980  0.34230  0.11710  Biso   1.000  H
  N31      1.0000 0.35446  0.34330  0.45344  Biso   1.000  N
  N32      1.0000 0.30130  0.57790  0.48975  Biso   1.000  N
  N33      1.0000 0.17090  0.47050  0.41076  Biso   1.000  N
  N34      1.0000 0.21383  0.52740  0.43970  Biso   1.000  N
  N35      1.0000 0.21111  0.24910  0.38680  Biso   1.000  N
  N36      1.0000 0.05365  0.96490  0.28639  Biso   1.000  N
  O21      1.0000 0.03910  0.54740  0.21670  Biso   1.000  O
  O22      1.0000 0.97870  0.66400  0.14520  Biso   1.000  O
  O23      1.0000 0.05032  0.34260  0.90780  Biso   1.000  O
  O24      1.0000 0.98660  0.37810  0.81280  Biso   1.000  O
  C131     1.0000 0.34377  0.61660  0.51101  Biso   1.000  C
  H76      1.0000 0.35600  0.72500  0.53850  Biso   1.000  H
  C132     1.0000 0.37000  0.49890  0.49297  Biso   1.000  C
  H77      1.0000 0.39970  0.52960  0.50910  Biso   1.000  H
  C133     1.0000 0.31144  0.30460  0.43163  Biso   1.000  C
  H78      1.0000 0.29940  0.19600  0.40410  Biso   1.000  H
  C134     1.0000 0.28442  0.42180  0.44903  Biso   1.000  C
  C135     1.0000 0.23656  0.39340  0.42460  Biso   1.000  C
  C136     1.0000 0.17078  0.30360  0.37994  Biso   1.000  C
  C137     1.0000 0.13003  0.18920  0.34493  Biso   1.000  C
  C138     1.0000 0.09130  0.24980  0.34564  Biso   1.000  C
  H79      1.0000 0.08990  0.36710  0.36540  Biso   1.000  H
  C139     1.0000 0.05443  0.13350  0.31646  Biso   1.000  C
  H80      1.0000 0.02860  0.17560  0.31790  Biso   1.000  H
  C140     1.0000 0.12967  0.01500  0.31346  Biso   1.000  C
  H81      1.0000 0.15510  0.97010  0.31120  Biso   1.000  H
  C141     1.0000 0.09140  0.90820  0.28542  Biso   1.000  C
  H82      1.0000 0.09180  0.79100  0.26480  Biso   1.000  H
  C142     1.0000 0.00720  0.54180  0.15800  Biso   1.000  C
  C143     1.0000 0.00200  0.39300  0.10300  Biso   1.000  C
  C144     1.0000 0.96550  0.39800  0.03530  Biso   1.000  C
  C145     1.0000 0.95880  0.25420  0.98480  Biso   1.000  C
  C146     1.0000 0.98770  0.10400  0.00310  Biso   1.000  C
  C147     1.0000 0.02360  0.09710  0.06980  Biso   1.000  C
  C148     1.0000 0.03170  0.24100  0.12170  Biso   1.000  C
  C149     1.0000 0.00600  0.59900  0.90800  Biso   1.000  C
  C150     1.0000 0.96780  0.70700  0.86740  Biso   1.000  C
  C151     1.0000 0.95970  0.87550  0.89420  Biso   1.000  C
  C152     1.0000 0.98800  0.93750  0.96310  Biso   1.000  C
  C153     1.0000 0.02480  0.83000  0.00520  Biso   1.000  C
  C154     1.0000 0.03430  0.66100  0.97880  Biso   1.000  C
  C155     1.0000 0.04958  0.92100  0.07850  Biso   1.000  C
  C156     1.0000 0.01560  0.42080  0.87700  Biso   1.000  C
  H83      1.0000 0.07950  0.94900  0.08750  Biso   1.000  H
  H84      1.0000 0.05690  0.23650  0.16860  Biso   1.000  H
  H85      1.0000 0.94500  0.50220  0.02290  Biso   1.000  H
  H86      1.0000 0.93390  0.25920  0.93750  Biso   1.000  H
  H87      1.0000 0.93410  0.94940  0.86450  Biso   1.000  H
  H88      1.0000 0.94740  0.66210  0.81990  Biso   1.000  H
  H89      1.0000 0.06000  0.58820  0.00870  Biso   1.000  H
  H90      1.0000 0.04980  0.84230  0.11710  Biso   1.000  H
  N37      1.0000 0.14554  0.84330  0.04656  Biso   1.000  N
  N38      1.0000 0.19870  0.07790  0.01025  Biso   1.000  N
  N39      1.0000 0.32910  0.97050  0.08924  Biso   1.000  N
  N40      1.0000 0.28617  0.02740  0.06030  Biso   1.000  N
  N41      1.0000 0.28889  0.74910  0.11320  Biso   1.000  N
  N42      1.0000 0.44635  0.46490  0.21361  Biso   1.000  N
  O25      1.0000 0.46090  0.04740  0.28330  Biso   1.000  O
  O26      1.0000 0.52130  0.16400  0.35480  Biso   1.000  O
  O27      1.0000 0.44968  0.84260  0.59220  Biso   1.000  O
  O28      1.0000 0.51340  0.87810  0.68720  Biso   1.000  O
  C157     1.0000 0.15623  0.11660  0.98899  Biso   1.000  C
  H91      1.0000 0.14400  0.22500  0.96150  Biso   1.000  H
  C158     1.0000 0.13000  0.99890  0.00703  Biso   1.000  C
  H92      1.0000 0.10030  0.02960  0.99090  Biso   1.000  H
  C159     1.0000 0.18856  0.80460  0.06837  Biso   1.000  C
  H93      1.0000 0.20060  0.69600  0.09590  Biso   1.000  H
  C160     1.0000 0.21558  0.92180  0.05097  Biso   1.000  C
  C161     1.0000 0.26344  0.89340  0.07540  Biso   1.000  C
  C162     1.0000 0.32922  0.80360  0.12006  Biso   1.000  C
  C163     1.0000 0.36997  0.68920  0.15507  Biso   1.000  C
  C164     1.0000 0.40870  0.74980  0.15436  Biso   1.000  C
  H94      1.0000 0.41010  0.86710  0.13460  Biso   1.000  H
  C165     1.0000 0.44557  0.63350  0.18354  Biso   1.000  C
  H95      1.0000 0.47140  0.67560  0.18210  Biso   1.000  H
  C166     1.0000 0.37033  0.51500  0.18654  Biso   1.000  C
  H96      1.0000 0.34490  0.47010  0.18880  Biso   1.000  H
  C167     1.0000 0.40860  0.40820  0.21458  Biso   1.000  C
  H97      1.0000 0.40820  0.29100  0.23520  Biso   1.000  H
  C168     1.0000 0.49280  0.04180  0.34200  Biso   1.000  C
  C169     1.0000 0.49800  0.89300  0.39700  Biso   1.000  C
  C170     1.0000 0.53450  0.89800  0.46470  Biso   1.000  C
  C171     1.0000 0.54120  0.75420  0.51520  Biso   1.000  C
  C172     1.0000 0.51230  0.60400  0.49690  Biso   1.000  C
  C173     1.0000 0.47640  0.59710  0.43020  Biso   1.000  C
  C174     1.0000 0.46830  0.74100  0.37830  Biso   1.000  C
  C175     1.0000 0.49400  0.09900  0.59200  Biso   1.000  C
  C176     1.0000 0.53220  0.20700  0.63260  Biso   1.000  C
  C177     1.0000 0.54030  0.37550  0.60580  Biso   1.000  C
  C178     1.0000 0.51200  0.43750  0.53690  Biso   1.000  C
  C179     1.0000 0.47520  0.33000  0.49480  Biso   1.000  C
  C180     1.0000 0.46570  0.16100  0.52120  Biso   1.000  C
  C181     1.0000 0.45042  0.42100  0.42150  Biso   1.000  C
  C182     1.0000 0.48440  0.92080  0.62300  Biso   1.000  C
  H98      1.0000 0.42050  0.44900  0.41250  Biso   1.000  H
  H99      1.0000 0.44310  0.73650  0.33140  Biso   1.000  H
  H100     1.0000 0.55500  0.00220  0.47710  Biso   1.000  H
  H101     1.0000 0.56610  0.75920  0.56250  Biso   1.000  H
  H102     1.0000 0.56590  0.44940  0.63550  Biso   1.000  H
  H103     1.0000 0.55260  0.16210  0.68010  Biso   1.000  H
  H104     1.0000 0.44000  0.08820  0.49130  Biso   1.000  H
  H105     1.0000 0.45020  0.34230  0.38290  Biso   1.000  H
  N43      1.0000 0.64554  0.34330  0.04656  Biso   1.000  N
  N44      1.0000 0.69870  0.57790  0.01025  Biso   1.000  N
  N45      1.0000 0.82910  0.47050  0.08924  Biso   1.000  N
  N46      1.0000 0.78617  0.52740  0.06030  Biso   1.000  N
  N47      1.0000 0.78889  0.24910  0.11320  Biso   1.000  N
  N48      1.0000 0.94635  0.96490  0.21361  Biso   1.000  N
  O29      1.0000 0.96090  0.54740  0.28330  Biso   1.000  O
  O30      1.0000 0.02130  0.66400  0.35480  Biso   1.000  O
  O31      1.0000 0.94968  0.34260  0.59220  Biso   1.000  O
  O32      1.0000 0.01340  0.37810  0.68720  Biso   1.000  O
  C183     1.0000 0.65623  0.61660  0.98899  Biso   1.000  C
  H106     1.0000 0.64400  0.72500  0.96150  Biso   1.000  H
  C184     1.0000 0.63000  0.49890  0.00703  Biso   1.000  C
  H107     1.0000 0.60030  0.52960  0.99090  Biso   1.000  H
  C185     1.0000 0.68856  0.30460  0.06837  Biso   1.000  C
  H108     1.0000 0.70060  0.19600  0.09590  Biso   1.000  H
  C186     1.0000 0.71558  0.42180  0.05097  Biso   1.000  C
  C187     1.0000 0.76344  0.39340  0.07540  Biso   1.000  C
  C188     1.0000 0.82922  0.30360  0.12006  Biso   1.000  C
  C189     1.0000 0.86997  0.18920  0.15507  Biso   1.000  C
  C190     1.0000 0.90870  0.24980  0.15436  Biso   1.000  C
  H109     1.0000 0.91010  0.36710  0.13460  Biso   1.000  H
  C191     1.0000 0.94557  0.13350  0.18354  Biso   1.000  C
  H110     1.0000 0.97140  0.17560  0.18210  Biso   1.000  H
  C192     1.0000 0.87033  0.01500  0.18654  Biso   1.000  C
  H111     1.0000 0.84490  0.97010  0.18880  Biso   1.000  H
  C193     1.0000 0.90860  0.90820  0.21458  Biso   1.000  C
  H112     1.0000 0.90820  0.79100  0.23520  Biso   1.000  H
  C194     1.0000 0.99280  0.54180  0.34200  Biso   1.000  C
  C195     1.0000 0.99800  0.39300  0.39700  Biso   1.000  C
  C196     1.0000 0.03450  0.39800  0.46470  Biso   1.000  C
  C197     1.0000 0.04120  0.25420  0.51520  Biso   1.000  C
  C198     1.0000 0.01230  0.10400  0.49690  Biso   1.000  C
  C199     1.0000 0.97640  0.09710  0.43020  Biso   1.000  C
  C200     1.0000 0.96830  0.24100  0.37830  Biso   1.000  C
  C201     1.0000 0.99400  0.59900  0.59200  Biso   1.000  C
  C202     1.0000 0.03220  0.70700  0.63260  Biso   1.000  C
  C203     1.0000 0.04030  0.87550  0.60580  Biso   1.000  C
  C204     1.0000 0.01200  0.93750  0.53690  Biso   1.000  C
  C205     1.0000 0.97520  0.83000  0.49480  Biso   1.000  C
  C206     1.0000 0.96570  0.66100  0.52120  Biso   1.000  C
  C207     1.0000 0.95042  0.92100  0.42150  Biso   1.000  C
  C208     1.0000 0.98440  0.42080  0.62300  Biso   1.000  C
  H113     1.0000 0.92050  0.94900  0.41250  Biso   1.000  H
  H114     1.0000 0.94310  0.23650  0.33140  Biso   1.000  H
  H115     1.0000 0.05500  0.50220  0.47710  Biso   1.000  H
  H116     1.0000 0.06610  0.25920  0.56250  Biso   1.000  H
  H117     1.0000 0.06590  0.94940  0.63550  Biso   1.000  H
  H118     1.0000 0.05260  0.66210  0.68010  Biso   1.000  H
  H119     1.0000 0.94000  0.58820  0.49130  Biso   1.000  H
  H120     1.0000 0.95020  0.84230  0.38290  Biso   1.000  H
  Zn1      1.0000 0.50000  0.71631  0.75000  Biso   1.000  Zn
  Zn2      1.0000 0.00000  0.21631  0.75000  Biso   1.000  Zn
  Zn3      1.0000 0.50000  0.28369  0.25000  Biso   1.000  Zn
  Zn4      1.0000 0.00000  0.78369  0.25000  Biso   1.000  Zn
  Zn5      1.0000 0.25000  0.75000  0.50000  Biso   1.000  Zn
  Zn6      1.0000 0.75000  0.75000  0.00000  Biso   1.000  Zn
  Zn7      1.0000 0.75000  0.25000  0.50000  Biso   1.000  Zn
  Zn8      1.0000 0.25000  0.25000  0.00000  Biso   1.000  Zn
