data_image0
_cell_length_a       10.3738
_cell_length_b       14.806
_cell_length_c       13.4494
_cell_angle_alpha    90
_cell_angle_beta     90.275
_cell_angle_gamma    90

_symmetry_space_group_name_H-M    "P 1"
_symmetry_int_tables_number       1

loop_
  _symmetry_equiv_pos_as_xyz
  'x, y, z'

loop_
  _atom_site_label
  _atom_site_occupancy
  _atom_site_fract_x
  _atom_site_fract_y
  _atom_site_fract_z
  _atom_site_thermal_displace_type
  _atom_site_B_iso_or_equiv
  _atom_site_type_symbol
  Al1      1.0000 0.76550  0.10530  0.34920  Biso   1.000  Al
  Al2      1.0000 0.77040  0.89940  0.61300  Biso   1.000  Al
  Al3      1.0000 0.49250  0.89590  0.27220  Biso   1.000  Al
  Al4      1.0000 0.99780  0.23200  0.61580  Biso   1.000  Al
  P1       1.0000 0.76730  0.89550  0.38020  Biso   1.000  P
  P2       1.0000 0.75920  0.10790  0.59730  Biso   1.000  P
  P3       1.0000 0.48580  0.10580  0.26470  Biso   1.000  P
  P4       1.0000 0.99950  0.23500  0.37840  Biso   1.000  P
  F1       1.0000 0.79090  0.09170  0.22040  Biso   1.000  F
  O1       1.0000 0.85620  0.17480  0.64310  Biso   1.000  O
  O2       1.0000 0.80370  0.01310  0.63110  Biso   1.000  O
  O3       1.0000 0.75250  0.11680  0.48690  Biso   1.000  O
  O4       1.0000 0.59540  0.12170  0.33650  Biso   1.000  O
  O5       1.0000 0.49780  0.16300  0.17130  Biso   1.000  O
  O6       1.0000 0.47870  0.00690  0.23130  Biso   1.000  O
  O7       1.0000 0.36020  0.13200  0.31630  Biso   1.000  O
  O8       1.0000 0.09850  0.16380  0.34750  Biso   1.000  O
  O9       1.0000 0.01080  0.25160  0.49010  Biso   1.000  O
  O10      1.0000 0.03010  0.32450  0.32750  Biso   1.000  O
  O11      1.0000 0.86590  0.20380  0.34860  Biso   1.000  O
  O12      1.0000 0.73750  0.87670  0.48970  Biso   1.000  O
  O13      1.0000 0.81770  0.99020  0.36600  Biso   1.000  O
  O14      1.0000 0.86900  0.82860  0.34370  Biso   1.000  O
  O15      1.0000 0.64430  0.87870  0.32060  Biso   1.000  O
  O16      1.0000 0.62640  0.12670  0.64170  Biso   1.000  O
  Al5      1.0000 0.73450  0.60530  0.15080  Biso   1.000  Al
  Al6      1.0000 0.72960  0.39940  0.88700  Biso   1.000  Al
  Al7      1.0000 0.00750  0.39590  0.22780  Biso   1.000  Al
  Al8      1.0000 0.50220  0.73200  0.88420  Biso   1.000  Al
  P5       1.0000 0.73270  0.39550  0.11980  Biso   1.000  P
  P6       1.0000 0.74080  0.60790  0.90270  Biso   1.000  P
  P7       1.0000 0.01420  0.60580  0.23530  Biso   1.000  P
  P8       1.0000 0.50050  0.73500  0.12160  Biso   1.000  P
  F2       1.0000 0.70910  0.59170  0.27960  Biso   1.000  F
  O17      1.0000 0.64380  0.67480  0.85690  Biso   1.000  O
  O18      1.0000 0.69630  0.51310  0.86890  Biso   1.000  O
  O19      1.0000 0.74750  0.61680  0.01310  Biso   1.000  O
  O20      1.0000 0.90460  0.62170  0.16350  Biso   1.000  O
  O21      1.0000 0.00220  0.66300  0.32870  Biso   1.000  O
  O22      1.0000 0.02130  0.50690  0.26870  Biso   1.000  O
  O23      1.0000 0.13980  0.63200  0.18370  Biso   1.000  O
  O24      1.0000 0.40150  0.66380  0.15250  Biso   1.000  O
  O25      1.0000 0.48920  0.75160  0.00990  Biso   1.000  O
  O26      1.0000 0.46990  0.82450  0.17250  Biso   1.000  O
  O27      1.0000 0.63410  0.70380  0.15140  Biso   1.000  O
  O28      1.0000 0.76250  0.37670  0.01030  Biso   1.000  O
  O29      1.0000 0.68230  0.49020  0.13400  Biso   1.000  O
  O30      1.0000 0.63100  0.32860  0.15630  Biso   1.000  O
  O31      1.0000 0.85570  0.37870  0.17940  Biso   1.000  O
  O32      1.0000 0.87360  0.62670  0.85830  Biso   1.000  O
  Al9      1.0000 0.23450  0.89470  0.65080  Biso   1.000  Al
  Al10     1.0000 0.22960  0.10060  0.38700  Biso   1.000  Al
  Al11     1.0000 0.50750  0.10410  0.72780  Biso   1.000  Al
  Al12     1.0000 0.00220  0.76800  0.38420  Biso   1.000  Al
  P9       1.0000 0.23270  0.10450  0.61980  Biso   1.000  P
  P10      1.0000 0.24080  0.89210  0.40270  Biso   1.000  P
  P11      1.0000 0.51420  0.89420  0.73530  Biso   1.000  P
  P12      1.0000 0.00050  0.76500  0.62160  Biso   1.000  P
  F3       1.0000 0.20910  0.90830  0.77960  Biso   1.000  F
  O33      1.0000 0.14380  0.82520  0.35690  Biso   1.000  O
  O34      1.0000 0.19630  0.98690  0.36890  Biso   1.000  O
  O35      1.0000 0.24750  0.88320  0.51310  Biso   1.000  O
  O36      1.0000 0.40460  0.87830  0.66350  Biso   1.000  O
  O37      1.0000 0.50220  0.83700  0.82870  Biso   1.000  O
  O38      1.0000 0.52130  0.99310  0.76870  Biso   1.000  O
  O39      1.0000 0.63980  0.86800  0.68370  Biso   1.000  O
  O40      1.0000 0.90150  0.83620  0.65250  Biso   1.000  O
  O41      1.0000 0.98920  0.74840  0.50990  Biso   1.000  O
  O42      1.0000 0.96990  0.67550  0.67250  Biso   1.000  O
  O43      1.0000 0.13410  0.79620  0.65140  Biso   1.000  O
  O44      1.0000 0.26250  0.12330  0.51030  Biso   1.000  O
  O45      1.0000 0.18230  0.00980  0.63400  Biso   1.000  O
  O46      1.0000 0.13100  0.17140  0.65630  Biso   1.000  O
  O47      1.0000 0.35570  0.12130  0.67940  Biso   1.000  O
  O48      1.0000 0.37360  0.87330  0.35830  Biso   1.000  O
  Al13     1.0000 0.26550  0.39470  0.84920  Biso   1.000  Al
  Al14     1.0000 0.27040  0.60060  0.11300  Biso   1.000  Al
  Al15     1.0000 0.99250  0.60410  0.77220  Biso   1.000  Al
  Al16     1.0000 0.49780  0.26800  0.11580  Biso   1.000  Al
  P13      1.0000 0.26730  0.60450  0.88020  Biso   1.000  P
  P14      1.0000 0.25920  0.39210  0.09730  Biso   1.000  P
  P15      1.0000 0.98580  0.39420  0.76470  Biso   1.000  P
  P16      1.0000 0.49950  0.26500  0.87840  Biso   1.000  P
  F4       1.0000 0.29090  0.40830  0.72040  Biso   1.000  F
  O49      1.0000 0.35620  0.32520  0.14310  Biso   1.000  O
  O50      1.0000 0.30370  0.48690  0.13110  Biso   1.000  O
  O51      1.0000 0.25250  0.38320  0.98690  Biso   1.000  O
  O52      1.0000 0.09540  0.37830  0.83650  Biso   1.000  O
  O53      1.0000 0.99780  0.33700  0.67130  Biso   1.000  O
  O54      1.0000 0.97870  0.49310  0.73130  Biso   1.000  O
  O55      1.0000 0.86020  0.36800  0.81630  Biso   1.000  O
  O56      1.0000 0.59850  0.33620  0.84750  Biso   1.000  O
  O57      1.0000 0.51080  0.24840  0.99010  Biso   1.000  O
  O58      1.0000 0.53010  0.17550  0.82750  Biso   1.000  O
  O59      1.0000 0.36590  0.29620  0.84860  Biso   1.000  O
  O60      1.0000 0.23750  0.62330  0.98970  Biso   1.000  O
  O61      1.0000 0.31770  0.50980  0.86600  Biso   1.000  O
  O62      1.0000 0.36900  0.67140  0.84370  Biso   1.000  O
  O63      1.0000 0.14430  0.62130  0.82060  Biso   1.000  O
  O64      1.0000 0.12640  0.37330  0.14170  Biso   1.000  O
