data_image0
_cell_length_a       20.0299
_cell_length_b       17.2261
_cell_length_c       15.8221
_cell_angle_alpha    90
_cell_angle_beta     125.919
_cell_angle_gamma    90

_symmetry_space_group_name_H-M    "P 1"
_symmetry_int_tables_number       1

loop_
  _symmetry_equiv_pos_as_xyz
  'x, y, z'

loop_
  _atom_site_label
  _atom_site_occupancy
  _atom_site_fract_x
  _atom_site_fract_y
  _atom_site_fract_z
  _atom_site_thermal_displace_type
  _atom_site_B_iso_or_equiv
  _atom_site_type_symbol
  N1       1.0000 0.43760  0.09700  0.59000  Biso   1.000  N
  C1       1.0000 0.36010  0.89090  0.55500  Biso   1.000  C
  H1       1.0000 0.31990  0.92680  0.50790  Biso   1.000  H
  C2       1.0000 0.33580  0.82840  0.58440  Biso   1.000  C
  H2       1.0000 0.28010  0.82240  0.55800  Biso   1.000  H
  C3       1.0000 0.39270  0.77460  0.65200  Biso   1.000  C
  C4       1.0000 0.46920  0.77060  0.66270  Biso   1.000  C
  H3       1.0000 0.50400  0.72700  0.68960  Biso   1.000  H
  C5       1.0000 0.48650  0.83650  0.62990  Biso   1.000  C
  H4       1.0000 0.53570  0.83680  0.63490  Biso   1.000  H
  C6       1.0000 0.39630  0.59510  0.78460  Biso   1.000  C
  H5       1.0000 0.43600  0.55950  0.83330  Biso   1.000  H
  C7       1.0000 0.42090  0.65510  0.75320  Biso   1.000  C
  H6       1.0000 0.47670  0.66020  0.77960  Biso   1.000  H
  C8       1.0000 0.36560  0.70710  0.68470  Biso   1.000  C
  C9       1.0000 0.28510  0.69680  0.64530  Biso   1.000  C
  H7       1.0000 0.24550  0.73290  0.59760  Biso   1.000  H
  C10      1.0000 0.26150  0.63390  0.67500  Biso   1.000  C
  H8       1.0000 0.20520  0.62500  0.64330  Biso   1.000  H
  N2       1.0000 0.31770  0.58490  0.74840  Biso   1.000  N
  C11      1.0000 0.22140  0.35000  0.82100  Biso   1.000  C
  N3       1.0000 0.26690  0.41430  0.88260  Biso   1.000  N
  C12      1.0000 0.19740  0.09060  0.02060  Biso   1.000  C
  C13      1.0000 0.20490  0.15430  0.97190  Biso   1.000  C
  C14      1.0000 0.21290  0.28740  0.86840  Biso   1.000  C
  H9       1.0000 0.17880  0.24590  0.82690  Biso   1.000  H
  H10      1.0000 0.32090  0.34700  0.10040  Biso   1.000  H
  C15      1.0000 0.25270  0.28420  0.97440  Biso   1.000  C
  H11      1.0000 0.19740  0.34950  0.74910  Biso   1.000  H
  H12      1.0000 0.33620  0.45100  0.02150  Biso   1.000  H
  C16      1.0000 0.39560  0.08220  0.63840  Biso   1.000  C
  H13      1.0000 0.38660  0.03130  0.65090  Biso   1.000  H
  C17      1.0000 0.36980  0.14410  0.66520  Biso   1.000  C
  H14      1.0000 0.33840  0.13710  0.69130  Biso   1.000  H
  C18      1.0000 0.44240  0.22670  0.62400  Biso   1.000  C
  H15      1.0000 0.46510  0.27470  0.62480  Biso   1.000  H
  C19      1.0000 0.46400  0.16030  0.59250  Biso   1.000  C
  H16      1.0000 0.49990  0.16590  0.57300  Biso   1.000  H
  C20      1.0000 0.34110  0.38570  0.97120  Biso   1.000  C
  H17      1.0000 0.39280  0.40810  0.99830  Biso   1.000  H
  C21      1.0000 0.33060  0.31960  0.01590  Biso   1.000  C
  H18      1.0000 0.37760  0.29790  0.07640  Biso   1.000  H
  C22      1.0000 0.18740  0.32840  0.90300  Biso   1.000  C
  H19      1.0000 0.13540  0.31840  0.88860  Biso   1.000  H
  C23      1.0000 0.19650  0.38940  0.85100  Biso   1.000  C
  H20      1.0000 0.14930  0.41190  0.79200  Biso   1.000  H
  N4       1.0000 0.93760  0.59700  0.59000  Biso   1.000  N
  C24      1.0000 0.86010  0.39090  0.55500  Biso   1.000  C
  H21      1.0000 0.81990  0.42680  0.50790  Biso   1.000  H
  C25      1.0000 0.83580  0.32840  0.58440  Biso   1.000  C
  H22      1.0000 0.78010  0.32240  0.55800  Biso   1.000  H
  C26      1.0000 0.89270  0.27460  0.65200  Biso   1.000  C
  C27      1.0000 0.96920  0.27060  0.66270  Biso   1.000  C
  H23      1.0000 0.00400  0.22700  0.68960  Biso   1.000  H
  C28      1.0000 0.98650  0.33650  0.62990  Biso   1.000  C
  H24      1.0000 0.03570  0.33680  0.63490  Biso   1.000  H
  C29      1.0000 0.89630  0.09510  0.78460  Biso   1.000  C
  H25      1.0000 0.93600  0.05950  0.83330  Biso   1.000  H
  C30      1.0000 0.92090  0.15510  0.75320  Biso   1.000  C
  H26      1.0000 0.97670  0.16020  0.77960  Biso   1.000  H
  C31      1.0000 0.86560  0.20710  0.68470  Biso   1.000  C
  C32      1.0000 0.78510  0.19680  0.64530  Biso   1.000  C
  H27      1.0000 0.74550  0.23290  0.59760  Biso   1.000  H
  C33      1.0000 0.76150  0.13390  0.67500  Biso   1.000  C
  H28      1.0000 0.70520  0.12500  0.64330  Biso   1.000  H
  N5       1.0000 0.81770  0.08490  0.74840  Biso   1.000  N
  C34      1.0000 0.72140  0.85000  0.82100  Biso   1.000  C
  N6       1.0000 0.76690  0.91430  0.88260  Biso   1.000  N
  C35      1.0000 0.69740  0.59060  0.02060  Biso   1.000  C
  C36      1.0000 0.70490  0.65430  0.97190  Biso   1.000  C
  C37      1.0000 0.71290  0.78740  0.86840  Biso   1.000  C
  H29      1.0000 0.67880  0.74590  0.82690  Biso   1.000  H
  H30      1.0000 0.82090  0.84700  0.10040  Biso   1.000  H
  C38      1.0000 0.75270  0.78420  0.97440  Biso   1.000  C
  H31      1.0000 0.69740  0.84950  0.74910  Biso   1.000  H
  H32      1.0000 0.83620  0.95100  0.02150  Biso   1.000  H
  C39      1.0000 0.89560  0.58220  0.63840  Biso   1.000  C
  H33      1.0000 0.88660  0.53130  0.65090  Biso   1.000  H
  C40      1.0000 0.86980  0.64410  0.66520  Biso   1.000  C
  H34      1.0000 0.83840  0.63710  0.69130  Biso   1.000  H
  C41      1.0000 0.94240  0.72670  0.62400  Biso   1.000  C
  H35      1.0000 0.96510  0.77470  0.62480  Biso   1.000  H
  C42      1.0000 0.96400  0.66030  0.59250  Biso   1.000  C
  H36      1.0000 0.99990  0.66590  0.57300  Biso   1.000  H
  C43      1.0000 0.84110  0.88570  0.97120  Biso   1.000  C
  H37      1.0000 0.89280  0.90810  0.99830  Biso   1.000  H
  C44      1.0000 0.83060  0.81960  0.01590  Biso   1.000  C
  H38      1.0000 0.87760  0.79790  0.07640  Biso   1.000  H
  C45      1.0000 0.68740  0.82840  0.90300  Biso   1.000  C
  H39      1.0000 0.63540  0.81840  0.88860  Biso   1.000  H
  C46      1.0000 0.69650  0.88940  0.85100  Biso   1.000  C
  H40      1.0000 0.64930  0.91190  0.79200  Biso   1.000  H
  N7       1.0000 0.56240  0.09700  0.41000  Biso   1.000  N
  C47      1.0000 0.63990  0.89090  0.44500  Biso   1.000  C
  H41      1.0000 0.68010  0.92680  0.49210  Biso   1.000  H
  C48      1.0000 0.66420  0.82840  0.41560  Biso   1.000  C
  H42      1.0000 0.71990  0.82240  0.44200  Biso   1.000  H
  C49      1.0000 0.60730  0.77460  0.34800  Biso   1.000  C
  C50      1.0000 0.53080  0.77060  0.33730  Biso   1.000  C
  H43      1.0000 0.49600  0.72700  0.31040  Biso   1.000  H
  C51      1.0000 0.51350  0.83650  0.37010  Biso   1.000  C
  H44      1.0000 0.46430  0.83680  0.36510  Biso   1.000  H
  C52      1.0000 0.60370  0.59510  0.21540  Biso   1.000  C
  H45      1.0000 0.56400  0.55950  0.16670  Biso   1.000  H
  C53      1.0000 0.57910  0.65510  0.24680  Biso   1.000  C
  H46      1.0000 0.52330  0.66020  0.22040  Biso   1.000  H
  C54      1.0000 0.63440  0.70710  0.31530  Biso   1.000  C
  C55      1.0000 0.71490  0.69680  0.35470  Biso   1.000  C
  H47      1.0000 0.75450  0.73290  0.40240  Biso   1.000  H
  C56      1.0000 0.73850  0.63390  0.32500  Biso   1.000  C
  H48      1.0000 0.79480  0.62500  0.35670  Biso   1.000  H
  N8       1.0000 0.68230  0.58490  0.25160  Biso   1.000  N
  C57      1.0000 0.77860  0.35000  0.17900  Biso   1.000  C
  N9       1.0000 0.73310  0.41430  0.11740  Biso   1.000  N
  C58      1.0000 0.80260  0.09060  0.97940  Biso   1.000  C
  C59      1.0000 0.79510  0.15430  0.02810  Biso   1.000  C
  C60      1.0000 0.78710  0.28740  0.13160  Biso   1.000  C
  H49      1.0000 0.82120  0.24590  0.17310  Biso   1.000  H
  H50      1.0000 0.67910  0.34700  0.89960  Biso   1.000  H
  C61      1.0000 0.74730  0.28420  0.02560  Biso   1.000  C
  H51      1.0000 0.80260  0.34950  0.25090  Biso   1.000  H
  H52      1.0000 0.66380  0.45100  0.97850  Biso   1.000  H
  C62      1.0000 0.60440  0.08220  0.36160  Biso   1.000  C
  H53      1.0000 0.61340  0.03130  0.34910  Biso   1.000  H
  C63      1.0000 0.63020  0.14410  0.33480  Biso   1.000  C
  H54      1.0000 0.66160  0.13710  0.30870  Biso   1.000  H
  C64      1.0000 0.55760  0.22670  0.37600  Biso   1.000  C
  H55      1.0000 0.53490  0.27470  0.37520  Biso   1.000  H
  C65      1.0000 0.53600  0.16030  0.40750  Biso   1.000  C
  H56      1.0000 0.50010  0.16590  0.42700  Biso   1.000  H
  C66      1.0000 0.65890  0.38570  0.02880  Biso   1.000  C
  H57      1.0000 0.60720  0.40810  0.00170  Biso   1.000  H
  C67      1.0000 0.66940  0.31960  0.98410  Biso   1.000  C
  H58      1.0000 0.62240  0.29790  0.92360  Biso   1.000  H
  C68      1.0000 0.81260  0.32840  0.09700  Biso   1.000  C
  H59      1.0000 0.86460  0.31840  0.11140  Biso   1.000  H
  C69      1.0000 0.80350  0.38940  0.14900  Biso   1.000  C
  H60      1.0000 0.85070  0.41190  0.20800  Biso   1.000  H
  N10      1.0000 0.06240  0.59700  0.41000  Biso   1.000  N
  C70      1.0000 0.13990  0.39090  0.44500  Biso   1.000  C
  H61      1.0000 0.18010  0.42680  0.49210  Biso   1.000  H
  C71      1.0000 0.16420  0.32840  0.41560  Biso   1.000  C
  H62      1.0000 0.21990  0.32240  0.44200  Biso   1.000  H
  C72      1.0000 0.10730  0.27460  0.34800  Biso   1.000  C
  C73      1.0000 0.03080  0.27060  0.33730  Biso   1.000  C
  H63      1.0000 0.99600  0.22700  0.31040  Biso   1.000  H
  C74      1.0000 0.01350  0.33650  0.37010  Biso   1.000  C
  H64      1.0000 0.96430  0.33680  0.36510  Biso   1.000  H
  C75      1.0000 0.10370  0.09510  0.21540  Biso   1.000  C
  H65      1.0000 0.06400  0.05950  0.16670  Biso   1.000  H
  C76      1.0000 0.07910  0.15510  0.24680  Biso   1.000  C
  H66      1.0000 0.02330  0.16020  0.22040  Biso   1.000  H
  C77      1.0000 0.13440  0.20710  0.31530  Biso   1.000  C
  C78      1.0000 0.21490  0.19680  0.35470  Biso   1.000  C
  H67      1.0000 0.25450  0.23290  0.40240  Biso   1.000  H
  C79      1.0000 0.23850  0.13390  0.32500  Biso   1.000  C
  H68      1.0000 0.29480  0.12500  0.35670  Biso   1.000  H
  N11      1.0000 0.18230  0.08490  0.25160  Biso   1.000  N
  C80      1.0000 0.27860  0.85000  0.17900  Biso   1.000  C
  N12      1.0000 0.23310  0.91430  0.11740  Biso   1.000  N
  C81      1.0000 0.30260  0.59060  0.97940  Biso   1.000  C
  C82      1.0000 0.29510  0.65430  0.02810  Biso   1.000  C
  C83      1.0000 0.28710  0.78740  0.13160  Biso   1.000  C
  H69      1.0000 0.32120  0.74590  0.17310  Biso   1.000  H
  H70      1.0000 0.17910  0.84700  0.89960  Biso   1.000  H
  C84      1.0000 0.24730  0.78420  0.02560  Biso   1.000  C
  H71      1.0000 0.30260  0.84950  0.25090  Biso   1.000  H
  H72      1.0000 0.16380  0.95100  0.97850  Biso   1.000  H
  C85      1.0000 0.10440  0.58220  0.36160  Biso   1.000  C
  H73      1.0000 0.11340  0.53130  0.34910  Biso   1.000  H
  C86      1.0000 0.13020  0.64410  0.33480  Biso   1.000  C
  H74      1.0000 0.16160  0.63710  0.30870  Biso   1.000  H
  C87      1.0000 0.05760  0.72670  0.37600  Biso   1.000  C
  H75      1.0000 0.03490  0.77470  0.37520  Biso   1.000  H
  C88      1.0000 0.03600  0.66030  0.40750  Biso   1.000  C
  H76      1.0000 0.00010  0.66590  0.42700  Biso   1.000  H
  C89      1.0000 0.15890  0.88570  0.02880  Biso   1.000  C
  H77      1.0000 0.10720  0.90810  0.00170  Biso   1.000  H
  C90      1.0000 0.16940  0.81960  0.98410  Biso   1.000  C
  H78      1.0000 0.12240  0.79790  0.92360  Biso   1.000  H
  C91      1.0000 0.31260  0.82840  0.09700  Biso   1.000  C
  H79      1.0000 0.36460  0.81840  0.11140  Biso   1.000  H
  C92      1.0000 0.30350  0.88940  0.14900  Biso   1.000  C
  H80      1.0000 0.35070  0.91190  0.20800  Biso   1.000  H
  N13      1.0000 0.56240  0.90300  0.41000  Biso   1.000  N
  C93      1.0000 0.63990  0.10910  0.44500  Biso   1.000  C
  H81      1.0000 0.68010  0.07320  0.49210  Biso   1.000  H
  C94      1.0000 0.66420  0.17160  0.41560  Biso   1.000  C
  H82      1.0000 0.71990  0.17760  0.44200  Biso   1.000  H
  C95      1.0000 0.60730  0.22540  0.34800  Biso   1.000  C
  C96      1.0000 0.53080  0.22940  0.33730  Biso   1.000  C
  H83      1.0000 0.49600  0.27300  0.31040  Biso   1.000  H
  C97      1.0000 0.51350  0.16350  0.37010  Biso   1.000  C
  H84      1.0000 0.46430  0.16320  0.36510  Biso   1.000  H
  C98      1.0000 0.60370  0.40490  0.21540  Biso   1.000  C
  H85      1.0000 0.56400  0.44050  0.16670  Biso   1.000  H
  C99      1.0000 0.57910  0.34490  0.24680  Biso   1.000  C
  H86      1.0000 0.52330  0.33980  0.22040  Biso   1.000  H
  C100     1.0000 0.63440  0.29290  0.31530  Biso   1.000  C
  C101     1.0000 0.71490  0.30320  0.35470  Biso   1.000  C
  H87      1.0000 0.75450  0.26710  0.40240  Biso   1.000  H
  C102     1.0000 0.73850  0.36610  0.32500  Biso   1.000  C
  H88      1.0000 0.79480  0.37500  0.35670  Biso   1.000  H
  N14      1.0000 0.68230  0.41510  0.25160  Biso   1.000  N
  C103     1.0000 0.77860  0.65000  0.17900  Biso   1.000  C
  N15      1.0000 0.73310  0.58570  0.11740  Biso   1.000  N
  C104     1.0000 0.80260  0.90940  0.97940  Biso   1.000  C
  C105     1.0000 0.79510  0.84570  0.02810  Biso   1.000  C
  C106     1.0000 0.78710  0.71260  0.13160  Biso   1.000  C
  H89      1.0000 0.82120  0.75410  0.17310  Biso   1.000  H
  H90      1.0000 0.67910  0.65300  0.89960  Biso   1.000  H
  C107     1.0000 0.74730  0.71580  0.02560  Biso   1.000  C
  H91      1.0000 0.80260  0.65050  0.25090  Biso   1.000  H
  H92      1.0000 0.66380  0.54900  0.97850  Biso   1.000  H
  C108     1.0000 0.60440  0.91780  0.36160  Biso   1.000  C
  H93      1.0000 0.61340  0.96870  0.34910  Biso   1.000  H
  C109     1.0000 0.63020  0.85590  0.33480  Biso   1.000  C
  H94      1.0000 0.66160  0.86290  0.30870  Biso   1.000  H
  C110     1.0000 0.55760  0.77330  0.37600  Biso   1.000  C
  H95      1.0000 0.53490  0.72530  0.37520  Biso   1.000  H
  C111     1.0000 0.53600  0.83970  0.40750  Biso   1.000  C
  H96      1.0000 0.50010  0.83410  0.42700  Biso   1.000  H
  C112     1.0000 0.65890  0.61430  0.02880  Biso   1.000  C
  H97      1.0000 0.60720  0.59190  0.00170  Biso   1.000  H
  C113     1.0000 0.66940  0.68040  0.98410  Biso   1.000  C
  H98      1.0000 0.62240  0.70210  0.92360  Biso   1.000  H
  C114     1.0000 0.81260  0.67160  0.09700  Biso   1.000  C
  H99      1.0000 0.86460  0.68160  0.11140  Biso   1.000  H
  C115     1.0000 0.80350  0.61060  0.14900  Biso   1.000  C
  H100     1.0000 0.85070  0.58810  0.20800  Biso   1.000  H
  N16      1.0000 0.06240  0.40300  0.41000  Biso   1.000  N
  C116     1.0000 0.13990  0.60910  0.44500  Biso   1.000  C
  H101     1.0000 0.18010  0.57320  0.49210  Biso   1.000  H
  C117     1.0000 0.16420  0.67160  0.41560  Biso   1.000  C
  H102     1.0000 0.21990  0.67760  0.44200  Biso   1.000  H
  C118     1.0000 0.10730  0.72540  0.34800  Biso   1.000  C
  C119     1.0000 0.03080  0.72940  0.33730  Biso   1.000  C
  H103     1.0000 0.99600  0.77300  0.31040  Biso   1.000  H
  C120     1.0000 0.01350  0.66350  0.37010  Biso   1.000  C
  H104     1.0000 0.96430  0.66320  0.36510  Biso   1.000  H
  C121     1.0000 0.10370  0.90490  0.21540  Biso   1.000  C
  H105     1.0000 0.06400  0.94050  0.16670  Biso   1.000  H
  C122     1.0000 0.07910  0.84490  0.24680  Biso   1.000  C
  H106     1.0000 0.02330  0.83980  0.22040  Biso   1.000  H
  C123     1.0000 0.13440  0.79290  0.31530  Biso   1.000  C
  C124     1.0000 0.21490  0.80320  0.35470  Biso   1.000  C
  H107     1.0000 0.25450  0.76710  0.40240  Biso   1.000  H
  C125     1.0000 0.23850  0.86610  0.32500  Biso   1.000  C
  H108     1.0000 0.29480  0.87500  0.35670  Biso   1.000  H
  N17      1.0000 0.18230  0.91510  0.25160  Biso   1.000  N
  C126     1.0000 0.27860  0.15000  0.17900  Biso   1.000  C
  N18      1.0000 0.23310  0.08570  0.11740  Biso   1.000  N
  C127     1.0000 0.30260  0.40940  0.97940  Biso   1.000  C
  C128     1.0000 0.29510  0.34570  0.02810  Biso   1.000  C
  C129     1.0000 0.28710  0.21260  0.13160  Biso   1.000  C
  H109     1.0000 0.32120  0.25410  0.17310  Biso   1.000  H
  H110     1.0000 0.17910  0.15300  0.89960  Biso   1.000  H
  C130     1.0000 0.24730  0.21580  0.02560  Biso   1.000  C
  H111     1.0000 0.30260  0.15050  0.25090  Biso   1.000  H
  H112     1.0000 0.16380  0.04900  0.97850  Biso   1.000  H
  C131     1.0000 0.10440  0.41780  0.36160  Biso   1.000  C
  H113     1.0000 0.11340  0.46870  0.34910  Biso   1.000  H
  C132     1.0000 0.13020  0.35590  0.33480  Biso   1.000  C
  H114     1.0000 0.16160  0.36290  0.30870  Biso   1.000  H
  C133     1.0000 0.05760  0.27330  0.37600  Biso   1.000  C
  H115     1.0000 0.03490  0.22530  0.37520  Biso   1.000  H
  C134     1.0000 0.03600  0.33970  0.40750  Biso   1.000  C
  H116     1.0000 0.00010  0.33410  0.42700  Biso   1.000  H
  C135     1.0000 0.15890  0.11430  0.02880  Biso   1.000  C
  H117     1.0000 0.10720  0.09190  0.00170  Biso   1.000  H
  C136     1.0000 0.16940  0.18040  0.98410  Biso   1.000  C
  H118     1.0000 0.12240  0.20210  0.92360  Biso   1.000  H
  C137     1.0000 0.31260  0.17160  0.09700  Biso   1.000  C
  H119     1.0000 0.36460  0.18160  0.11140  Biso   1.000  H
  C138     1.0000 0.30350  0.11060  0.14900  Biso   1.000  C
  H120     1.0000 0.35070  0.08810  0.20800  Biso   1.000  H
  N19      1.0000 0.43760  0.90300  0.59000  Biso   1.000  N
  C139     1.0000 0.36010  0.10910  0.55500  Biso   1.000  C
  H121     1.0000 0.31990  0.07320  0.50790  Biso   1.000  H
  C140     1.0000 0.33580  0.17160  0.58440  Biso   1.000  C
  H122     1.0000 0.28010  0.17760  0.55800  Biso   1.000  H
  C141     1.0000 0.39270  0.22540  0.65200  Biso   1.000  C
  C142     1.0000 0.46920  0.22940  0.66270  Biso   1.000  C
  H123     1.0000 0.50400  0.27300  0.68960  Biso   1.000  H
  C143     1.0000 0.48650  0.16350  0.62990  Biso   1.000  C
  H124     1.0000 0.53570  0.16320  0.63490  Biso   1.000  H
  C144     1.0000 0.39630  0.40490  0.78460  Biso   1.000  C
  H125     1.0000 0.43600  0.44050  0.83330  Biso   1.000  H
  C145     1.0000 0.42090  0.34490  0.75320  Biso   1.000  C
  H126     1.0000 0.47670  0.33980  0.77960  Biso   1.000  H
  C146     1.0000 0.36560  0.29290  0.68470  Biso   1.000  C
  C147     1.0000 0.28510  0.30320  0.64530  Biso   1.000  C
  H127     1.0000 0.24550  0.26710  0.59760  Biso   1.000  H
  C148     1.0000 0.26150  0.36610  0.67500  Biso   1.000  C
  H128     1.0000 0.20520  0.37500  0.64330  Biso   1.000  H
  N20      1.0000 0.31770  0.41510  0.74840  Biso   1.000  N
  C149     1.0000 0.22140  0.65000  0.82100  Biso   1.000  C
  N21      1.0000 0.26690  0.58570  0.88260  Biso   1.000  N
  C150     1.0000 0.19740  0.90940  0.02060  Biso   1.000  C
  C151     1.0000 0.20490  0.84570  0.97190  Biso   1.000  C
  C152     1.0000 0.21290  0.71260  0.86840  Biso   1.000  C
  H129     1.0000 0.17880  0.75410  0.82690  Biso   1.000  H
  H130     1.0000 0.32090  0.65300  0.10040  Biso   1.000  H
  C153     1.0000 0.25270  0.71580  0.97440  Biso   1.000  C
  H131     1.0000 0.19740  0.65050  0.74910  Biso   1.000  H
  H132     1.0000 0.33620  0.54900  0.02150  Biso   1.000  H
  C154     1.0000 0.39560  0.91780  0.63840  Biso   1.000  C
  H133     1.0000 0.38660  0.96870  0.65090  Biso   1.000  H
  C155     1.0000 0.36980  0.85590  0.66520  Biso   1.000  C
  H134     1.0000 0.33840  0.86290  0.69130  Biso   1.000  H
  C156     1.0000 0.44240  0.77330  0.62400  Biso   1.000  C
  H135     1.0000 0.46510  0.72530  0.62480  Biso   1.000  H
  C157     1.0000 0.46400  0.83970  0.59250  Biso   1.000  C
  H136     1.0000 0.49990  0.83410  0.57300  Biso   1.000  H
  C158     1.0000 0.34110  0.61430  0.97120  Biso   1.000  C
  H137     1.0000 0.39280  0.59190  0.99830  Biso   1.000  H
  C159     1.0000 0.33060  0.68040  0.01590  Biso   1.000  C
  H138     1.0000 0.37760  0.70210  0.07640  Biso   1.000  H
  C160     1.0000 0.18740  0.67160  0.90300  Biso   1.000  C
  H139     1.0000 0.13540  0.68160  0.88860  Biso   1.000  H
  C161     1.0000 0.19650  0.61060  0.85100  Biso   1.000  C
  H140     1.0000 0.14930  0.58810  0.79200  Biso   1.000  H
  N22      1.0000 0.93760  0.40300  0.59000  Biso   1.000  N
  C162     1.0000 0.86010  0.60910  0.55500  Biso   1.000  C
  H141     1.0000 0.81990  0.57320  0.50790  Biso   1.000  H
  C163     1.0000 0.83580  0.67160  0.58440  Biso   1.000  C
  H142     1.0000 0.78010  0.67760  0.55800  Biso   1.000  H
  C164     1.0000 0.89270  0.72540  0.65200  Biso   1.000  C
  C165     1.0000 0.96920  0.72940  0.66270  Biso   1.000  C
  H143     1.0000 0.00400  0.77300  0.68960  Biso   1.000  H
  C166     1.0000 0.98650  0.66350  0.62990  Biso   1.000  C
  H144     1.0000 0.03570  0.66320  0.63490  Biso   1.000  H
  C167     1.0000 0.89630  0.90490  0.78460  Biso   1.000  C
  H145     1.0000 0.93600  0.94050  0.83330  Biso   1.000  H
  C168     1.0000 0.92090  0.84490  0.75320  Biso   1.000  C
  H146     1.0000 0.97670  0.83980  0.77960  Biso   1.000  H
  C169     1.0000 0.86560  0.79290  0.68470  Biso   1.000  C
  C170     1.0000 0.78510  0.80320  0.64530  Biso   1.000  C
  H147     1.0000 0.74550  0.76710  0.59760  Biso   1.000  H
  C171     1.0000 0.76150  0.86610  0.67500  Biso   1.000  C
  H148     1.0000 0.70520  0.87500  0.64330  Biso   1.000  H
  N23      1.0000 0.81770  0.91510  0.74840  Biso   1.000  N
  C172     1.0000 0.72140  0.15000  0.82100  Biso   1.000  C
  N24      1.0000 0.76690  0.08570  0.88260  Biso   1.000  N
  C173     1.0000 0.69740  0.40940  0.02060  Biso   1.000  C
  C174     1.0000 0.70490  0.34570  0.97190  Biso   1.000  C
  C175     1.0000 0.71290  0.21260  0.86840  Biso   1.000  C
  H149     1.0000 0.67880  0.25410  0.82690  Biso   1.000  H
  H150     1.0000 0.82090  0.15300  0.10040  Biso   1.000  H
  C176     1.0000 0.75270  0.21580  0.97440  Biso   1.000  C
  H151     1.0000 0.69740  0.15050  0.74910  Biso   1.000  H
  H152     1.0000 0.83620  0.04900  0.02150  Biso   1.000  H
  C177     1.0000 0.89560  0.41780  0.63840  Biso   1.000  C
  H153     1.0000 0.88660  0.46870  0.65090  Biso   1.000  H
  C178     1.0000 0.86980  0.35590  0.66520  Biso   1.000  C
  H154     1.0000 0.83840  0.36290  0.69130  Biso   1.000  H
  C179     1.0000 0.94240  0.27330  0.62400  Biso   1.000  C
  H155     1.0000 0.96510  0.22530  0.62480  Biso   1.000  H
  C180     1.0000 0.96400  0.33970  0.59250  Biso   1.000  C
  H156     1.0000 0.99990  0.33410  0.57300  Biso   1.000  H
  C181     1.0000 0.84110  0.11430  0.97120  Biso   1.000  C
  H157     1.0000 0.89280  0.09190  0.99830  Biso   1.000  H
  C182     1.0000 0.83060  0.18040  0.01590  Biso   1.000  C
  H158     1.0000 0.87760  0.20210  0.07640  Biso   1.000  H
  C183     1.0000 0.68740  0.17160  0.90300  Biso   1.000  C
  H159     1.0000 0.63540  0.18160  0.88860  Biso   1.000  H
  C184     1.0000 0.69650  0.11060  0.85100  Biso   1.000  C
  H160     1.0000 0.64930  0.08810  0.79200  Biso   1.000  H
  Cu1      1.0000 0.47218  0.00000  0.55202  Biso   1.000  Cu
  Cl1      1.0000 0.62570  0.00000  0.64830  Biso   1.000  Cl
  Cu2      1.0000 0.97218  0.50000  0.55202  Biso   1.000  Cu
  Cl2      1.0000 0.12570  0.50000  0.64830  Biso   1.000  Cl
  Cu3      1.0000 0.52782  0.00000  0.44798  Biso   1.000  Cu
  Cl3      1.0000 0.37430  0.00000  0.35170  Biso   1.000  Cl
  Cu4      1.0000 0.02782  0.50000  0.44798  Biso   1.000  Cu
  Cl4      1.0000 0.87430  0.50000  0.35170  Biso   1.000  Cl
  Cu5      1.0000 0.28147  0.50000  0.80462  Biso   1.000  Cu
  Cu6      1.0000 0.78147  0.00000  0.80462  Biso   1.000  Cu
  Cu7      1.0000 0.71853  0.50000  0.19538  Biso   1.000  Cu
  Cu8      1.0000 0.21853  0.00000  0.19538  Biso   1.000  Cu
