data_image0
_cell_length_a       7.5238
_cell_length_b       21.9578
_cell_length_c       33.012
_cell_angle_alpha    90
_cell_angle_beta     95.252
_cell_angle_gamma    90

_symmetry_space_group_name_H-M    "P 1"
_symmetry_int_tables_number       1

loop_
  _symmetry_equiv_pos_as_xyz
  'x, y, z'

loop_
  _atom_site_label
  _atom_site_occupancy
  _atom_site_fract_x
  _atom_site_fract_y
  _atom_site_fract_z
  _atom_site_thermal_displace_type
  _atom_site_B_iso_or_equiv
  _atom_site_type_symbol
  Zn1      1.0000 0.75595  0.13912  0.33409  Biso   1.000  Zn
  Zn2      1.0000 0.20745  0.37941  0.16732  Biso   1.000  Zn
  O1       1.0000 0.89560  0.21286  0.34901  Biso   1.000  O
  O2       1.0000 0.06910  0.15358  0.38894  Biso   1.000  O
  O3       1.0000 0.67540  0.60656  0.21713  Biso   1.000  O
  O4       1.0000 0.67510  0.51051  0.19774  Biso   1.000  O
  O5       1.0000 0.06930  0.30635  0.15162  Biso   1.000  O
  O6       1.0000 0.88590  0.37006  0.11732  Biso   1.000  O
  O7       1.0000 0.36180  0.91211  0.28150  Biso   1.000  O
  O8       1.0000 0.32310  0.00762  0.29948  Biso   1.000  O
  S1       1.0000 0.40092  0.11779  0.09063  Biso   1.000  S
  S2       1.0000 0.58466  0.39732  0.40332  Biso   1.000  S
  S3       1.0000 0.48328  0.48135  0.39104  Biso   1.000  S
  S4       1.0000 0.52181  0.03801  0.10655  Biso   1.000  S
  N1       1.0000 0.54000  0.45284  0.31188  Biso   1.000  N
  N2       1.0000 0.44850  0.28975  0.40775  Biso   1.000  N
  N3       1.0000 0.67820  0.09317  0.38209  Biso   1.000  N
  N4       1.0000 0.52180  0.18659  0.31616  Biso   1.000  N
  N5       1.0000 0.44240  0.33194  0.18572  Biso   1.000  N
  N6       1.0000 0.29150  0.42591  0.12024  Biso   1.000  N
  N7       1.0000 0.50660  0.96736  0.16830  Biso   1.000  N
  N8       1.0000 0.73240  0.16075  0.11882  Biso   1.000  N
  C1       1.0000 0.03280  0.20329  0.37343  Biso   1.000  C
  C2       1.0000 0.15510  0.25608  0.38274  Biso   1.000  C
  C3       1.0000 0.32360  0.24668  0.40164  Biso   1.000  C
  H1       1.0000 0.35250  0.20760  0.41080  Biso   1.000  H
  C4       1.0000 0.11160  0.31550  0.37175  Biso   1.000  C
  H2       1.0000 0.99810  0.32450  0.35970  Biso   1.000  H
  C5       1.0000 0.23480  0.36077  0.37850  Biso   1.000  C
  H3       1.0000 0.20610  0.40090  0.37170  Biso   1.000  H
  C6       1.0000 0.40130  0.34585  0.39555  Biso   1.000  C
  C7       1.0000 0.52760  0.49707  0.33998  Biso   1.000  C
  C8       1.0000 0.54210  0.55606  0.33187  Biso   1.000  C
  H4       1.0000 0.52510  0.58510  0.35170  Biso   1.000  H
  C9       1.0000 0.58150  0.57306  0.29475  Biso   1.000  C
  H5       1.0000 0.59390  0.61430  0.28940  Biso   1.000  H
  C10      1.0000 0.60410  0.53208  0.26448  Biso   1.000  C
  C11      1.0000 0.57930  0.47121  0.27394  Biso   1.000  C
  H6       1.0000 0.58960  0.44190  0.25390  Biso   1.000  H
  C12      1.0000 0.65470  0.54962  0.22292  Biso   1.000  C
  C13      1.0000 0.65110  0.12750  0.41486  Biso   1.000  C
  H7       1.0000 0.67220  0.16920  0.41350  Biso   1.000  H
  C14      1.0000 0.59510  0.10460  0.44955  Biso   1.000  C
  H8       1.0000 0.57600  0.13060  0.47100  Biso   1.000  H
  C15      1.0000 0.56600  0.04330  0.45334  Biso   1.000  C
  C16      1.0000 0.59590  0.00750  0.42023  Biso   1.000  C
  H9       1.0000 0.57940  0.96560  0.42160  Biso   1.000  H
  C17      1.0000 0.64990  0.03312  0.38509  Biso   1.000  C
  H10      1.0000 0.66700  0.00810  0.36300  Biso   1.000  H
  C18      1.0000 0.50130  0.02860  0.49420  Biso   1.000  C
  H11      1.0000 0.46420  0.05940  0.51080  Biso   1.000  H
  C19      1.0000 0.37230  0.15522  0.30587  Biso   1.000  C
  H12      1.0000 0.37190  0.11380  0.31160  Biso   1.000  H
  C20      1.0000 0.21930  0.18068  0.28729  Biso   1.000  C
  H13      1.0000 0.11940  0.15660  0.28050  Biso   1.000  H
  C21      1.0000 0.21460  0.24271  0.27873  Biso   1.000  C
  C22      1.0000 0.36720  0.27593  0.29100  Biso   1.000  C
  H14      1.0000 0.36920  0.31780  0.28690  Biso   1.000  H
  C23      1.0000 0.51610  0.24673  0.30928  Biso   1.000  C
  H15      1.0000 0.61690  0.26980  0.31720  Biso   1.000  H
  C24      1.0000 0.05950  0.27264  0.25685  Biso   1.000  C
  H16      1.0000 0.07220  0.31350  0.25030  Biso   1.000  H
  C25      1.0000 0.90410  0.24715  0.24555  Biso   1.000  C
  H17      1.0000 0.89140  0.20630  0.25230  Biso   1.000  H
  C26      1.0000 0.74980  0.27653  0.22355  Biso   1.000  C
  C27      1.0000 0.59620  0.24383  0.21204  Biso   1.000  C
  H18      1.0000 0.59460  0.20210  0.21670  Biso   1.000  H
  C28      1.0000 0.44610  0.27171  0.19381  Biso   1.000  C
  H19      1.0000 0.34440  0.24850  0.18690  Biso   1.000  H
  C29      1.0000 0.59340  0.36300  0.19440  Biso   1.000  C
  H20      1.0000 0.59480  0.40400  0.18730  Biso   1.000  H
  C30      1.0000 0.74650  0.33818  0.21311  Biso   1.000  C
  H21      1.0000 0.84750  0.36220  0.21880  Biso   1.000  H
  C31      1.0000 0.30380  0.39469  0.08552  Biso   1.000  C
  H22      1.0000 0.26680  0.35430  0.08440  Biso   1.000  H
  C32      1.0000 0.36820  0.41959  0.05187  Biso   1.000  C
  H23      1.0000 0.37800  0.39590  0.02880  Biso   1.000  H
  C33      1.0000 0.41940  0.48088  0.05227  Biso   1.000  C
  C34      1.0000 0.40350  0.51262  0.08785  Biso   1.000  C
  H24      1.0000 0.43480  0.55360  0.08950  Biso   1.000  H
  C35      1.0000 0.34210  0.48441  0.12072  Biso   1.000  C
  H25      1.0000 0.33510  0.50680  0.14440  Biso   1.000  H
  C36      1.0000 0.48300  0.51258  0.01732  Biso   1.000  C
  H26      1.0000 0.50080  0.55440  0.01980  Biso   1.000  H
  C37      1.0000 0.36150  0.96908  0.27508  Biso   1.000  C
  C38      1.0000 0.40760  0.98980  0.23390  Biso   1.000  C
  C39      1.0000 0.38560  0.04960  0.22196  Biso   1.000  C
  H27      1.0000 0.34690  0.07810  0.24010  Biso   1.000  H
  C40      1.0000 0.42010  0.06780  0.18351  Biso   1.000  C
  H28      1.0000 0.40520  0.10820  0.17540  Biso   1.000  H
  C41      1.0000 0.47650  0.02519  0.15788  Biso   1.000  C
  C42      1.0000 0.47030  0.95084  0.20585  Biso   1.000  C
  H29      1.0000 0.48880  0.91040  0.21340  Biso   1.000  H
  C43      1.0000 0.56710  0.17530  0.10139  Biso   1.000  C
  C44      1.0000 0.51700  0.23096  0.09216  Biso   1.000  C
  H30      1.0000 0.40230  0.23890  0.08030  Biso   1.000  H
  C45      1.0000 0.63310  0.27620  0.09997  Biso   1.000  C
  H31      1.0000 0.59870  0.31570  0.09270  Biso   1.000  H
  C46      1.0000 0.80400  0.26653  0.11866  Biso   1.000  C
  C47      1.0000 0.85040  0.20704  0.12721  Biso   1.000  C
  H32      1.0000 0.96460  0.19830  0.13900  Biso   1.000  H
  C48      1.0000 0.92780  0.31832  0.12963  Biso   1.000  C
  C49      1.0000 0.52970  0.99000  0.48360  Biso   1.000  C
  H33      1.0000 0.54890  0.94900  0.47830  Biso   1.000  H
  Zn3      1.0000 0.74405  0.63912  0.16591  Biso   1.000  Zn
  Zn4      1.0000 0.29255  0.87941  0.33268  Biso   1.000  Zn
  O9       1.0000 0.60440  0.71286  0.15099  Biso   1.000  O
  O10      1.0000 0.43090  0.65358  0.11106  Biso   1.000  O
  O11      1.0000 0.82460  0.10656  0.28287  Biso   1.000  O
  O12      1.0000 0.82490  0.01051  0.30226  Biso   1.000  O
  O13      1.0000 0.43070  0.80635  0.34838  Biso   1.000  O
  O14      1.0000 0.61410  0.87006  0.38268  Biso   1.000  O
  O15      1.0000 0.13820  0.41211  0.21850  Biso   1.000  O
  O16      1.0000 0.17690  0.50762  0.20052  Biso   1.000  O
  S5       1.0000 0.09908  0.61779  0.40937  Biso   1.000  S
  S6       1.0000 0.91534  0.89732  0.09668  Biso   1.000  S
  S7       1.0000 0.01672  0.98135  0.10896  Biso   1.000  S
  S8       1.0000 0.97819  0.53801  0.39345  Biso   1.000  S
  N9       1.0000 0.96000  0.95284  0.18812  Biso   1.000  N
  N10      1.0000 0.05150  0.78975  0.09225  Biso   1.000  N
  N11      1.0000 0.82180  0.59317  0.11791  Biso   1.000  N
  N12      1.0000 0.97820  0.68659  0.18384  Biso   1.000  N
  N13      1.0000 0.05760  0.83194  0.31428  Biso   1.000  N
  N14      1.0000 0.20850  0.92591  0.37976  Biso   1.000  N
  N15      1.0000 0.99340  0.46736  0.33170  Biso   1.000  N
  N16      1.0000 0.76760  0.66075  0.38118  Biso   1.000  N
  C50      1.0000 0.46720  0.70329  0.12657  Biso   1.000  C
  C51      1.0000 0.34490  0.75608  0.11726  Biso   1.000  C
  C52      1.0000 0.17640  0.74668  0.09836  Biso   1.000  C
  H34      1.0000 0.14750  0.70760  0.08920  Biso   1.000  H
  C53      1.0000 0.38840  0.81550  0.12825  Biso   1.000  C
  H35      1.0000 0.50190  0.82450  0.14030  Biso   1.000  H
  C54      1.0000 0.26520  0.86077  0.12150  Biso   1.000  C
  H36      1.0000 0.29390  0.90090  0.12830  Biso   1.000  H
  C55      1.0000 0.09870  0.84585  0.10445  Biso   1.000  C
  C56      1.0000 0.97240  0.99707  0.16002  Biso   1.000  C
  C57      1.0000 0.95790  0.05606  0.16813  Biso   1.000  C
  H37      1.0000 0.97490  0.08510  0.14830  Biso   1.000  H
  C58      1.0000 0.91850  0.07306  0.20525  Biso   1.000  C
  H38      1.0000 0.90610  0.11430  0.21060  Biso   1.000  H
  C59      1.0000 0.89590  0.03208  0.23552  Biso   1.000  C
  C60      1.0000 0.92070  0.97121  0.22606  Biso   1.000  C
  H39      1.0000 0.91040  0.94190  0.24610  Biso   1.000  H
  C61      1.0000 0.84530  0.04962  0.27708  Biso   1.000  C
  C62      1.0000 0.84890  0.62750  0.08514  Biso   1.000  C
  H40      1.0000 0.82780  0.66920  0.08650  Biso   1.000  H
  C63      1.0000 0.90490  0.60460  0.05045  Biso   1.000  C
  H41      1.0000 0.92400  0.63060  0.02900  Biso   1.000  H
  C64      1.0000 0.93400  0.54330  0.04666  Biso   1.000  C
  C65      1.0000 0.90410  0.50750  0.07977  Biso   1.000  C
  H42      1.0000 0.92060  0.46560  0.07840  Biso   1.000  H
  C66      1.0000 0.85010  0.53312  0.11491  Biso   1.000  C
  H43      1.0000 0.83300  0.50810  0.13700  Biso   1.000  H
  C67      1.0000 0.99870  0.52860  0.00580  Biso   1.000  C
  H44      1.0000 0.03580  0.55940  0.98920  Biso   1.000  H
  C68      1.0000 0.12770  0.65522  0.19413  Biso   1.000  C
  H45      1.0000 0.12810  0.61380  0.18840  Biso   1.000  H
  C69      1.0000 0.28070  0.68068  0.21271  Biso   1.000  C
  H46      1.0000 0.38060  0.65660  0.21950  Biso   1.000  H
  C70      1.0000 0.28540  0.74271  0.22127  Biso   1.000  C
  C71      1.0000 0.13280  0.77593  0.20900  Biso   1.000  C
  H47      1.0000 0.13080  0.81780  0.21310  Biso   1.000  H
  C72      1.0000 0.98390  0.74673  0.19072  Biso   1.000  C
  H48      1.0000 0.88310  0.76980  0.18280  Biso   1.000  H
  C73      1.0000 0.44050  0.77264  0.24315  Biso   1.000  C
  H49      1.0000 0.42780  0.81350  0.24970  Biso   1.000  H
  C74      1.0000 0.59590  0.74715  0.25445  Biso   1.000  C
  H50      1.0000 0.60860  0.70630  0.24770  Biso   1.000  H
  C75      1.0000 0.75020  0.77653  0.27645  Biso   1.000  C
  C76      1.0000 0.90380  0.74383  0.28796  Biso   1.000  C
  H51      1.0000 0.90540  0.70210  0.28330  Biso   1.000  H
  C77      1.0000 0.05390  0.77171  0.30619  Biso   1.000  C
  H52      1.0000 0.15560  0.74850  0.31310  Biso   1.000  H
  C78      1.0000 0.90660  0.86300  0.30560  Biso   1.000  C
  H53      1.0000 0.90520  0.90400  0.31270  Biso   1.000  H
  C79      1.0000 0.75350  0.83818  0.28689  Biso   1.000  C
  H54      1.0000 0.65250  0.86220  0.28120  Biso   1.000  H
  C80      1.0000 0.19620  0.89469  0.41448  Biso   1.000  C
  H55      1.0000 0.23320  0.85430  0.41560  Biso   1.000  H
  C81      1.0000 0.13180  0.91959  0.44813  Biso   1.000  C
  H56      1.0000 0.12200  0.89590  0.47120  Biso   1.000  H
  C82      1.0000 0.08060  0.98088  0.44773  Biso   1.000  C
  C83      1.0000 0.09650  0.01262  0.41215  Biso   1.000  C
  H57      1.0000 0.06520  0.05360  0.41050  Biso   1.000  H
  C84      1.0000 0.15790  0.98441  0.37928  Biso   1.000  C
  H58      1.0000 0.16490  0.00680  0.35560  Biso   1.000  H
  C85      1.0000 0.01700  0.01258  0.48268  Biso   1.000  C
  H59      1.0000 0.99920  0.05440  0.48020  Biso   1.000  H
  C86      1.0000 0.13850  0.46908  0.22492  Biso   1.000  C
  C87      1.0000 0.09240  0.48980  0.26610  Biso   1.000  C
  C88      1.0000 0.11440  0.54960  0.27804  Biso   1.000  C
  H60      1.0000 0.15310  0.57810  0.25990  Biso   1.000  H
  C89      1.0000 0.07990  0.56780  0.31649  Biso   1.000  C
  H61      1.0000 0.09480  0.60820  0.32460  Biso   1.000  H
  C90      1.0000 0.02350  0.52519  0.34212  Biso   1.000  C
  C91      1.0000 0.02970  0.45084  0.29415  Biso   1.000  C
  H62      1.0000 0.01120  0.41040  0.28660  Biso   1.000  H
  C92      1.0000 0.93290  0.67530  0.39861  Biso   1.000  C
  C93      1.0000 0.98300  0.73096  0.40784  Biso   1.000  C
  H63      1.0000 0.09770  0.73890  0.41970  Biso   1.000  H
  C94      1.0000 0.86690  0.77620  0.40003  Biso   1.000  C
  H64      1.0000 0.90130  0.81570  0.40730  Biso   1.000  H
  C95      1.0000 0.69600  0.76653  0.38134  Biso   1.000  C
  C96      1.0000 0.64960  0.70704  0.37279  Biso   1.000  C
  H65      1.0000 0.53540  0.69830  0.36100  Biso   1.000  H
  C97      1.0000 0.57220  0.81832  0.37037  Biso   1.000  C
  C98      1.0000 0.97030  0.49000  0.01640  Biso   1.000  C
  H66      1.0000 0.95110  0.44900  0.02170  Biso   1.000  H
  Zn5      1.0000 0.24405  0.86088  0.66591  Biso   1.000  Zn
  Zn6      1.0000 0.79255  0.62059  0.83268  Biso   1.000  Zn
  O17      1.0000 0.10440  0.78714  0.65099  Biso   1.000  O
  O18      1.0000 0.93090  0.84642  0.61106  Biso   1.000  O
  O19      1.0000 0.32460  0.39344  0.78287  Biso   1.000  O
  O20      1.0000 0.32490  0.48949  0.80226  Biso   1.000  O
  O21      1.0000 0.93070  0.69365  0.84838  Biso   1.000  O
  O22      1.0000 0.11410  0.62994  0.88268  Biso   1.000  O
  O23      1.0000 0.63820  0.08789  0.71850  Biso   1.000  O
  O24      1.0000 0.67690  0.99238  0.70052  Biso   1.000  O
  S9       1.0000 0.59908  0.88221  0.90937  Biso   1.000  S
  S10      1.0000 0.41534  0.60268  0.59668  Biso   1.000  S
  S11      1.0000 0.51672  0.51865  0.60896  Biso   1.000  S
  S12      1.0000 0.47819  0.96199  0.89345  Biso   1.000  S
  N17      1.0000 0.46000  0.54716  0.68812  Biso   1.000  N
  N18      1.0000 0.55150  0.71025  0.59225  Biso   1.000  N
  N19      1.0000 0.32180  0.90683  0.61791  Biso   1.000  N
  N20      1.0000 0.47820  0.81341  0.68384  Biso   1.000  N
  N21      1.0000 0.55760  0.66806  0.81428  Biso   1.000  N
  N22      1.0000 0.70850  0.57409  0.87976  Biso   1.000  N
  N23      1.0000 0.49340  0.03264  0.83170  Biso   1.000  N
  N24      1.0000 0.26760  0.83925  0.88118  Biso   1.000  N
  C99      1.0000 0.96720  0.79671  0.62657  Biso   1.000  C
  C100     1.0000 0.84490  0.74392  0.61726  Biso   1.000  C
  C101     1.0000 0.67640  0.75332  0.59836  Biso   1.000  C
  H67      1.0000 0.64750  0.79240  0.58920  Biso   1.000  H
  C102     1.0000 0.88840  0.68450  0.62825  Biso   1.000  C
  H68      1.0000 0.00190  0.67550  0.64030  Biso   1.000  H
  C103     1.0000 0.76520  0.63923  0.62150  Biso   1.000  C
  H69      1.0000 0.79390  0.59910  0.62830  Biso   1.000  H
  C104     1.0000 0.59870  0.65415  0.60445  Biso   1.000  C
  C105     1.0000 0.47240  0.50293  0.66002  Biso   1.000  C
  C106     1.0000 0.45790  0.44394  0.66813  Biso   1.000  C
  H70      1.0000 0.47490  0.41490  0.64830  Biso   1.000  H
  C107     1.0000 0.41850  0.42694  0.70525  Biso   1.000  C
  H71      1.0000 0.40610  0.38570  0.71060  Biso   1.000  H
  C108     1.0000 0.39590  0.46792  0.73552  Biso   1.000  C
  C109     1.0000 0.42070  0.52879  0.72606  Biso   1.000  C
  H72      1.0000 0.41040  0.55810  0.74610  Biso   1.000  H
  C110     1.0000 0.34530  0.45038  0.77708  Biso   1.000  C
  C111     1.0000 0.34890  0.87250  0.58514  Biso   1.000  C
  H73      1.0000 0.32780  0.83080  0.58650  Biso   1.000  H
  C112     1.0000 0.40490  0.89540  0.55045  Biso   1.000  C
  H74      1.0000 0.42400  0.86940  0.52900  Biso   1.000  H
  C113     1.0000 0.43400  0.95670  0.54666  Biso   1.000  C
  C114     1.0000 0.40410  0.99250  0.57977  Biso   1.000  C
  H75      1.0000 0.42060  0.03440  0.57840  Biso   1.000  H
  C115     1.0000 0.35010  0.96688  0.61491  Biso   1.000  C
  H76      1.0000 0.33300  0.99190  0.63700  Biso   1.000  H
  C116     1.0000 0.49870  0.97140  0.50580  Biso   1.000  C
  H77      1.0000 0.53580  0.94060  0.48920  Biso   1.000  H
  C117     1.0000 0.62770  0.84478  0.69413  Biso   1.000  C
  H78      1.0000 0.62810  0.88620  0.68840  Biso   1.000  H
  C118     1.0000 0.78070  0.81932  0.71271  Biso   1.000  C
  H79      1.0000 0.88060  0.84340  0.71950  Biso   1.000  H
  C119     1.0000 0.78540  0.75729  0.72127  Biso   1.000  C
  C120     1.0000 0.63280  0.72407  0.70900  Biso   1.000  C
  H80      1.0000 0.63080  0.68220  0.71310  Biso   1.000  H
  C121     1.0000 0.48390  0.75327  0.69072  Biso   1.000  C
  H81      1.0000 0.38310  0.73020  0.68280  Biso   1.000  H
  C122     1.0000 0.94050  0.72736  0.74315  Biso   1.000  C
  H82      1.0000 0.92780  0.68650  0.74970  Biso   1.000  H
  C123     1.0000 0.09590  0.75285  0.75445  Biso   1.000  C
  H83      1.0000 0.10860  0.79370  0.74770  Biso   1.000  H
  C124     1.0000 0.25020  0.72347  0.77645  Biso   1.000  C
  C125     1.0000 0.40380  0.75617  0.78796  Biso   1.000  C
  H84      1.0000 0.40540  0.79790  0.78330  Biso   1.000  H
  C126     1.0000 0.55390  0.72829  0.80619  Biso   1.000  C
  H85      1.0000 0.65560  0.75150  0.81310  Biso   1.000  H
  C127     1.0000 0.40660  0.63700  0.80560  Biso   1.000  C
  H86      1.0000 0.40520  0.59600  0.81270  Biso   1.000  H
  C128     1.0000 0.25350  0.66182  0.78689  Biso   1.000  C
  H87      1.0000 0.15250  0.63780  0.78120  Biso   1.000  H
  C129     1.0000 0.69620  0.60531  0.91448  Biso   1.000  C
  H88      1.0000 0.73320  0.64570  0.91560  Biso   1.000  H
  C130     1.0000 0.63180  0.58041  0.94813  Biso   1.000  C
  H89      1.0000 0.62200  0.60410  0.97120  Biso   1.000  H
  C131     1.0000 0.58060  0.51912  0.94773  Biso   1.000  C
  C132     1.0000 0.59650  0.48738  0.91215  Biso   1.000  C
  H90      1.0000 0.56520  0.44640  0.91050  Biso   1.000  H
  C133     1.0000 0.65790  0.51559  0.87928  Biso   1.000  C
  H91      1.0000 0.66490  0.49320  0.85560  Biso   1.000  H
  C134     1.0000 0.51700  0.48742  0.98268  Biso   1.000  C
  H92      1.0000 0.49920  0.44560  0.98020  Biso   1.000  H
  C135     1.0000 0.63850  0.03092  0.72492  Biso   1.000  C
  C136     1.0000 0.59240  0.01020  0.76610  Biso   1.000  C
  C137     1.0000 0.61440  0.95040  0.77804  Biso   1.000  C
  H93      1.0000 0.65310  0.92190  0.75990  Biso   1.000  H
  C138     1.0000 0.57990  0.93220  0.81649  Biso   1.000  C
  H94      1.0000 0.59480  0.89180  0.82460  Biso   1.000  H
  C139     1.0000 0.52350  0.97481  0.84212  Biso   1.000  C
  C140     1.0000 0.52970  0.04916  0.79415  Biso   1.000  C
  H95      1.0000 0.51120  0.08960  0.78660  Biso   1.000  H
  C141     1.0000 0.43290  0.82470  0.89861  Biso   1.000  C
  C142     1.0000 0.48300  0.76904  0.90784  Biso   1.000  C
  H96      1.0000 0.59770  0.76110  0.91970  Biso   1.000  H
  C143     1.0000 0.36690  0.72380  0.90003  Biso   1.000  C
  H97      1.0000 0.40130  0.68430  0.90730  Biso   1.000  H
  C144     1.0000 0.19600  0.73347  0.88134  Biso   1.000  C
  C145     1.0000 0.14960  0.79296  0.87279  Biso   1.000  C
  H98      1.0000 0.03540  0.80170  0.86100  Biso   1.000  H
  C146     1.0000 0.07220  0.68168  0.87037  Biso   1.000  C
  C147     1.0000 0.47030  0.01000  0.51640  Biso   1.000  C
  H99      1.0000 0.45110  0.05100  0.52170  Biso   1.000  H
  Zn7      1.0000 0.25595  0.36088  0.83409  Biso   1.000  Zn
  Zn8      1.0000 0.70745  0.12059  0.66732  Biso   1.000  Zn
  O25      1.0000 0.39560  0.28714  0.84901  Biso   1.000  O
  O26      1.0000 0.56910  0.34642  0.88894  Biso   1.000  O
  O27      1.0000 0.17540  0.89344  0.71713  Biso   1.000  O
  O28      1.0000 0.17510  0.98949  0.69774  Biso   1.000  O
  O29      1.0000 0.56930  0.19365  0.65162  Biso   1.000  O
  O30      1.0000 0.38590  0.12994  0.61732  Biso   1.000  O
  O31      1.0000 0.86180  0.58789  0.78150  Biso   1.000  O
  O32      1.0000 0.82310  0.49238  0.79948  Biso   1.000  O
  S13      1.0000 0.90092  0.38221  0.59063  Biso   1.000  S
  S14      1.0000 0.08466  0.10268  0.90332  Biso   1.000  S
  S15      1.0000 0.98328  0.01865  0.89104  Biso   1.000  S
  S16      1.0000 0.02181  0.46199  0.60655  Biso   1.000  S
  N25      1.0000 0.04000  0.04716  0.81188  Biso   1.000  N
  N26      1.0000 0.94850  0.21025  0.90775  Biso   1.000  N
  N27      1.0000 0.17820  0.40683  0.88209  Biso   1.000  N
  N28      1.0000 0.02180  0.31341  0.81616  Biso   1.000  N
  N29      1.0000 0.94240  0.16806  0.68572  Biso   1.000  N
  N30      1.0000 0.79150  0.07409  0.62024  Biso   1.000  N
  N31      1.0000 0.00660  0.53264  0.66830  Biso   1.000  N
  N32      1.0000 0.23240  0.33925  0.61882  Biso   1.000  N
  C148     1.0000 0.53280  0.29671  0.87343  Biso   1.000  C
  C149     1.0000 0.65510  0.24392  0.88274  Biso   1.000  C
  C150     1.0000 0.82360  0.25332  0.90164  Biso   1.000  C
  H100     1.0000 0.85250  0.29240  0.91080  Biso   1.000  H
  C151     1.0000 0.61160  0.18450  0.87175  Biso   1.000  C
  H101     1.0000 0.49810  0.17550  0.85970  Biso   1.000  H
  C152     1.0000 0.73480  0.13923  0.87850  Biso   1.000  C
  H102     1.0000 0.70610  0.09910  0.87170  Biso   1.000  H
  C153     1.0000 0.90130  0.15415  0.89555  Biso   1.000  C
  C154     1.0000 0.02760  0.00293  0.83998  Biso   1.000  C
  C155     1.0000 0.04210  0.94394  0.83187  Biso   1.000  C
  H103     1.0000 0.02510  0.91490  0.85170  Biso   1.000  H
  C156     1.0000 0.08150  0.92694  0.79475  Biso   1.000  C
  H104     1.0000 0.09390  0.88570  0.78940  Biso   1.000  H
  C157     1.0000 0.10410  0.96792  0.76448  Biso   1.000  C
  C158     1.0000 0.07930  0.02879  0.77394  Biso   1.000  C
  H105     1.0000 0.08960  0.05810  0.75390  Biso   1.000  H
  C159     1.0000 0.15470  0.95038  0.72292  Biso   1.000  C
  C160     1.0000 0.15110  0.37250  0.91486  Biso   1.000  C
  H106     1.0000 0.17220  0.33080  0.91350  Biso   1.000  H
  C161     1.0000 0.09510  0.39540  0.94955  Biso   1.000  C
  H107     1.0000 0.07600  0.36940  0.97100  Biso   1.000  H
  C162     1.0000 0.06600  0.45670  0.95334  Biso   1.000  C
  C163     1.0000 0.09590  0.49250  0.92023  Biso   1.000  C
  H108     1.0000 0.07940  0.53440  0.92160  Biso   1.000  H
  C164     1.0000 0.14990  0.46688  0.88509  Biso   1.000  C
  H109     1.0000 0.16700  0.49190  0.86300  Biso   1.000  H
  C165     1.0000 0.00130  0.47140  0.99420  Biso   1.000  C
  H110     1.0000 0.96420  0.44060  0.01080  Biso   1.000  H
  C166     1.0000 0.87230  0.34478  0.80587  Biso   1.000  C
  H111     1.0000 0.87190  0.38620  0.81160  Biso   1.000  H
  C167     1.0000 0.71930  0.31932  0.78729  Biso   1.000  C
  H112     1.0000 0.61940  0.34340  0.78050  Biso   1.000  H
  C168     1.0000 0.71460  0.25729  0.77873  Biso   1.000  C
  C169     1.0000 0.86720  0.22407  0.79100  Biso   1.000  C
  H113     1.0000 0.86920  0.18220  0.78690  Biso   1.000  H
  C170     1.0000 0.01610  0.25327  0.80928  Biso   1.000  C
  H114     1.0000 0.11690  0.23020  0.81720  Biso   1.000  H
  C171     1.0000 0.55950  0.22736  0.75685  Biso   1.000  C
  H115     1.0000 0.57220  0.18650  0.75030  Biso   1.000  H
  C172     1.0000 0.40410  0.25285  0.74555  Biso   1.000  C
  H116     1.0000 0.39140  0.29370  0.75230  Biso   1.000  H
  C173     1.0000 0.24980  0.22347  0.72355  Biso   1.000  C
  C174     1.0000 0.09620  0.25617  0.71204  Biso   1.000  C
  H117     1.0000 0.09460  0.29790  0.71670  Biso   1.000  H
  C175     1.0000 0.94610  0.22829  0.69381  Biso   1.000  C
  H118     1.0000 0.84440  0.25150  0.68690  Biso   1.000  H
  C176     1.0000 0.09340  0.13700  0.69440  Biso   1.000  C
  H119     1.0000 0.09480  0.09600  0.68730  Biso   1.000  H
  C177     1.0000 0.24650  0.16182  0.71311  Biso   1.000  C
  H120     1.0000 0.34750  0.13780  0.71880  Biso   1.000  H
  C178     1.0000 0.80380  0.10531  0.58552  Biso   1.000  C
  H121     1.0000 0.76680  0.14570  0.58440  Biso   1.000  H
  C179     1.0000 0.86820  0.08041  0.55187  Biso   1.000  C
  H122     1.0000 0.87800  0.10410  0.52880  Biso   1.000  H
  C180     1.0000 0.91940  0.01912  0.55227  Biso   1.000  C
  C181     1.0000 0.90350  0.98738  0.58785  Biso   1.000  C
  H123     1.0000 0.93480  0.94640  0.58950  Biso   1.000  H
  C182     1.0000 0.84210  0.01559  0.62072  Biso   1.000  C
  H124     1.0000 0.83510  0.99320  0.64440  Biso   1.000  H
  C183     1.0000 0.98300  0.98742  0.51732  Biso   1.000  C
  H125     1.0000 0.00080  0.94560  0.51980  Biso   1.000  H
  C184     1.0000 0.86150  0.53092  0.77508  Biso   1.000  C
  C185     1.0000 0.90760  0.51020  0.73390  Biso   1.000  C
  C186     1.0000 0.88560  0.45040  0.72196  Biso   1.000  C
  H126     1.0000 0.84690  0.42190  0.74010  Biso   1.000  H
  C187     1.0000 0.92010  0.43220  0.68351  Biso   1.000  C
  H127     1.0000 0.90520  0.39180  0.67540  Biso   1.000  H
  C188     1.0000 0.97650  0.47481  0.65788  Biso   1.000  C
  C189     1.0000 0.97030  0.54916  0.70585  Biso   1.000  C
  H128     1.0000 0.98880  0.58960  0.71340  Biso   1.000  H
  C190     1.0000 0.06710  0.32470  0.60139  Biso   1.000  C
  C191     1.0000 0.01700  0.26904  0.59216  Biso   1.000  C
  H129     1.0000 0.90230  0.26110  0.58030  Biso   1.000  H
  C192     1.0000 0.13310  0.22380  0.59997  Biso   1.000  C
  H130     1.0000 0.09870  0.18430  0.59270  Biso   1.000  H
  C193     1.0000 0.30400  0.23347  0.61866  Biso   1.000  C
  C194     1.0000 0.35040  0.29296  0.62721  Biso   1.000  C
  H131     1.0000 0.46460  0.30170  0.63900  Biso   1.000  H
  C195     1.0000 0.42780  0.18168  0.62963  Biso   1.000  C
  C196     1.0000 0.02970  0.51000  0.98360  Biso   1.000  C
  H132     1.0000 0.04890  0.55100  0.97830  Biso   1.000  H
