data_image0
_cell_length_a       16.202
_cell_length_b       22.691
_cell_length_c       16.772
_cell_angle_alpha    90
_cell_angle_beta     114.511
_cell_angle_gamma    90

_symmetry_space_group_name_H-M    "P 1"
_symmetry_int_tables_number       1

loop_
  _symmetry_equiv_pos_as_xyz
  'x, y, z'

loop_
  _atom_site_label
  _atom_site_occupancy
  _atom_site_fract_x
  _atom_site_fract_y
  _atom_site_fract_z
  _atom_site_thermal_displace_type
  _atom_site_B_iso_or_equiv
  _atom_site_type_symbol
  Cd1      1.0000 0.77929  0.76515  0.62372  Biso   1.000  Cd
  S1       1.0000 0.67786  0.97633  0.07891  Biso   1.000  S
  S2       1.0000 0.64445  0.00623  0.95691  Biso   1.000  S
  O1       1.0000 0.70810  0.83130  0.67160  Biso   1.000  O
  O2       1.0000 0.81140  0.79040  0.79190  Biso   1.000  O
  O3       1.0000 0.40110  0.79760  0.15860  Biso   1.000  O
  O4       1.0000 0.32990  0.79180  0.01610  Biso   1.000  O
  N1       1.0000 0.87270  0.84240  0.61890  Biso   1.000  N
  N2       1.0000 0.18950  0.18760  0.62590  Biso   1.000  N
  N3       1.0000 0.73550  0.90860  0.94620  Biso   1.000  N
  N4       1.0000 0.52260  0.91020  0.99460  Biso   1.000  N
  C1       1.0000 0.59800  0.90720  0.14820  Biso   1.000  C
  H1       1.0000 0.64590  0.91930  0.19950  Biso   1.000  H
  C2       1.0000 0.74890  0.82720  0.75030  Biso   1.000  C
  C3       1.0000 0.39270  0.81080  0.08230  Biso   1.000  C
  C4       1.0000 0.72710  0.87130  0.81000  Biso   1.000  C
  C5       1.0000 0.67470  0.92020  0.77290  Biso   1.000  C
  H2       1.0000 0.65340  0.92660  0.71290  Biso   1.000  H
  C6       1.0000 0.65400  0.95900  0.82320  Biso   1.000  C
  H3       1.0000 0.61840  0.99150  0.79650  Biso   1.000  H
  C7       1.0000 0.68050  0.95290  0.90250  Biso   1.000  C
  C8       1.0000 0.75850  0.86870  0.89820  Biso   1.000  C
  H4       1.0000 0.79770  0.83820  0.92760  Biso   1.000  H
  C9       1.0000 0.46330  0.85110  0.07690  Biso   1.000  C
  C10      1.0000 0.45780  0.87170  0.99940  Biso   1.000  C
  H5       1.0000 0.40970  0.85990  0.94800  Biso   1.000  H
  C11      1.0000 0.59010  0.92690  0.07100  Biso   1.000  C
  C12      1.0000 0.53640  0.86970  0.15110  Biso   1.000  C
  H6       1.0000 0.54270  0.85540  0.20530  Biso   1.000  H
  C13      1.0000 0.83850  0.89570  0.60070  Biso   1.000  C
  H7       1.0000 0.77660  0.90040  0.58480  Biso   1.000  H
  C14      1.0000 0.88940  0.94510  0.60380  Biso   1.000  C
  H8       1.0000 0.86250  0.98210  0.59190  Biso   1.000  H
  C15      1.0000 0.97930  0.93870  0.62460  Biso   1.000  C
  C16      1.0000 0.01350  0.88280  0.64220  Biso   1.000  C
  H9       1.0000 0.07490  0.87650  0.65700  Biso   1.000  H
  C17      1.0000 0.95960  0.83670  0.63820  Biso   1.000  C
  H10      1.0000 0.98500  0.79920  0.64970  Biso   1.000  H
  C18      1.0000 0.04350  0.99180  0.64690  Biso   1.000  C
  H11      1.0000 0.10030  0.99050  0.69370  Biso   1.000  H
  C19      1.0000 0.07730  0.09260  0.61890  Biso   1.000  C
  C20      1.0000 0.03680  0.14510  0.57500  Biso   1.000  C
  H12      1.0000 0.97440  0.14830  0.54260  Biso   1.000  H
  C21      1.0000 0.22410  0.13800  0.66620  Biso   1.000  C
  H13      1.0000 0.28680  0.13560  0.69650  Biso   1.000  H
  C22      1.0000 0.09590  0.19240  0.58290  Biso   1.000  C
  H14      1.0000 0.07110  0.22850  0.55820  Biso   1.000  H
  C23      1.0000 0.17250  0.08850  0.66650  Biso   1.000  C
  H15      1.0000 0.19970  0.05430  0.69670  Biso   1.000  H
  C24      1.0000 0.01470  0.04160  0.59580  Biso   1.000  C
  H16      1.0000 0.95810  0.04320  0.54870  Biso   1.000  H
  C25      1.0000 0.53390  0.48690  0.61000  Biso   1.000  C
  C26      1.0000 0.71960  0.63100  0.62690  Biso   1.000  C
  C27      1.0000 0.66320  0.58320  0.62340  Biso   1.000  C
  C28      1.0000 0.55040  0.64940  0.61810  Biso   1.000  C
  C29      1.0000 0.60760  0.69730  0.62210  Biso   1.000  C
  C30      1.0000 0.52060  0.54300  0.63300  Biso   1.000  C
  H17      1.0000 0.57550  0.47930  0.58620  Biso   1.000  H
  H18      1.0000 0.77740  0.62420  0.62990  Biso   1.000  H
  H19      1.0000 0.68390  0.54490  0.62420  Biso   1.000  H
  H20      1.0000 0.49260  0.65700  0.61480  Biso   1.000  H
  H21      1.0000 0.58760  0.73570  0.62200  Biso   1.000  H
  H22      1.0000 0.47870  0.55060  0.65640  Biso   1.000  H
  Cd2      1.0000 0.27929  0.26515  0.62372  Biso   1.000  Cd
  S3       1.0000 0.17786  0.47633  0.07891  Biso   1.000  S
  S4       1.0000 0.14445  0.50623  0.95691  Biso   1.000  S
  O5       1.0000 0.20810  0.33130  0.67160  Biso   1.000  O
  O6       1.0000 0.31140  0.29040  0.79190  Biso   1.000  O
  O7       1.0000 0.90110  0.29760  0.15860  Biso   1.000  O
  O8       1.0000 0.82990  0.29180  0.01610  Biso   1.000  O
  N5       1.0000 0.37270  0.34240  0.61890  Biso   1.000  N
  N6       1.0000 0.68950  0.68760  0.62590  Biso   1.000  N
  N7       1.0000 0.23550  0.40860  0.94620  Biso   1.000  N
  N8       1.0000 0.02260  0.41020  0.99460  Biso   1.000  N
  C31      1.0000 0.09800  0.40720  0.14820  Biso   1.000  C
  H23      1.0000 0.14590  0.41930  0.19950  Biso   1.000  H
  C32      1.0000 0.24890  0.32720  0.75030  Biso   1.000  C
  C33      1.0000 0.89270  0.31080  0.08230  Biso   1.000  C
  C34      1.0000 0.22710  0.37130  0.81000  Biso   1.000  C
  C35      1.0000 0.17470  0.42020  0.77290  Biso   1.000  C
  H24      1.0000 0.15340  0.42660  0.71290  Biso   1.000  H
  C36      1.0000 0.15400  0.45900  0.82320  Biso   1.000  C
  H25      1.0000 0.11840  0.49150  0.79650  Biso   1.000  H
  C37      1.0000 0.18050  0.45290  0.90250  Biso   1.000  C
  C38      1.0000 0.25850  0.36870  0.89820  Biso   1.000  C
  H26      1.0000 0.29770  0.33820  0.92760  Biso   1.000  H
  C39      1.0000 0.96330  0.35110  0.07690  Biso   1.000  C
  C40      1.0000 0.95780  0.37170  0.99940  Biso   1.000  C
  H27      1.0000 0.90970  0.35990  0.94800  Biso   1.000  H
  C41      1.0000 0.09010  0.42690  0.07100  Biso   1.000  C
  C42      1.0000 0.03640  0.36970  0.15110  Biso   1.000  C
  H28      1.0000 0.04270  0.35540  0.20530  Biso   1.000  H
  C43      1.0000 0.33850  0.39570  0.60070  Biso   1.000  C
  H29      1.0000 0.27660  0.40040  0.58480  Biso   1.000  H
  C44      1.0000 0.38940  0.44510  0.60380  Biso   1.000  C
  H30      1.0000 0.36250  0.48210  0.59190  Biso   1.000  H
  C45      1.0000 0.47930  0.43870  0.62460  Biso   1.000  C
  C46      1.0000 0.51350  0.38280  0.64220  Biso   1.000  C
  H31      1.0000 0.57490  0.37650  0.65700  Biso   1.000  H
  C47      1.0000 0.45960  0.33670  0.63820  Biso   1.000  C
  H32      1.0000 0.48500  0.29920  0.64970  Biso   1.000  H
  C48      1.0000 0.54350  0.49180  0.64690  Biso   1.000  C
  H33      1.0000 0.60030  0.49050  0.69370  Biso   1.000  H
  C49      1.0000 0.57730  0.59260  0.61890  Biso   1.000  C
  C50      1.0000 0.53680  0.64510  0.57500  Biso   1.000  C
  H34      1.0000 0.47440  0.64830  0.54260  Biso   1.000  H
  C51      1.0000 0.72410  0.63800  0.66620  Biso   1.000  C
  H35      1.0000 0.78680  0.63560  0.69650  Biso   1.000  H
  C52      1.0000 0.59590  0.69240  0.58290  Biso   1.000  C
  H36      1.0000 0.57110  0.72850  0.55820  Biso   1.000  H
  C53      1.0000 0.67250  0.58850  0.66650  Biso   1.000  C
  H37      1.0000 0.69970  0.55430  0.69670  Biso   1.000  H
  C54      1.0000 0.51470  0.54160  0.59580  Biso   1.000  C
  H38      1.0000 0.45810  0.54320  0.54870  Biso   1.000  H
  C55      1.0000 0.03390  0.98690  0.61000  Biso   1.000  C
  C56      1.0000 0.21960  0.13100  0.62690  Biso   1.000  C
  C57      1.0000 0.16320  0.08320  0.62340  Biso   1.000  C
  C58      1.0000 0.05040  0.14940  0.61810  Biso   1.000  C
  C59      1.0000 0.10760  0.19730  0.62210  Biso   1.000  C
  C60      1.0000 0.02060  0.04300  0.63300  Biso   1.000  C
  H39      1.0000 0.07550  0.97930  0.58620  Biso   1.000  H
  H40      1.0000 0.27740  0.12420  0.62990  Biso   1.000  H
  H41      1.0000 0.18390  0.04490  0.62420  Biso   1.000  H
  H42      1.0000 0.99260  0.15700  0.61480  Biso   1.000  H
  H43      1.0000 0.08760  0.23570  0.62200  Biso   1.000  H
  H44      1.0000 0.97870  0.05060  0.65640  Biso   1.000  H
  Cd3      1.0000 0.22071  0.76515  0.87628  Biso   1.000  Cd
  S5       1.0000 0.32214  0.97633  0.42109  Biso   1.000  S
  S6       1.0000 0.35555  0.00623  0.54309  Biso   1.000  S
  O9       1.0000 0.29190  0.83130  0.82840  Biso   1.000  O
  O10      1.0000 0.18860  0.79040  0.70810  Biso   1.000  O
  O11      1.0000 0.59890  0.79760  0.34140  Biso   1.000  O
  O12      1.0000 0.67010  0.79180  0.48390  Biso   1.000  O
  N9       1.0000 0.12730  0.84240  0.88110  Biso   1.000  N
  N10      1.0000 0.81050  0.18760  0.87410  Biso   1.000  N
  N11      1.0000 0.26450  0.90860  0.55380  Biso   1.000  N
  N12      1.0000 0.47740  0.91020  0.50540  Biso   1.000  N
  C61      1.0000 0.40200  0.90720  0.35180  Biso   1.000  C
  H45      1.0000 0.35410  0.91930  0.30050  Biso   1.000  H
  C62      1.0000 0.25110  0.82720  0.74970  Biso   1.000  C
  C63      1.0000 0.60730  0.81080  0.41770  Biso   1.000  C
  C64      1.0000 0.27290  0.87130  0.69000  Biso   1.000  C
  C65      1.0000 0.32530  0.92020  0.72710  Biso   1.000  C
  H46      1.0000 0.34660  0.92660  0.78710  Biso   1.000  H
  C66      1.0000 0.34600  0.95900  0.67680  Biso   1.000  C
  H47      1.0000 0.38160  0.99150  0.70350  Biso   1.000  H
  C67      1.0000 0.31950  0.95290  0.59750  Biso   1.000  C
  C68      1.0000 0.24150  0.86870  0.60180  Biso   1.000  C
  H48      1.0000 0.20230  0.83820  0.57240  Biso   1.000  H
  C69      1.0000 0.53670  0.85110  0.42310  Biso   1.000  C
  C70      1.0000 0.54220  0.87170  0.50060  Biso   1.000  C
  H49      1.0000 0.59030  0.85990  0.55200  Biso   1.000  H
  C71      1.0000 0.40990  0.92690  0.42900  Biso   1.000  C
  C72      1.0000 0.46360  0.86970  0.34890  Biso   1.000  C
  H50      1.0000 0.45730  0.85540  0.29470  Biso   1.000  H
  C73      1.0000 0.16150  0.89570  0.89930  Biso   1.000  C
  H51      1.0000 0.22340  0.90040  0.91520  Biso   1.000  H
  C74      1.0000 0.11060  0.94510  0.89620  Biso   1.000  C
  H52      1.0000 0.13750  0.98210  0.90810  Biso   1.000  H
  C75      1.0000 0.02070  0.93870  0.87540  Biso   1.000  C
  C76      1.0000 0.98650  0.88280  0.85780  Biso   1.000  C
  H53      1.0000 0.92510  0.87650  0.84300  Biso   1.000  H
  C77      1.0000 0.04040  0.83670  0.86180  Biso   1.000  C
  H54      1.0000 0.01500  0.79920  0.85030  Biso   1.000  H
  C78      1.0000 0.95650  0.99180  0.85310  Biso   1.000  C
  H55      1.0000 0.89970  0.99050  0.80630  Biso   1.000  H
  C79      1.0000 0.92270  0.09260  0.88110  Biso   1.000  C
  C80      1.0000 0.96320  0.14510  0.92500  Biso   1.000  C
  H56      1.0000 0.02560  0.14830  0.95740  Biso   1.000  H
  C81      1.0000 0.77590  0.13800  0.83380  Biso   1.000  C
  H57      1.0000 0.71320  0.13560  0.80350  Biso   1.000  H
  C82      1.0000 0.90410  0.19240  0.91710  Biso   1.000  C
  H58      1.0000 0.92890  0.22850  0.94180  Biso   1.000  H
  C83      1.0000 0.82750  0.08850  0.83350  Biso   1.000  C
  H59      1.0000 0.80030  0.05430  0.80330  Biso   1.000  H
  C84      1.0000 0.98530  0.04160  0.90420  Biso   1.000  C
  H60      1.0000 0.04190  0.04320  0.95130  Biso   1.000  H
  C85      1.0000 0.46610  0.48690  0.89000  Biso   1.000  C
  C86      1.0000 0.28040  0.63100  0.87310  Biso   1.000  C
  C87      1.0000 0.33680  0.58320  0.87660  Biso   1.000  C
  C88      1.0000 0.44960  0.64940  0.88190  Biso   1.000  C
  C89      1.0000 0.39240  0.69730  0.87790  Biso   1.000  C
  C90      1.0000 0.47940  0.54300  0.86700  Biso   1.000  C
  H61      1.0000 0.42450  0.47930  0.91380  Biso   1.000  H
  H62      1.0000 0.22260  0.62420  0.87010  Biso   1.000  H
  H63      1.0000 0.31610  0.54490  0.87580  Biso   1.000  H
  H64      1.0000 0.50740  0.65700  0.88520  Biso   1.000  H
  H65      1.0000 0.41240  0.73570  0.87800  Biso   1.000  H
  H66      1.0000 0.52130  0.55060  0.84360  Biso   1.000  H
  Cd4      1.0000 0.72071  0.26515  0.87628  Biso   1.000  Cd
  S7       1.0000 0.82214  0.47633  0.42109  Biso   1.000  S
  S8       1.0000 0.85555  0.50623  0.54309  Biso   1.000  S
  O13      1.0000 0.79190  0.33130  0.82840  Biso   1.000  O
  O14      1.0000 0.68860  0.29040  0.70810  Biso   1.000  O
  O15      1.0000 0.09890  0.29760  0.34140  Biso   1.000  O
  O16      1.0000 0.17010  0.29180  0.48390  Biso   1.000  O
  N13      1.0000 0.62730  0.34240  0.88110  Biso   1.000  N
  N14      1.0000 0.31050  0.68760  0.87410  Biso   1.000  N
  N15      1.0000 0.76450  0.40860  0.55380  Biso   1.000  N
  N16      1.0000 0.97740  0.41020  0.50540  Biso   1.000  N
  C91      1.0000 0.90200  0.40720  0.35180  Biso   1.000  C
  H67      1.0000 0.85410  0.41930  0.30050  Biso   1.000  H
  C92      1.0000 0.75110  0.32720  0.74970  Biso   1.000  C
  C93      1.0000 0.10730  0.31080  0.41770  Biso   1.000  C
  C94      1.0000 0.77290  0.37130  0.69000  Biso   1.000  C
  C95      1.0000 0.82530  0.42020  0.72710  Biso   1.000  C
  H68      1.0000 0.84660  0.42660  0.78710  Biso   1.000  H
  C96      1.0000 0.84600  0.45900  0.67680  Biso   1.000  C
  H69      1.0000 0.88160  0.49150  0.70350  Biso   1.000  H
  C97      1.0000 0.81950  0.45290  0.59750  Biso   1.000  C
  C98      1.0000 0.74150  0.36870  0.60180  Biso   1.000  C
  H70      1.0000 0.70230  0.33820  0.57240  Biso   1.000  H
  C99      1.0000 0.03670  0.35110  0.42310  Biso   1.000  C
  C100     1.0000 0.04220  0.37170  0.50060  Biso   1.000  C
  H71      1.0000 0.09030  0.35990  0.55200  Biso   1.000  H
  C101     1.0000 0.90990  0.42690  0.42900  Biso   1.000  C
  C102     1.0000 0.96360  0.36970  0.34890  Biso   1.000  C
  H72      1.0000 0.95730  0.35540  0.29470  Biso   1.000  H
  C103     1.0000 0.66150  0.39570  0.89930  Biso   1.000  C
  H73      1.0000 0.72340  0.40040  0.91520  Biso   1.000  H
  C104     1.0000 0.61060  0.44510  0.89620  Biso   1.000  C
  H74      1.0000 0.63750  0.48210  0.90810  Biso   1.000  H
  C105     1.0000 0.52070  0.43870  0.87540  Biso   1.000  C
  C106     1.0000 0.48650  0.38280  0.85780  Biso   1.000  C
  H75      1.0000 0.42510  0.37650  0.84300  Biso   1.000  H
  C107     1.0000 0.54040  0.33670  0.86180  Biso   1.000  C
  H76      1.0000 0.51500  0.29920  0.85030  Biso   1.000  H
  C108     1.0000 0.45650  0.49180  0.85310  Biso   1.000  C
  H77      1.0000 0.39970  0.49050  0.80630  Biso   1.000  H
  C109     1.0000 0.42270  0.59260  0.88110  Biso   1.000  C
  C110     1.0000 0.46320  0.64510  0.92500  Biso   1.000  C
  H78      1.0000 0.52560  0.64830  0.95740  Biso   1.000  H
  C111     1.0000 0.27590  0.63800  0.83380  Biso   1.000  C
  H79      1.0000 0.21320  0.63560  0.80350  Biso   1.000  H
  C112     1.0000 0.40410  0.69240  0.91710  Biso   1.000  C
  H80      1.0000 0.42890  0.72850  0.94180  Biso   1.000  H
  C113     1.0000 0.32750  0.58850  0.83350  Biso   1.000  C
  H81      1.0000 0.30030  0.55430  0.80330  Biso   1.000  H
  C114     1.0000 0.48530  0.54160  0.90420  Biso   1.000  C
  H82      1.0000 0.54190  0.54320  0.95130  Biso   1.000  H
  C115     1.0000 0.96610  0.98690  0.89000  Biso   1.000  C
  C116     1.0000 0.78040  0.13100  0.87310  Biso   1.000  C
  C117     1.0000 0.83680  0.08320  0.87660  Biso   1.000  C
  C118     1.0000 0.94960  0.14940  0.88190  Biso   1.000  C
  C119     1.0000 0.89240  0.19730  0.87790  Biso   1.000  C
  C120     1.0000 0.97940  0.04300  0.86700  Biso   1.000  C
  H83      1.0000 0.92450  0.97930  0.91380  Biso   1.000  H
  H84      1.0000 0.72260  0.12420  0.87010  Biso   1.000  H
  H85      1.0000 0.81610  0.04490  0.87580  Biso   1.000  H
  H86      1.0000 0.00740  0.15700  0.88520  Biso   1.000  H
  H87      1.0000 0.91240  0.23570  0.87800  Biso   1.000  H
  H88      1.0000 0.02130  0.05060  0.84360  Biso   1.000  H
  Cd5      1.0000 0.22071  0.23485  0.37628  Biso   1.000  Cd
  S9       1.0000 0.32214  0.02367  0.92109  Biso   1.000  S
  S10      1.0000 0.35555  0.99377  0.04309  Biso   1.000  S
  O17      1.0000 0.29190  0.16870  0.32840  Biso   1.000  O
  O18      1.0000 0.18860  0.20960  0.20810  Biso   1.000  O
  O19      1.0000 0.59890  0.20240  0.84140  Biso   1.000  O
  O20      1.0000 0.67010  0.20820  0.98390  Biso   1.000  O
  N17      1.0000 0.12730  0.15760  0.38110  Biso   1.000  N
  N18      1.0000 0.81050  0.81240  0.37410  Biso   1.000  N
  N19      1.0000 0.26450  0.09140  0.05380  Biso   1.000  N
  N20      1.0000 0.47740  0.08980  0.00540  Biso   1.000  N
  C121     1.0000 0.40200  0.09280  0.85180  Biso   1.000  C
  H89      1.0000 0.35410  0.08070  0.80050  Biso   1.000  H
  C122     1.0000 0.25110  0.17280  0.24970  Biso   1.000  C
  C123     1.0000 0.60730  0.18920  0.91770  Biso   1.000  C
  C124     1.0000 0.27290  0.12870  0.19000  Biso   1.000  C
  C125     1.0000 0.32530  0.07980  0.22710  Biso   1.000  C
  H90      1.0000 0.34660  0.07340  0.28710  Biso   1.000  H
  C126     1.0000 0.34600  0.04100  0.17680  Biso   1.000  C
  H91      1.0000 0.38160  0.00850  0.20350  Biso   1.000  H
  C127     1.0000 0.31950  0.04710  0.09750  Biso   1.000  C
  C128     1.0000 0.24150  0.13130  0.10180  Biso   1.000  C
  H92      1.0000 0.20230  0.16180  0.07240  Biso   1.000  H
  C129     1.0000 0.53670  0.14890  0.92310  Biso   1.000  C
  C130     1.0000 0.54220  0.12830  0.00060  Biso   1.000  C
  H93      1.0000 0.59030  0.14010  0.05200  Biso   1.000  H
  C131     1.0000 0.40990  0.07310  0.92900  Biso   1.000  C
  C132     1.0000 0.46360  0.13030  0.84890  Biso   1.000  C
  H94      1.0000 0.45730  0.14460  0.79470  Biso   1.000  H
  C133     1.0000 0.16150  0.10430  0.39930  Biso   1.000  C
  H95      1.0000 0.22340  0.09960  0.41520  Biso   1.000  H
  C134     1.0000 0.11060  0.05490  0.39620  Biso   1.000  C
  H96      1.0000 0.13750  0.01790  0.40810  Biso   1.000  H
  C135     1.0000 0.02070  0.06130  0.37540  Biso   1.000  C
  C136     1.0000 0.98650  0.11720  0.35780  Biso   1.000  C
  H97      1.0000 0.92510  0.12350  0.34300  Biso   1.000  H
  C137     1.0000 0.04040  0.16330  0.36180  Biso   1.000  C
  H98      1.0000 0.01500  0.20080  0.35030  Biso   1.000  H
  C138     1.0000 0.95650  0.00820  0.35310  Biso   1.000  C
  H99      1.0000 0.89970  0.00950  0.30630  Biso   1.000  H
  C139     1.0000 0.92270  0.90740  0.38110  Biso   1.000  C
  C140     1.0000 0.96320  0.85490  0.42500  Biso   1.000  C
  H100     1.0000 0.02560  0.85170  0.45740  Biso   1.000  H
  C141     1.0000 0.77590  0.86200  0.33380  Biso   1.000  C
  H101     1.0000 0.71320  0.86440  0.30350  Biso   1.000  H
  C142     1.0000 0.90410  0.80760  0.41710  Biso   1.000  C
  H102     1.0000 0.92890  0.77150  0.44180  Biso   1.000  H
  C143     1.0000 0.82750  0.91150  0.33350  Biso   1.000  C
  H103     1.0000 0.80030  0.94570  0.30330  Biso   1.000  H
  C144     1.0000 0.98530  0.95840  0.40420  Biso   1.000  C
  H104     1.0000 0.04190  0.95680  0.45130  Biso   1.000  H
  C145     1.0000 0.46610  0.51310  0.39000  Biso   1.000  C
  C146     1.0000 0.28040  0.36900  0.37310  Biso   1.000  C
  C147     1.0000 0.33680  0.41680  0.37660  Biso   1.000  C
  C148     1.0000 0.44960  0.35060  0.38190  Biso   1.000  C
  C149     1.0000 0.39240  0.30270  0.37790  Biso   1.000  C
  C150     1.0000 0.47940  0.45700  0.36700  Biso   1.000  C
  H105     1.0000 0.42450  0.52070  0.41380  Biso   1.000  H
  H106     1.0000 0.22260  0.37580  0.37010  Biso   1.000  H
  H107     1.0000 0.31610  0.45510  0.37580  Biso   1.000  H
  H108     1.0000 0.50740  0.34300  0.38520  Biso   1.000  H
  H109     1.0000 0.41240  0.26430  0.37800  Biso   1.000  H
  H110     1.0000 0.52130  0.44940  0.34360  Biso   1.000  H
  Cd6      1.0000 0.72071  0.73485  0.37628  Biso   1.000  Cd
  S11      1.0000 0.82214  0.52367  0.92109  Biso   1.000  S
  S12      1.0000 0.85555  0.49377  0.04309  Biso   1.000  S
  O21      1.0000 0.79190  0.66870  0.32840  Biso   1.000  O
  O22      1.0000 0.68860  0.70960  0.20810  Biso   1.000  O
  O23      1.0000 0.09890  0.70240  0.84140  Biso   1.000  O
  O24      1.0000 0.17010  0.70820  0.98390  Biso   1.000  O
  N21      1.0000 0.62730  0.65760  0.38110  Biso   1.000  N
  N22      1.0000 0.31050  0.31240  0.37410  Biso   1.000  N
  N23      1.0000 0.76450  0.59140  0.05380  Biso   1.000  N
  N24      1.0000 0.97740  0.58980  0.00540  Biso   1.000  N
  C151     1.0000 0.90200  0.59280  0.85180  Biso   1.000  C
  H111     1.0000 0.85410  0.58070  0.80050  Biso   1.000  H
  C152     1.0000 0.75110  0.67280  0.24970  Biso   1.000  C
  C153     1.0000 0.10730  0.68920  0.91770  Biso   1.000  C
  C154     1.0000 0.77290  0.62870  0.19000  Biso   1.000  C
  C155     1.0000 0.82530  0.57980  0.22710  Biso   1.000  C
  H112     1.0000 0.84660  0.57340  0.28710  Biso   1.000  H
  C156     1.0000 0.84600  0.54100  0.17680  Biso   1.000  C
  H113     1.0000 0.88160  0.50850  0.20350  Biso   1.000  H
  C157     1.0000 0.81950  0.54710  0.09750  Biso   1.000  C
  C158     1.0000 0.74150  0.63130  0.10180  Biso   1.000  C
  H114     1.0000 0.70230  0.66180  0.07240  Biso   1.000  H
  C159     1.0000 0.03670  0.64890  0.92310  Biso   1.000  C
  C160     1.0000 0.04220  0.62830  0.00060  Biso   1.000  C
  H115     1.0000 0.09030  0.64010  0.05200  Biso   1.000  H
  C161     1.0000 0.90990  0.57310  0.92900  Biso   1.000  C
  C162     1.0000 0.96360  0.63030  0.84890  Biso   1.000  C
  H116     1.0000 0.95730  0.64460  0.79470  Biso   1.000  H
  C163     1.0000 0.66150  0.60430  0.39930  Biso   1.000  C
  H117     1.0000 0.72340  0.59960  0.41520  Biso   1.000  H
  C164     1.0000 0.61060  0.55490  0.39620  Biso   1.000  C
  H118     1.0000 0.63750  0.51790  0.40810  Biso   1.000  H
  C165     1.0000 0.52070  0.56130  0.37540  Biso   1.000  C
  C166     1.0000 0.48650  0.61720  0.35780  Biso   1.000  C
  H119     1.0000 0.42510  0.62350  0.34300  Biso   1.000  H
  C167     1.0000 0.54040  0.66330  0.36180  Biso   1.000  C
  H120     1.0000 0.51500  0.70080  0.35030  Biso   1.000  H
  C168     1.0000 0.45650  0.50820  0.35310  Biso   1.000  C
  H121     1.0000 0.39970  0.50950  0.30630  Biso   1.000  H
  C169     1.0000 0.42270  0.40740  0.38110  Biso   1.000  C
  C170     1.0000 0.46320  0.35490  0.42500  Biso   1.000  C
  H122     1.0000 0.52560  0.35170  0.45740  Biso   1.000  H
  C171     1.0000 0.27590  0.36200  0.33380  Biso   1.000  C
  H123     1.0000 0.21320  0.36440  0.30350  Biso   1.000  H
  C172     1.0000 0.40410  0.30760  0.41710  Biso   1.000  C
  H124     1.0000 0.42890  0.27150  0.44180  Biso   1.000  H
  C173     1.0000 0.32750  0.41150  0.33350  Biso   1.000  C
  H125     1.0000 0.30030  0.44570  0.30330  Biso   1.000  H
  C174     1.0000 0.48530  0.45840  0.40420  Biso   1.000  C
  H126     1.0000 0.54190  0.45680  0.45130  Biso   1.000  H
  C175     1.0000 0.96610  0.01310  0.39000  Biso   1.000  C
  C176     1.0000 0.78040  0.86900  0.37310  Biso   1.000  C
  C177     1.0000 0.83680  0.91680  0.37660  Biso   1.000  C
  C178     1.0000 0.94960  0.85060  0.38190  Biso   1.000  C
  C179     1.0000 0.89240  0.80270  0.37790  Biso   1.000  C
  C180     1.0000 0.97940  0.95700  0.36700  Biso   1.000  C
  H127     1.0000 0.92450  0.02070  0.41380  Biso   1.000  H
  H128     1.0000 0.72260  0.87580  0.37010  Biso   1.000  H
  H129     1.0000 0.81610  0.95510  0.37580  Biso   1.000  H
  H130     1.0000 0.00740  0.84300  0.38520  Biso   1.000  H
  H131     1.0000 0.91240  0.76430  0.37800  Biso   1.000  H
  H132     1.0000 0.02130  0.94940  0.34360  Biso   1.000  H
  Cd7      1.0000 0.77929  0.23485  0.12372  Biso   1.000  Cd
  S13      1.0000 0.67786  0.02367  0.57891  Biso   1.000  S
  S14      1.0000 0.64445  0.99377  0.45691  Biso   1.000  S
  O25      1.0000 0.70810  0.16870  0.17160  Biso   1.000  O
  O26      1.0000 0.81140  0.20960  0.29190  Biso   1.000  O
  O27      1.0000 0.40110  0.20240  0.65860  Biso   1.000  O
  O28      1.0000 0.32990  0.20820  0.51610  Biso   1.000  O
  N25      1.0000 0.87270  0.15760  0.11890  Biso   1.000  N
  N26      1.0000 0.18950  0.81240  0.12590  Biso   1.000  N
  N27      1.0000 0.73550  0.09140  0.44620  Biso   1.000  N
  N28      1.0000 0.52260  0.08980  0.49460  Biso   1.000  N
  C181     1.0000 0.59800  0.09280  0.64820  Biso   1.000  C
  H133     1.0000 0.64590  0.08070  0.69950  Biso   1.000  H
  C182     1.0000 0.74890  0.17280  0.25030  Biso   1.000  C
  C183     1.0000 0.39270  0.18920  0.58230  Biso   1.000  C
  C184     1.0000 0.72710  0.12870  0.31000  Biso   1.000  C
  C185     1.0000 0.67470  0.07980  0.27290  Biso   1.000  C
  H134     1.0000 0.65340  0.07340  0.21290  Biso   1.000  H
  C186     1.0000 0.65400  0.04100  0.32320  Biso   1.000  C
  H135     1.0000 0.61840  0.00850  0.29650  Biso   1.000  H
  C187     1.0000 0.68050  0.04710  0.40250  Biso   1.000  C
  C188     1.0000 0.75850  0.13130  0.39820  Biso   1.000  C
  H136     1.0000 0.79770  0.16180  0.42760  Biso   1.000  H
  C189     1.0000 0.46330  0.14890  0.57690  Biso   1.000  C
  C190     1.0000 0.45780  0.12830  0.49940  Biso   1.000  C
  H137     1.0000 0.40970  0.14010  0.44800  Biso   1.000  H
  C191     1.0000 0.59010  0.07310  0.57100  Biso   1.000  C
  C192     1.0000 0.53640  0.13030  0.65110  Biso   1.000  C
  H138     1.0000 0.54270  0.14460  0.70530  Biso   1.000  H
  C193     1.0000 0.83850  0.10430  0.10070  Biso   1.000  C
  H139     1.0000 0.77660  0.09960  0.08480  Biso   1.000  H
  C194     1.0000 0.88940  0.05490  0.10380  Biso   1.000  C
  H140     1.0000 0.86250  0.01790  0.09190  Biso   1.000  H
  C195     1.0000 0.97930  0.06130  0.12460  Biso   1.000  C
  C196     1.0000 0.01350  0.11720  0.14220  Biso   1.000  C
  H141     1.0000 0.07490  0.12350  0.15700  Biso   1.000  H
  C197     1.0000 0.95960  0.16330  0.13820  Biso   1.000  C
  H142     1.0000 0.98500  0.20080  0.14970  Biso   1.000  H
  C198     1.0000 0.04350  0.00820  0.14690  Biso   1.000  C
  H143     1.0000 0.10030  0.00950  0.19370  Biso   1.000  H
  C199     1.0000 0.07730  0.90740  0.11890  Biso   1.000  C
  C200     1.0000 0.03680  0.85490  0.07500  Biso   1.000  C
  H144     1.0000 0.97440  0.85170  0.04260  Biso   1.000  H
  C201     1.0000 0.22410  0.86200  0.16620  Biso   1.000  C
  H145     1.0000 0.28680  0.86440  0.19650  Biso   1.000  H
  C202     1.0000 0.09590  0.80760  0.08290  Biso   1.000  C
  H146     1.0000 0.07110  0.77150  0.05820  Biso   1.000  H
  C203     1.0000 0.17250  0.91150  0.16650  Biso   1.000  C
  H147     1.0000 0.19970  0.94570  0.19670  Biso   1.000  H
  C204     1.0000 0.01470  0.95840  0.09580  Biso   1.000  C
  H148     1.0000 0.95810  0.95680  0.04870  Biso   1.000  H
  C205     1.0000 0.53390  0.51310  0.11000  Biso   1.000  C
  C206     1.0000 0.71960  0.36900  0.12690  Biso   1.000  C
  C207     1.0000 0.66320  0.41680  0.12340  Biso   1.000  C
  C208     1.0000 0.55040  0.35060  0.11810  Biso   1.000  C
  C209     1.0000 0.60760  0.30270  0.12210  Biso   1.000  C
  C210     1.0000 0.52060  0.45700  0.13300  Biso   1.000  C
  H149     1.0000 0.57550  0.52070  0.08620  Biso   1.000  H
  H150     1.0000 0.77740  0.37580  0.12990  Biso   1.000  H
  H151     1.0000 0.68390  0.45510  0.12420  Biso   1.000  H
  H152     1.0000 0.49260  0.34300  0.11480  Biso   1.000  H
  H153     1.0000 0.58760  0.26430  0.12200  Biso   1.000  H
  H154     1.0000 0.47870  0.44940  0.15640  Biso   1.000  H
  Cd8      1.0000 0.27929  0.73485  0.12372  Biso   1.000  Cd
  S15      1.0000 0.17786  0.52367  0.57891  Biso   1.000  S
  S16      1.0000 0.14445  0.49377  0.45691  Biso   1.000  S
  O29      1.0000 0.20810  0.66870  0.17160  Biso   1.000  O
  O30      1.0000 0.31140  0.70960  0.29190  Biso   1.000  O
  O31      1.0000 0.90110  0.70240  0.65860  Biso   1.000  O
  O32      1.0000 0.82990  0.70820  0.51610  Biso   1.000  O
  N29      1.0000 0.37270  0.65760  0.11890  Biso   1.000  N
  N30      1.0000 0.68950  0.31240  0.12590  Biso   1.000  N
  N31      1.0000 0.23550  0.59140  0.44620  Biso   1.000  N
  N32      1.0000 0.02260  0.58980  0.49460  Biso   1.000  N
  C211     1.0000 0.09800  0.59280  0.64820  Biso   1.000  C
  H155     1.0000 0.14590  0.58070  0.69950  Biso   1.000  H
  C212     1.0000 0.24890  0.67280  0.25030  Biso   1.000  C
  C213     1.0000 0.89270  0.68920  0.58230  Biso   1.000  C
  C214     1.0000 0.22710  0.62870  0.31000  Biso   1.000  C
  C215     1.0000 0.17470  0.57980  0.27290  Biso   1.000  C
  H156     1.0000 0.15340  0.57340  0.21290  Biso   1.000  H
  C216     1.0000 0.15400  0.54100  0.32320  Biso   1.000  C
  H157     1.0000 0.11840  0.50850  0.29650  Biso   1.000  H
  C217     1.0000 0.18050  0.54710  0.40250  Biso   1.000  C
  C218     1.0000 0.25850  0.63130  0.39820  Biso   1.000  C
  H158     1.0000 0.29770  0.66180  0.42760  Biso   1.000  H
  C219     1.0000 0.96330  0.64890  0.57690  Biso   1.000  C
  C220     1.0000 0.95780  0.62830  0.49940  Biso   1.000  C
  H159     1.0000 0.90970  0.64010  0.44800  Biso   1.000  H
  C221     1.0000 0.09010  0.57310  0.57100  Biso   1.000  C
  C222     1.0000 0.03640  0.63030  0.65110  Biso   1.000  C
  H160     1.0000 0.04270  0.64460  0.70530  Biso   1.000  H
  C223     1.0000 0.33850  0.60430  0.10070  Biso   1.000  C
  H161     1.0000 0.27660  0.59960  0.08480  Biso   1.000  H
  C224     1.0000 0.38940  0.55490  0.10380  Biso   1.000  C
  H162     1.0000 0.36250  0.51790  0.09190  Biso   1.000  H
  C225     1.0000 0.47930  0.56130  0.12460  Biso   1.000  C
  C226     1.0000 0.51350  0.61720  0.14220  Biso   1.000  C
  H163     1.0000 0.57490  0.62350  0.15700  Biso   1.000  H
  C227     1.0000 0.45960  0.66330  0.13820  Biso   1.000  C
  H164     1.0000 0.48500  0.70080  0.14970  Biso   1.000  H
  C228     1.0000 0.54350  0.50820  0.14690  Biso   1.000  C
  H165     1.0000 0.60030  0.50950  0.19370  Biso   1.000  H
  C229     1.0000 0.57730  0.40740  0.11890  Biso   1.000  C
  C230     1.0000 0.53680  0.35490  0.07500  Biso   1.000  C
  H166     1.0000 0.47440  0.35170  0.04260  Biso   1.000  H
  C231     1.0000 0.72410  0.36200  0.16620  Biso   1.000  C
  H167     1.0000 0.78680  0.36440  0.19650  Biso   1.000  H
  C232     1.0000 0.59590  0.30760  0.08290  Biso   1.000  C
  H168     1.0000 0.57110  0.27150  0.05820  Biso   1.000  H
  C233     1.0000 0.67250  0.41150  0.16650  Biso   1.000  C
  H169     1.0000 0.69970  0.44570  0.19670  Biso   1.000  H
  C234     1.0000 0.51470  0.45840  0.09580  Biso   1.000  C
  H170     1.0000 0.45810  0.45680  0.04870  Biso   1.000  H
  C235     1.0000 0.03390  0.01310  0.11000  Biso   1.000  C
  C236     1.0000 0.21960  0.86900  0.12690  Biso   1.000  C
  C237     1.0000 0.16320  0.91680  0.12340  Biso   1.000  C
  C238     1.0000 0.05040  0.85060  0.11810  Biso   1.000  C
  C239     1.0000 0.10760  0.80270  0.12210  Biso   1.000  C
  C240     1.0000 0.02060  0.95700  0.13300  Biso   1.000  C
  H171     1.0000 0.07550  0.02070  0.08620  Biso   1.000  H
  H172     1.0000 0.27740  0.87580  0.12990  Biso   1.000  H
  H173     1.0000 0.18390  0.95510  0.12420  Biso   1.000  H
  H174     1.0000 0.99260  0.84300  0.11480  Biso   1.000  H
  H175     1.0000 0.08760  0.76430  0.12200  Biso   1.000  H
  H176     1.0000 0.97870  0.94940  0.15640  Biso   1.000  H
