data_image0
_cell_length_a       18.185
_cell_length_b       28.67
_cell_length_c       20.572
_cell_angle_alpha    90
_cell_angle_beta     108.003
_cell_angle_gamma    90

_symmetry_space_group_name_H-M    "P 1"
_symmetry_int_tables_number       1

loop_
  _symmetry_equiv_pos_as_xyz
  'x, y, z'

loop_
  _atom_site_label
  _atom_site_occupancy
  _atom_site_fract_x
  _atom_site_fract_y
  _atom_site_fract_z
  _atom_site_thermal_displace_type
  _atom_site_B_iso_or_equiv
  _atom_site_type_symbol
  Cd1      1.0000 0.59995  0.08184  0.50672  Biso   1.000  Cd
  C1       1.0000 0.60790  0.05150  0.37920  Biso   1.000  C
  C2       1.0000 0.61550  0.02720  0.31810  Biso   1.000  C
  C3       1.0000 0.63810  0.98110  0.32210  Biso   1.000  C
  H1       1.0000 0.65260  0.96600  0.36420  Biso   1.000  H
  C4       1.0000 0.63960  0.95690  0.26430  Biso   1.000  C
  H2       1.0000 0.65330  0.92560  0.26790  Biso   1.000  H
  C5       1.0000 0.62130  0.97860  0.20110  Biso   1.000  C
  C6       1.0000 0.59990  0.02430  0.19840  Biso   1.000  C
  H3       1.0000 0.58740  0.03960  0.15660  Biso   1.000  H
  C7       1.0000 0.59590  0.04870  0.25480  Biso   1.000  C
  H4       1.0000 0.58010  0.07970  0.25040  Biso   1.000  H
  C8       1.0000 0.62270  0.95030  0.13970  Biso   1.000  C
  C9       1.0000 0.67910  0.16190  0.51150  Biso   1.000  C
  C10      1.0000 0.71600  0.20740  0.50610  Biso   1.000  C
  C11      1.0000 0.79370  0.21480  0.53650  Biso   1.000  C
  H5       1.0000 0.82380  0.19080  0.56180  Biso   1.000  H
  C12      1.0000 0.67130  0.24280  0.46950  Biso   1.000  C
  H6       1.0000 0.61850  0.23860  0.44900  Biso   1.000  H
  C13      1.0000 0.44110  0.13450  0.45780  Biso   1.000  C
  H7       1.0000 0.47130  0.15320  0.43920  Biso   1.000  H
  C14      1.0000 0.36790  0.14990  0.45380  Biso   1.000  C
  H8       1.0000 0.35030  0.17890  0.43510  Biso   1.000  H
  C15      1.0000 0.32250  0.12160  0.47780  Biso   1.000  C
  C16      1.0000 0.35030  0.07990  0.50630  Biso   1.000  C
  H9       1.0000 0.32080  0.05970  0.52360  Biso   1.000  H
  C17      1.0000 0.42250  0.06970  0.50810  Biso   1.000  C
  H10      1.0000 0.44150  0.04100  0.52710  Biso   1.000  H
  C18      1.0000 0.24010  0.13500  0.47520  Biso   1.000  C
  H11      1.0000 0.21880  0.11030  0.49630  Biso   1.000  H
  H12      1.0000 0.24210  0.16310  0.50180  Biso   1.000  H
  C19      1.0000 0.10780  0.15310  0.39740  Biso   1.000  C
  H13      1.0000 0.10230  0.18260  0.41860  Biso   1.000  H
  H14      1.0000 0.08380  0.12870  0.41640  Biso   1.000  H
  C20      1.0000 0.07210  0.15570  0.31910  Biso   1.000  C
  H15      1.0000 0.07690  0.18730  0.30400  Biso   1.000  H
  H16      1.0000 0.10080  0.13530  0.29800  Biso   1.000  H
  C21      1.0000 0.98710  0.14160  0.29510  Biso   1.000  C
  H17      1.0000 0.98090  0.11040  0.30950  Biso   1.000  H
  H18      1.0000 0.96110  0.16300  0.31650  Biso   1.000  H
  C22      1.0000 0.04220  0.14020  0.33270  Biso   1.000  C
  H19      1.0000 0.03420  0.10680  0.32990  Biso   1.000  H
  H20      1.0000 0.99440  0.15530  0.33240  Biso   1.000  H
  C23      1.0000 0.06820  0.15740  0.27340  Biso   1.000  C
  H21      1.0000 0.07710  0.19050  0.27660  Biso   1.000  H
  H22      1.0000 0.11550  0.14160  0.27580  Biso   1.000  H
  N1       1.0000 0.47010  0.09540  0.48600  Biso   1.000  N
  N2       1.0000 0.18910  0.14270  0.40690  Biso   1.000  N
  H23      1.0000 0.19150  0.11740  0.38160  Biso   1.000  H
  H24      1.0000 0.20830  0.16660  0.38910  Biso   1.000  H
  O1       1.0000 0.62920  0.03010  0.43540  Biso   1.000  O
  O2       1.0000 0.58280  0.09160  0.37470  Biso   1.000  O
  O3       1.0000 0.60520  0.97240  0.08540  Biso   1.000  O
  O4       1.0000 0.63450  0.90780  0.14350  Biso   1.000  O
  O5       1.0000 0.71920  0.12550  0.52090  Biso   1.000  O
  O6       1.0000 0.60840  0.16170  0.50440  Biso   1.000  O
  Cd2      1.0000 0.09995  0.58184  0.50672  Biso   1.000  Cd
  C24      1.0000 0.10790  0.55150  0.37920  Biso   1.000  C
  C25      1.0000 0.11550  0.52720  0.31810  Biso   1.000  C
  C26      1.0000 0.13810  0.48110  0.32210  Biso   1.000  C
  H25      1.0000 0.15260  0.46600  0.36420  Biso   1.000  H
  C27      1.0000 0.13960  0.45690  0.26430  Biso   1.000  C
  H26      1.0000 0.15330  0.42560  0.26790  Biso   1.000  H
  C28      1.0000 0.12130  0.47860  0.20110  Biso   1.000  C
  C29      1.0000 0.09990  0.52430  0.19840  Biso   1.000  C
  H27      1.0000 0.08740  0.53960  0.15660  Biso   1.000  H
  C30      1.0000 0.09590  0.54870  0.25480  Biso   1.000  C
  H28      1.0000 0.08010  0.57970  0.25040  Biso   1.000  H
  C31      1.0000 0.12270  0.45030  0.13970  Biso   1.000  C
  C32      1.0000 0.17910  0.66190  0.51150  Biso   1.000  C
  C33      1.0000 0.21600  0.70740  0.50610  Biso   1.000  C
  C34      1.0000 0.29370  0.71480  0.53650  Biso   1.000  C
  H29      1.0000 0.32380  0.69080  0.56180  Biso   1.000  H
  C35      1.0000 0.17130  0.74280  0.46950  Biso   1.000  C
  H30      1.0000 0.11850  0.73860  0.44900  Biso   1.000  H
  C36      1.0000 0.94110  0.63450  0.45780  Biso   1.000  C
  H31      1.0000 0.97130  0.65320  0.43920  Biso   1.000  H
  C37      1.0000 0.86790  0.64990  0.45380  Biso   1.000  C
  H32      1.0000 0.85030  0.67890  0.43510  Biso   1.000  H
  C38      1.0000 0.82250  0.62160  0.47780  Biso   1.000  C
  C39      1.0000 0.85030  0.57990  0.50630  Biso   1.000  C
  H33      1.0000 0.82080  0.55970  0.52360  Biso   1.000  H
  C40      1.0000 0.92250  0.56970  0.50810  Biso   1.000  C
  H34      1.0000 0.94150  0.54100  0.52710  Biso   1.000  H
  C41      1.0000 0.74010  0.63500  0.47520  Biso   1.000  C
  H35      1.0000 0.71880  0.61030  0.49630  Biso   1.000  H
  H36      1.0000 0.74210  0.66310  0.50180  Biso   1.000  H
  C42      1.0000 0.60780  0.65310  0.39740  Biso   1.000  C
  H37      1.0000 0.60230  0.68260  0.41860  Biso   1.000  H
  H38      1.0000 0.58380  0.62870  0.41640  Biso   1.000  H
  C43      1.0000 0.57210  0.65570  0.31910  Biso   1.000  C
  H39      1.0000 0.57690  0.68730  0.30400  Biso   1.000  H
  H40      1.0000 0.60080  0.63530  0.29800  Biso   1.000  H
  C44      1.0000 0.48710  0.64160  0.29510  Biso   1.000  C
  H41      1.0000 0.48090  0.61040  0.30950  Biso   1.000  H
  H42      1.0000 0.46110  0.66300  0.31650  Biso   1.000  H
  C45      1.0000 0.54220  0.64020  0.33270  Biso   1.000  C
  H43      1.0000 0.53420  0.60680  0.32990  Biso   1.000  H
  H44      1.0000 0.49440  0.65530  0.33240  Biso   1.000  H
  C46      1.0000 0.56820  0.65740  0.27340  Biso   1.000  C
  H45      1.0000 0.57710  0.69050  0.27660  Biso   1.000  H
  H46      1.0000 0.61550  0.64160  0.27580  Biso   1.000  H
  N3       1.0000 0.97010  0.59540  0.48600  Biso   1.000  N
  N4       1.0000 0.68910  0.64270  0.40690  Biso   1.000  N
  H47      1.0000 0.69150  0.61740  0.38160  Biso   1.000  H
  H48      1.0000 0.70830  0.66660  0.38910  Biso   1.000  H
  O7       1.0000 0.12920  0.53010  0.43540  Biso   1.000  O
  O8       1.0000 0.08280  0.59160  0.37470  Biso   1.000  O
  O9       1.0000 0.10520  0.47240  0.08540  Biso   1.000  O
  O10      1.0000 0.13450  0.40780  0.14350  Biso   1.000  O
  O11      1.0000 0.21920  0.62550  0.52090  Biso   1.000  O
  O12      1.0000 0.10840  0.66170  0.50440  Biso   1.000  O
  Cd3      1.0000 0.40005  0.08184  0.99328  Biso   1.000  Cd
  C47      1.0000 0.39210  0.05150  0.12080  Biso   1.000  C
  C48      1.0000 0.38450  0.02720  0.18190  Biso   1.000  C
  C49      1.0000 0.36190  0.98110  0.17790  Biso   1.000  C
  H49      1.0000 0.34740  0.96600  0.13580  Biso   1.000  H
  C50      1.0000 0.36040  0.95690  0.23570  Biso   1.000  C
  H50      1.0000 0.34670  0.92560  0.23210  Biso   1.000  H
  C51      1.0000 0.37870  0.97860  0.29890  Biso   1.000  C
  C52      1.0000 0.40010  0.02430  0.30160  Biso   1.000  C
  H51      1.0000 0.41260  0.03960  0.34340  Biso   1.000  H
  C53      1.0000 0.40410  0.04870  0.24520  Biso   1.000  C
  H52      1.0000 0.41990  0.07970  0.24960  Biso   1.000  H
  C54      1.0000 0.37730  0.95030  0.36030  Biso   1.000  C
  C55      1.0000 0.32090  0.16190  0.98850  Biso   1.000  C
  C56      1.0000 0.28400  0.20740  0.99390  Biso   1.000  C
  C57      1.0000 0.20630  0.21480  0.96350  Biso   1.000  C
  H53      1.0000 0.17620  0.19080  0.93820  Biso   1.000  H
  C58      1.0000 0.32870  0.24280  0.03050  Biso   1.000  C
  H54      1.0000 0.38150  0.23860  0.05100  Biso   1.000  H
  C59      1.0000 0.55890  0.13450  0.04220  Biso   1.000  C
  H55      1.0000 0.52870  0.15320  0.06080  Biso   1.000  H
  C60      1.0000 0.63210  0.14990  0.04620  Biso   1.000  C
  H56      1.0000 0.64970  0.17890  0.06490  Biso   1.000  H
  C61      1.0000 0.67750  0.12160  0.02220  Biso   1.000  C
  C62      1.0000 0.64970  0.07990  0.99370  Biso   1.000  C
  H57      1.0000 0.67920  0.05970  0.97640  Biso   1.000  H
  C63      1.0000 0.57750  0.06970  0.99190  Biso   1.000  C
  H58      1.0000 0.55850  0.04100  0.97290  Biso   1.000  H
  C64      1.0000 0.75990  0.13500  0.02480  Biso   1.000  C
  H59      1.0000 0.78120  0.11030  0.00370  Biso   1.000  H
  H60      1.0000 0.75790  0.16310  0.99820  Biso   1.000  H
  C65      1.0000 0.89220  0.15310  0.10260  Biso   1.000  C
  H61      1.0000 0.89770  0.18260  0.08140  Biso   1.000  H
  H62      1.0000 0.91620  0.12870  0.08360  Biso   1.000  H
  C66      1.0000 0.92790  0.15570  0.18090  Biso   1.000  C
  H63      1.0000 0.92310  0.18730  0.19600  Biso   1.000  H
  H64      1.0000 0.89920  0.13530  0.20200  Biso   1.000  H
  C67      1.0000 0.01290  0.14160  0.20490  Biso   1.000  C
  H65      1.0000 0.01910  0.11040  0.19050  Biso   1.000  H
  H66      1.0000 0.03890  0.16300  0.18350  Biso   1.000  H
  C68      1.0000 0.95780  0.14020  0.16730  Biso   1.000  C
  H67      1.0000 0.96580  0.10680  0.17010  Biso   1.000  H
  H68      1.0000 0.00560  0.15530  0.16760  Biso   1.000  H
  C69      1.0000 0.93180  0.15740  0.22660  Biso   1.000  C
  H69      1.0000 0.92290  0.19050  0.22340  Biso   1.000  H
  H70      1.0000 0.88450  0.14160  0.22420  Biso   1.000  H
  N5       1.0000 0.52990  0.09540  0.01400  Biso   1.000  N
  N6       1.0000 0.81090  0.14270  0.09310  Biso   1.000  N
  H71      1.0000 0.80850  0.11740  0.11840  Biso   1.000  H
  H72      1.0000 0.79170  0.16660  0.11090  Biso   1.000  H
  O13      1.0000 0.37080  0.03010  0.06460  Biso   1.000  O
  O14      1.0000 0.41720  0.09160  0.12530  Biso   1.000  O
  O15      1.0000 0.39480  0.97240  0.41460  Biso   1.000  O
  O16      1.0000 0.36550  0.90780  0.35650  Biso   1.000  O
  O17      1.0000 0.28080  0.12550  0.97910  Biso   1.000  O
  O18      1.0000 0.39160  0.16170  0.99560  Biso   1.000  O
  Cd4      1.0000 0.90005  0.58184  0.99328  Biso   1.000  Cd
  C70      1.0000 0.89210  0.55150  0.12080  Biso   1.000  C
  C71      1.0000 0.88450  0.52720  0.18190  Biso   1.000  C
  C72      1.0000 0.86190  0.48110  0.17790  Biso   1.000  C
  H73      1.0000 0.84740  0.46600  0.13580  Biso   1.000  H
  C73      1.0000 0.86040  0.45690  0.23570  Biso   1.000  C
  H74      1.0000 0.84670  0.42560  0.23210  Biso   1.000  H
  C74      1.0000 0.87870  0.47860  0.29890  Biso   1.000  C
  C75      1.0000 0.90010  0.52430  0.30160  Biso   1.000  C
  H75      1.0000 0.91260  0.53960  0.34340  Biso   1.000  H
  C76      1.0000 0.90410  0.54870  0.24520  Biso   1.000  C
  H76      1.0000 0.91990  0.57970  0.24960  Biso   1.000  H
  C77      1.0000 0.87730  0.45030  0.36030  Biso   1.000  C
  C78      1.0000 0.82090  0.66190  0.98850  Biso   1.000  C
  C79      1.0000 0.78400  0.70740  0.99390  Biso   1.000  C
  C80      1.0000 0.70630  0.71480  0.96350  Biso   1.000  C
  H77      1.0000 0.67620  0.69080  0.93820  Biso   1.000  H
  C81      1.0000 0.82870  0.74280  0.03050  Biso   1.000  C
  H78      1.0000 0.88150  0.73860  0.05100  Biso   1.000  H
  C82      1.0000 0.05890  0.63450  0.04220  Biso   1.000  C
  H79      1.0000 0.02870  0.65320  0.06080  Biso   1.000  H
  C83      1.0000 0.13210  0.64990  0.04620  Biso   1.000  C
  H80      1.0000 0.14970  0.67890  0.06490  Biso   1.000  H
  C84      1.0000 0.17750  0.62160  0.02220  Biso   1.000  C
  C85      1.0000 0.14970  0.57990  0.99370  Biso   1.000  C
  H81      1.0000 0.17920  0.55970  0.97640  Biso   1.000  H
  C86      1.0000 0.07750  0.56970  0.99190  Biso   1.000  C
  H82      1.0000 0.05850  0.54100  0.97290  Biso   1.000  H
  C87      1.0000 0.25990  0.63500  0.02480  Biso   1.000  C
  H83      1.0000 0.28120  0.61030  0.00370  Biso   1.000  H
  H84      1.0000 0.25790  0.66310  0.99820  Biso   1.000  H
  C88      1.0000 0.39220  0.65310  0.10260  Biso   1.000  C
  H85      1.0000 0.39770  0.68260  0.08140  Biso   1.000  H
  H86      1.0000 0.41620  0.62870  0.08360  Biso   1.000  H
  C89      1.0000 0.42790  0.65570  0.18090  Biso   1.000  C
  H87      1.0000 0.42310  0.68730  0.19600  Biso   1.000  H
  H88      1.0000 0.39920  0.63530  0.20200  Biso   1.000  H
  C90      1.0000 0.51290  0.64160  0.20490  Biso   1.000  C
  H89      1.0000 0.51910  0.61040  0.19050  Biso   1.000  H
  H90      1.0000 0.53890  0.66300  0.18350  Biso   1.000  H
  C91      1.0000 0.45780  0.64020  0.16730  Biso   1.000  C
  H91      1.0000 0.46580  0.60680  0.17010  Biso   1.000  H
  H92      1.0000 0.50560  0.65530  0.16760  Biso   1.000  H
  C92      1.0000 0.43180  0.65740  0.22660  Biso   1.000  C
  H93      1.0000 0.42290  0.69050  0.22340  Biso   1.000  H
  H94      1.0000 0.38450  0.64160  0.22420  Biso   1.000  H
  N7       1.0000 0.02990  0.59540  0.01400  Biso   1.000  N
  N8       1.0000 0.31090  0.64270  0.09310  Biso   1.000  N
  H95      1.0000 0.30850  0.61740  0.11840  Biso   1.000  H
  H96      1.0000 0.29170  0.66660  0.11090  Biso   1.000  H
  O19      1.0000 0.87080  0.53010  0.06460  Biso   1.000  O
  O20      1.0000 0.91720  0.59160  0.12530  Biso   1.000  O
  O21      1.0000 0.89480  0.47240  0.41460  Biso   1.000  O
  O22      1.0000 0.86550  0.40780  0.35650  Biso   1.000  O
  O23      1.0000 0.78080  0.62550  0.97910  Biso   1.000  O
  O24      1.0000 0.89160  0.66170  0.99560  Biso   1.000  O
  Cd5      1.0000 0.40005  0.91816  0.49328  Biso   1.000  Cd
  C93      1.0000 0.39210  0.94850  0.62080  Biso   1.000  C
  C94      1.0000 0.38450  0.97280  0.68190  Biso   1.000  C
  C95      1.0000 0.36190  0.01890  0.67790  Biso   1.000  C
  H97      1.0000 0.34740  0.03400  0.63580  Biso   1.000  H
  C96      1.0000 0.36040  0.04310  0.73570  Biso   1.000  C
  H98      1.0000 0.34670  0.07440  0.73210  Biso   1.000  H
  C97      1.0000 0.37870  0.02140  0.79890  Biso   1.000  C
  C98      1.0000 0.40010  0.97570  0.80160  Biso   1.000  C
  H99      1.0000 0.41260  0.96040  0.84340  Biso   1.000  H
  C99      1.0000 0.40410  0.95130  0.74520  Biso   1.000  C
  H100     1.0000 0.41990  0.92030  0.74960  Biso   1.000  H
  C100     1.0000 0.37730  0.04970  0.86030  Biso   1.000  C
  C101     1.0000 0.32090  0.83810  0.48850  Biso   1.000  C
  C102     1.0000 0.28400  0.79260  0.49390  Biso   1.000  C
  C103     1.0000 0.20630  0.78520  0.46350  Biso   1.000  C
  H101     1.0000 0.17620  0.80920  0.43820  Biso   1.000  H
  C104     1.0000 0.32870  0.75720  0.53050  Biso   1.000  C
  H102     1.0000 0.38150  0.76140  0.55100  Biso   1.000  H
  C105     1.0000 0.55890  0.86550  0.54220  Biso   1.000  C
  H103     1.0000 0.52870  0.84680  0.56080  Biso   1.000  H
  C106     1.0000 0.63210  0.85010  0.54620  Biso   1.000  C
  H104     1.0000 0.64970  0.82110  0.56490  Biso   1.000  H
  C107     1.0000 0.67750  0.87840  0.52220  Biso   1.000  C
  C108     1.0000 0.64970  0.92010  0.49370  Biso   1.000  C
  H105     1.0000 0.67920  0.94030  0.47640  Biso   1.000  H
  C109     1.0000 0.57750  0.93030  0.49190  Biso   1.000  C
  H106     1.0000 0.55850  0.95900  0.47290  Biso   1.000  H
  C110     1.0000 0.75990  0.86500  0.52480  Biso   1.000  C
  H107     1.0000 0.78120  0.88970  0.50370  Biso   1.000  H
  H108     1.0000 0.75790  0.83690  0.49820  Biso   1.000  H
  C111     1.0000 0.89220  0.84690  0.60260  Biso   1.000  C
  H109     1.0000 0.89770  0.81740  0.58140  Biso   1.000  H
  H110     1.0000 0.91620  0.87130  0.58360  Biso   1.000  H
  C112     1.0000 0.92790  0.84430  0.68090  Biso   1.000  C
  H111     1.0000 0.92310  0.81270  0.69600  Biso   1.000  H
  H112     1.0000 0.89920  0.86470  0.70200  Biso   1.000  H
  C113     1.0000 0.01290  0.85840  0.70490  Biso   1.000  C
  H113     1.0000 0.01910  0.88960  0.69050  Biso   1.000  H
  H114     1.0000 0.03890  0.83700  0.68350  Biso   1.000  H
  C114     1.0000 0.95780  0.85980  0.66730  Biso   1.000  C
  H115     1.0000 0.96580  0.89320  0.67010  Biso   1.000  H
  H116     1.0000 0.00560  0.84470  0.66760  Biso   1.000  H
  C115     1.0000 0.93180  0.84260  0.72660  Biso   1.000  C
  H117     1.0000 0.92290  0.80950  0.72340  Biso   1.000  H
  H118     1.0000 0.88450  0.85840  0.72420  Biso   1.000  H
  N9       1.0000 0.52990  0.90460  0.51400  Biso   1.000  N
  N10      1.0000 0.81090  0.85730  0.59310  Biso   1.000  N
  H119     1.0000 0.80850  0.88260  0.61840  Biso   1.000  H
  H120     1.0000 0.79170  0.83340  0.61090  Biso   1.000  H
  O25      1.0000 0.37080  0.96990  0.56460  Biso   1.000  O
  O26      1.0000 0.41720  0.90840  0.62530  Biso   1.000  O
  O27      1.0000 0.39480  0.02760  0.91460  Biso   1.000  O
  O28      1.0000 0.36550  0.09220  0.85650  Biso   1.000  O
  O29      1.0000 0.28080  0.87450  0.47910  Biso   1.000  O
  O30      1.0000 0.39160  0.83830  0.49560  Biso   1.000  O
  Cd6      1.0000 0.90005  0.41816  0.49328  Biso   1.000  Cd
  C116     1.0000 0.89210  0.44850  0.62080  Biso   1.000  C
  C117     1.0000 0.88450  0.47280  0.68190  Biso   1.000  C
  C118     1.0000 0.86190  0.51890  0.67790  Biso   1.000  C
  H121     1.0000 0.84740  0.53400  0.63580  Biso   1.000  H
  C119     1.0000 0.86040  0.54310  0.73570  Biso   1.000  C
  H122     1.0000 0.84670  0.57440  0.73210  Biso   1.000  H
  C120     1.0000 0.87870  0.52140  0.79890  Biso   1.000  C
  C121     1.0000 0.90010  0.47570  0.80160  Biso   1.000  C
  H123     1.0000 0.91260  0.46040  0.84340  Biso   1.000  H
  C122     1.0000 0.90410  0.45130  0.74520  Biso   1.000  C
  H124     1.0000 0.91990  0.42030  0.74960  Biso   1.000  H
  C123     1.0000 0.87730  0.54970  0.86030  Biso   1.000  C
  C124     1.0000 0.82090  0.33810  0.48850  Biso   1.000  C
  C125     1.0000 0.78400  0.29260  0.49390  Biso   1.000  C
  C126     1.0000 0.70630  0.28520  0.46350  Biso   1.000  C
  H125     1.0000 0.67620  0.30920  0.43820  Biso   1.000  H
  C127     1.0000 0.82870  0.25720  0.53050  Biso   1.000  C
  H126     1.0000 0.88150  0.26140  0.55100  Biso   1.000  H
  C128     1.0000 0.05890  0.36550  0.54220  Biso   1.000  C
  H127     1.0000 0.02870  0.34680  0.56080  Biso   1.000  H
  C129     1.0000 0.13210  0.35010  0.54620  Biso   1.000  C
  H128     1.0000 0.14970  0.32110  0.56490  Biso   1.000  H
  C130     1.0000 0.17750  0.37840  0.52220  Biso   1.000  C
  C131     1.0000 0.14970  0.42010  0.49370  Biso   1.000  C
  H129     1.0000 0.17920  0.44030  0.47640  Biso   1.000  H
  C132     1.0000 0.07750  0.43030  0.49190  Biso   1.000  C
  H130     1.0000 0.05850  0.45900  0.47290  Biso   1.000  H
  C133     1.0000 0.25990  0.36500  0.52480  Biso   1.000  C
  H131     1.0000 0.28120  0.38970  0.50370  Biso   1.000  H
  H132     1.0000 0.25790  0.33690  0.49820  Biso   1.000  H
  C134     1.0000 0.39220  0.34690  0.60260  Biso   1.000  C
  H133     1.0000 0.39770  0.31740  0.58140  Biso   1.000  H
  H134     1.0000 0.41620  0.37130  0.58360  Biso   1.000  H
  C135     1.0000 0.42790  0.34430  0.68090  Biso   1.000  C
  H135     1.0000 0.42310  0.31270  0.69600  Biso   1.000  H
  H136     1.0000 0.39920  0.36470  0.70200  Biso   1.000  H
  C136     1.0000 0.51290  0.35840  0.70490  Biso   1.000  C
  H137     1.0000 0.51910  0.38960  0.69050  Biso   1.000  H
  H138     1.0000 0.53890  0.33700  0.68350  Biso   1.000  H
  C137     1.0000 0.45780  0.35980  0.66730  Biso   1.000  C
  H139     1.0000 0.46580  0.39320  0.67010  Biso   1.000  H
  H140     1.0000 0.50560  0.34470  0.66760  Biso   1.000  H
  C138     1.0000 0.43180  0.34260  0.72660  Biso   1.000  C
  H141     1.0000 0.42290  0.30950  0.72340  Biso   1.000  H
  H142     1.0000 0.38450  0.35840  0.72420  Biso   1.000  H
  N11      1.0000 0.02990  0.40460  0.51400  Biso   1.000  N
  N12      1.0000 0.31090  0.35730  0.59310  Biso   1.000  N
  H143     1.0000 0.30850  0.38260  0.61840  Biso   1.000  H
  H144     1.0000 0.29170  0.33340  0.61090  Biso   1.000  H
  O31      1.0000 0.87080  0.46990  0.56460  Biso   1.000  O
  O32      1.0000 0.91720  0.40840  0.62530  Biso   1.000  O
  O33      1.0000 0.89480  0.52760  0.91460  Biso   1.000  O
  O34      1.0000 0.86550  0.59220  0.85650  Biso   1.000  O
  O35      1.0000 0.78080  0.37450  0.47910  Biso   1.000  O
  O36      1.0000 0.89160  0.33830  0.49560  Biso   1.000  O
  Cd7      1.0000 0.59995  0.91816  0.00672  Biso   1.000  Cd
  C139     1.0000 0.60790  0.94850  0.87920  Biso   1.000  C
  C140     1.0000 0.61550  0.97280  0.81810  Biso   1.000  C
  C141     1.0000 0.63810  0.01890  0.82210  Biso   1.000  C
  H145     1.0000 0.65260  0.03400  0.86420  Biso   1.000  H
  C142     1.0000 0.63960  0.04310  0.76430  Biso   1.000  C
  H146     1.0000 0.65330  0.07440  0.76790  Biso   1.000  H
  C143     1.0000 0.62130  0.02140  0.70110  Biso   1.000  C
  C144     1.0000 0.59990  0.97570  0.69840  Biso   1.000  C
  H147     1.0000 0.58740  0.96040  0.65660  Biso   1.000  H
  C145     1.0000 0.59590  0.95130  0.75480  Biso   1.000  C
  H148     1.0000 0.58010  0.92030  0.75040  Biso   1.000  H
  C146     1.0000 0.62270  0.04970  0.63970  Biso   1.000  C
  C147     1.0000 0.67910  0.83810  0.01150  Biso   1.000  C
  C148     1.0000 0.71600  0.79260  0.00610  Biso   1.000  C
  C149     1.0000 0.79370  0.78520  0.03650  Biso   1.000  C
  H149     1.0000 0.82380  0.80920  0.06180  Biso   1.000  H
  C150     1.0000 0.67130  0.75720  0.96950  Biso   1.000  C
  H150     1.0000 0.61850  0.76140  0.94900  Biso   1.000  H
  C151     1.0000 0.44110  0.86550  0.95780  Biso   1.000  C
  H151     1.0000 0.47130  0.84680  0.93920  Biso   1.000  H
  C152     1.0000 0.36790  0.85010  0.95380  Biso   1.000  C
  H152     1.0000 0.35030  0.82110  0.93510  Biso   1.000  H
  C153     1.0000 0.32250  0.87840  0.97780  Biso   1.000  C
  C154     1.0000 0.35030  0.92010  0.00630  Biso   1.000  C
  H153     1.0000 0.32080  0.94030  0.02360  Biso   1.000  H
  C155     1.0000 0.42250  0.93030  0.00810  Biso   1.000  C
  H154     1.0000 0.44150  0.95900  0.02710  Biso   1.000  H
  C156     1.0000 0.24010  0.86500  0.97520  Biso   1.000  C
  H155     1.0000 0.21880  0.88970  0.99630  Biso   1.000  H
  H156     1.0000 0.24210  0.83690  0.00180  Biso   1.000  H
  C157     1.0000 0.10780  0.84690  0.89740  Biso   1.000  C
  H157     1.0000 0.10230  0.81740  0.91860  Biso   1.000  H
  H158     1.0000 0.08380  0.87130  0.91640  Biso   1.000  H
  C158     1.0000 0.07210  0.84430  0.81910  Biso   1.000  C
  H159     1.0000 0.07690  0.81270  0.80400  Biso   1.000  H
  H160     1.0000 0.10080  0.86470  0.79800  Biso   1.000  H
  C159     1.0000 0.98710  0.85840  0.79510  Biso   1.000  C
  H161     1.0000 0.98090  0.88960  0.80950  Biso   1.000  H
  H162     1.0000 0.96110  0.83700  0.81650  Biso   1.000  H
  C160     1.0000 0.04220  0.85980  0.83270  Biso   1.000  C
  H163     1.0000 0.03420  0.89320  0.82990  Biso   1.000  H
  H164     1.0000 0.99440  0.84470  0.83240  Biso   1.000  H
  C161     1.0000 0.06820  0.84260  0.77340  Biso   1.000  C
  H165     1.0000 0.07710  0.80950  0.77660  Biso   1.000  H
  H166     1.0000 0.11550  0.85840  0.77580  Biso   1.000  H
  N13      1.0000 0.47010  0.90460  0.98600  Biso   1.000  N
  N14      1.0000 0.18910  0.85730  0.90690  Biso   1.000  N
  H167     1.0000 0.19150  0.88260  0.88160  Biso   1.000  H
  H168     1.0000 0.20830  0.83340  0.88910  Biso   1.000  H
  O37      1.0000 0.62920  0.96990  0.93540  Biso   1.000  O
  O38      1.0000 0.58280  0.90840  0.87470  Biso   1.000  O
  O39      1.0000 0.60520  0.02760  0.58540  Biso   1.000  O
  O40      1.0000 0.63450  0.09220  0.64350  Biso   1.000  O
  O41      1.0000 0.71920  0.87450  0.02090  Biso   1.000  O
  O42      1.0000 0.60840  0.83830  0.00440  Biso   1.000  O
  Cd8      1.0000 0.09995  0.41816  0.00672  Biso   1.000  Cd
  C162     1.0000 0.10790  0.44850  0.87920  Biso   1.000  C
  C163     1.0000 0.11550  0.47280  0.81810  Biso   1.000  C
  C164     1.0000 0.13810  0.51890  0.82210  Biso   1.000  C
  H169     1.0000 0.15260  0.53400  0.86420  Biso   1.000  H
  C165     1.0000 0.13960  0.54310  0.76430  Biso   1.000  C
  H170     1.0000 0.15330  0.57440  0.76790  Biso   1.000  H
  C166     1.0000 0.12130  0.52140  0.70110  Biso   1.000  C
  C167     1.0000 0.09990  0.47570  0.69840  Biso   1.000  C
  H171     1.0000 0.08740  0.46040  0.65660  Biso   1.000  H
  C168     1.0000 0.09590  0.45130  0.75480  Biso   1.000  C
  H172     1.0000 0.08010  0.42030  0.75040  Biso   1.000  H
  C169     1.0000 0.12270  0.54970  0.63970  Biso   1.000  C
  C170     1.0000 0.17910  0.33810  0.01150  Biso   1.000  C
  C171     1.0000 0.21600  0.29260  0.00610  Biso   1.000  C
  C172     1.0000 0.29370  0.28520  0.03650  Biso   1.000  C
  H173     1.0000 0.32380  0.30920  0.06180  Biso   1.000  H
  C173     1.0000 0.17130  0.25720  0.96950  Biso   1.000  C
  H174     1.0000 0.11850  0.26140  0.94900  Biso   1.000  H
  C174     1.0000 0.94110  0.36550  0.95780  Biso   1.000  C
  H175     1.0000 0.97130  0.34680  0.93920  Biso   1.000  H
  C175     1.0000 0.86790  0.35010  0.95380  Biso   1.000  C
  H176     1.0000 0.85030  0.32110  0.93510  Biso   1.000  H
  C176     1.0000 0.82250  0.37840  0.97780  Biso   1.000  C
  C177     1.0000 0.85030  0.42010  0.00630  Biso   1.000  C
  H177     1.0000 0.82080  0.44030  0.02360  Biso   1.000  H
  C178     1.0000 0.92250  0.43030  0.00810  Biso   1.000  C
  H178     1.0000 0.94150  0.45900  0.02710  Biso   1.000  H
  C179     1.0000 0.74010  0.36500  0.97520  Biso   1.000  C
  H179     1.0000 0.71880  0.38970  0.99630  Biso   1.000  H
  H180     1.0000 0.74210  0.33690  0.00180  Biso   1.000  H
  C180     1.0000 0.60780  0.34690  0.89740  Biso   1.000  C
  H181     1.0000 0.60230  0.31740  0.91860  Biso   1.000  H
  H182     1.0000 0.58380  0.37130  0.91640  Biso   1.000  H
  C181     1.0000 0.57210  0.34430  0.81910  Biso   1.000  C
  H183     1.0000 0.57690  0.31270  0.80400  Biso   1.000  H
  H184     1.0000 0.60080  0.36470  0.79800  Biso   1.000  H
  C182     1.0000 0.48710  0.35840  0.79510  Biso   1.000  C
  H185     1.0000 0.48090  0.38960  0.80950  Biso   1.000  H
  H186     1.0000 0.46110  0.33700  0.81650  Biso   1.000  H
  C183     1.0000 0.54220  0.35980  0.83270  Biso   1.000  C
  H187     1.0000 0.53420  0.39320  0.82990  Biso   1.000  H
  H188     1.0000 0.49440  0.34470  0.83240  Biso   1.000  H
  C184     1.0000 0.56820  0.34260  0.77340  Biso   1.000  C
  H189     1.0000 0.57710  0.30950  0.77660  Biso   1.000  H
  H190     1.0000 0.61550  0.35840  0.77580  Biso   1.000  H
  N15      1.0000 0.97010  0.40460  0.98600  Biso   1.000  N
  N16      1.0000 0.68910  0.35730  0.90690  Biso   1.000  N
  H191     1.0000 0.69150  0.38260  0.88160  Biso   1.000  H
  H192     1.0000 0.70830  0.33340  0.88910  Biso   1.000  H
  O43      1.0000 0.12920  0.46990  0.93540  Biso   1.000  O
  O44      1.0000 0.08280  0.40840  0.87470  Biso   1.000  O
  O45      1.0000 0.10520  0.52760  0.58540  Biso   1.000  O
  O46      1.0000 0.13450  0.59220  0.64350  Biso   1.000  O
  O47      1.0000 0.21920  0.37450  0.02090  Biso   1.000  O
  O48      1.0000 0.10840  0.33830  0.00440  Biso   1.000  O
