data_image0
_cell_length_a       16.364
_cell_length_b       16.364
_cell_length_c       41.797
_cell_angle_alpha    90
_cell_angle_beta     90
_cell_angle_gamma    90

_symmetry_space_group_name_H-M    "P 1"
_symmetry_int_tables_number       1

loop_
  _symmetry_equiv_pos_as_xyz
  'x, y, z'

loop_
  _atom_site_label
  _atom_site_occupancy
  _atom_site_fract_x
  _atom_site_fract_y
  _atom_site_fract_z
  _atom_site_thermal_displace_type
  _atom_site_B_iso_or_equiv
  _atom_site_type_symbol
  Cd1      1.0000 0.58377  0.93270  0.59714  Biso   1.000  Cd
  Cd2      1.0000 0.07880  0.07380  0.49201  Biso   1.000  Cd
  C1       1.0000 0.49790  0.97150  0.54240  Biso   1.000  C
  C2       1.0000 0.45720  0.98650  0.51150  Biso   1.000  C
  C3       1.0000 0.50310  0.98630  0.48310  Biso   1.000  C
  H1       1.0000 0.55930  0.97810  0.48440  Biso   1.000  H
  C4       1.0000 0.46900  0.99750  0.45400  Biso   1.000  C
  H2       1.0000 0.50030  0.99410  0.43540  Biso   1.000  H
  C5       1.0000 0.38950  0.01350  0.45250  Biso   1.000  C
  H3       1.0000 0.36610  0.02330  0.43260  Biso   1.000  H
  C6       1.0000 0.33960  0.01630  0.47940  Biso   1.000  C
  C7       1.0000 0.37540  0.00300  0.50950  Biso   1.000  C
  H4       1.0000 0.34370  0.00540  0.52790  Biso   1.000  H
  C8       1.0000 0.25080  0.03330  0.47650  Biso   1.000  C
  C9       1.0000 0.72180  0.83310  0.60130  Biso   1.000  C
  C10      1.0000 0.79540  0.78140  0.59720  Biso   1.000  C
  C11      1.0000 0.85580  0.80610  0.57650  Biso   1.000  C
  H5       1.0000 0.84960  0.85510  0.56550  Biso   1.000  H
  C12      1.0000 0.92600  0.76000  0.57170  Biso   1.000  C
  H6       1.0000 0.96860  0.77920  0.55910  Biso   1.000  H
  C13      1.0000 0.93010  0.68310  0.58660  Biso   1.000  C
  H7       1.0000 0.97410  0.64890  0.58230  Biso   1.000  H
  C14      1.0000 0.87100  0.65730  0.60730  Biso   1.000  C
  C15      1.0000 0.80120  0.70780  0.61270  Biso   1.000  C
  H8       1.0000 0.76010  0.69100  0.62660  Biso   1.000  H
  C16      1.0000 0.87830  0.57890  0.62540  Biso   1.000  C
  C17      1.0000 0.40490  0.88940  0.62250  Biso   1.000  C
  H9       1.0000 0.40530  0.94590  0.62490  Biso   1.000  H
  C18      1.0000 0.33350  0.84830  0.62760  Biso   1.000  C
  H10      1.0000 0.28700  0.87610  0.63420  Biso   1.000  H
  C19      1.0000 0.33140  0.76490  0.62280  Biso   1.000  C
  H11      1.0000 0.28260  0.73640  0.62510  Biso   1.000  H
  C20      1.0000 0.40300  0.72370  0.61440  Biso   1.000  C
  C21      1.0000 0.47470  0.77280  0.61010  Biso   1.000  C
  H12      1.0000 0.52300  0.74710  0.60420  Biso   1.000  H
  C22      1.0000 0.40630  0.63570  0.60780  Biso   1.000  C
  H13      1.0000 0.35970  0.60980  0.61790  Biso   1.000  H
  H14      1.0000 0.45520  0.61350  0.61760  Biso   1.000  H
  C23      1.0000 0.41090  0.52710  0.56580  Biso   1.000  C
  H15      1.0000 0.36170  0.50070  0.57360  Biso   1.000  H
  H16      1.0000 0.45680  0.50350  0.57710  Biso   1.000  H
  C24      1.0000 0.42010  0.50780  0.53030  Biso   1.000  C
  H17      1.0000 0.38500  0.54370  0.51850  Biso   1.000  H
  H18      1.0000 0.40250  0.45270  0.52640  Biso   1.000  H
  C25      1.0000 0.50770  0.51830  0.51970  Biso   1.000  C
  H19      1.0000 0.54170  0.47940  0.53070  Biso   1.000  H
  H20      1.0000 0.52640  0.57190  0.52550  Biso   1.000  H
  N1       1.0000 0.47530  0.85140  0.61400  Biso   1.000  N
  N2       1.0000 0.40640  0.61370  0.57353  Biso   1.000  N
  H21      1.0000 0.36110  0.63390  0.56470  Biso   1.000  H
  H22      1.0000 0.44860  0.63860  0.56430  Biso   1.000  H
  O1       1.0000 0.46880  0.00310  0.56730  Biso   1.000  O
  O2       1.0000 0.56120  0.92710  0.54320  Biso   1.000  O
  O3       1.0000 0.71390  0.89450  0.58240  Biso   1.000  O
  O4       1.0000 0.66960  0.81800  0.62080  Biso   1.000  O
  O5       1.0000 0.21310  0.06170  0.50020  Biso   1.000  O
  O6       1.0000 0.22240  0.02740  0.44880  Biso   1.000  O
  O7       1.0000 0.92080  0.52310  0.61290  Biso   1.000  O
  O8       1.0000 0.84590  0.57190  0.65190  Biso   1.000  O
  O9       1.0000 0.06370  0.93410  0.50240  Biso   1.000  O
  Cd3      1.0000 0.41623  0.06730  0.09714  Biso   1.000  Cd
  Cd4      1.0000 0.92120  0.92620  0.99201  Biso   1.000  Cd
  C26      1.0000 0.50210  0.02850  0.04240  Biso   1.000  C
  C27      1.0000 0.54280  0.01350  0.01150  Biso   1.000  C
  C28      1.0000 0.49690  0.01370  0.98310  Biso   1.000  C
  H23      1.0000 0.44070  0.02190  0.98440  Biso   1.000  H
  C29      1.0000 0.53100  0.00250  0.95400  Biso   1.000  C
  H24      1.0000 0.49970  0.00590  0.93540  Biso   1.000  H
  C30      1.0000 0.61050  0.98650  0.95250  Biso   1.000  C
  H25      1.0000 0.63390  0.97670  0.93260  Biso   1.000  H
  C31      1.0000 0.66040  0.98370  0.97940  Biso   1.000  C
  C32      1.0000 0.62460  0.99700  0.00950  Biso   1.000  C
  H26      1.0000 0.65630  0.99460  0.02790  Biso   1.000  H
  C33      1.0000 0.74920  0.96670  0.97650  Biso   1.000  C
  C34      1.0000 0.27820  0.16690  0.10130  Biso   1.000  C
  C35      1.0000 0.20460  0.21860  0.09720  Biso   1.000  C
  C36      1.0000 0.14420  0.19390  0.07650  Biso   1.000  C
  H27      1.0000 0.15040  0.14490  0.06550  Biso   1.000  H
  C37      1.0000 0.07400  0.24000  0.07170  Biso   1.000  C
  H28      1.0000 0.03140  0.22080  0.05910  Biso   1.000  H
  C38      1.0000 0.06990  0.31690  0.08660  Biso   1.000  C
  H29      1.0000 0.02590  0.35110  0.08230  Biso   1.000  H
  C39      1.0000 0.12900  0.34270  0.10730  Biso   1.000  C
  C40      1.0000 0.19880  0.29220  0.11270  Biso   1.000  C
  H30      1.0000 0.23990  0.30900  0.12660  Biso   1.000  H
  C41      1.0000 0.12170  0.42110  0.12540  Biso   1.000  C
  C42      1.0000 0.59510  0.11060  0.12250  Biso   1.000  C
  H31      1.0000 0.59470  0.05410  0.12490  Biso   1.000  H
  C43      1.0000 0.66650  0.15170  0.12760  Biso   1.000  C
  H32      1.0000 0.71300  0.12390  0.13420  Biso   1.000  H
  C44      1.0000 0.66860  0.23510  0.12280  Biso   1.000  C
  H33      1.0000 0.71740  0.26360  0.12510  Biso   1.000  H
  C45      1.0000 0.59700  0.27630  0.11440  Biso   1.000  C
  C46      1.0000 0.52530  0.22720  0.11010  Biso   1.000  C
  H34      1.0000 0.47700  0.25290  0.10420  Biso   1.000  H
  C47      1.0000 0.59370  0.36430  0.10780  Biso   1.000  C
  H35      1.0000 0.64030  0.39020  0.11790  Biso   1.000  H
  H36      1.0000 0.54480  0.38650  0.11760  Biso   1.000  H
  C48      1.0000 0.58910  0.47290  0.06580  Biso   1.000  C
  H37      1.0000 0.63830  0.49930  0.07360  Biso   1.000  H
  H38      1.0000 0.54320  0.49650  0.07710  Biso   1.000  H
  C49      1.0000 0.57990  0.49220  0.03030  Biso   1.000  C
  H39      1.0000 0.61500  0.45630  0.01850  Biso   1.000  H
  H40      1.0000 0.59750  0.54730  0.02640  Biso   1.000  H
  C50      1.0000 0.49230  0.48170  0.01970  Biso   1.000  C
  H41      1.0000 0.45830  0.52060  0.03070  Biso   1.000  H
  H42      1.0000 0.47360  0.42810  0.02550  Biso   1.000  H
  N3       1.0000 0.52470  0.14860  0.11400  Biso   1.000  N
  N4       1.0000 0.59360  0.38630  0.07353  Biso   1.000  N
  H43      1.0000 0.63890  0.36610  0.06470  Biso   1.000  H
  H44      1.0000 0.55140  0.36140  0.06430  Biso   1.000  H
  O10      1.0000 0.53120  0.99690  0.06730  Biso   1.000  O
  O11      1.0000 0.43880  0.07290  0.04320  Biso   1.000  O
  O12      1.0000 0.28610  0.10550  0.08240  Biso   1.000  O
  O13      1.0000 0.33040  0.18200  0.12080  Biso   1.000  O
  O14      1.0000 0.78690  0.93830  0.00020  Biso   1.000  O
  O15      1.0000 0.77760  0.97260  0.94880  Biso   1.000  O
  O16      1.0000 0.07920  0.47690  0.11290  Biso   1.000  O
  O17      1.0000 0.15410  0.42810  0.15190  Biso   1.000  O
  O18      1.0000 0.93630  0.06590  0.00240  Biso   1.000  O
  Cd5      1.0000 0.56730  0.08377  0.84714  Biso   1.000  Cd
  Cd6      1.0000 0.42620  0.57880  0.74201  Biso   1.000  Cd
  C51      1.0000 0.52850  0.99790  0.79240  Biso   1.000  C
  C52      1.0000 0.51350  0.95720  0.76150  Biso   1.000  C
  C53      1.0000 0.51370  0.00310  0.73310  Biso   1.000  C
  H45      1.0000 0.52190  0.05930  0.73440  Biso   1.000  H
  C54      1.0000 0.50250  0.96900  0.70400  Biso   1.000  C
  H46      1.0000 0.50590  0.00030  0.68540  Biso   1.000  H
  C55      1.0000 0.48650  0.88950  0.70250  Biso   1.000  C
  H47      1.0000 0.47670  0.86610  0.68260  Biso   1.000  H
  C56      1.0000 0.48370  0.83960  0.72940  Biso   1.000  C
  C57      1.0000 0.49700  0.87540  0.75950  Biso   1.000  C
  H48      1.0000 0.49460  0.84370  0.77790  Biso   1.000  H
  C58      1.0000 0.46670  0.75080  0.72650  Biso   1.000  C
  C59      1.0000 0.66690  0.22180  0.85130  Biso   1.000  C
  C60      1.0000 0.71860  0.29540  0.84720  Biso   1.000  C
  C61      1.0000 0.69390  0.35580  0.82650  Biso   1.000  C
  H49      1.0000 0.64490  0.34960  0.81550  Biso   1.000  H
  C62      1.0000 0.74000  0.42600  0.82170  Biso   1.000  C
  H50      1.0000 0.72080  0.46860  0.80910  Biso   1.000  H
  C63      1.0000 0.81690  0.43010  0.83660  Biso   1.000  C
  H51      1.0000 0.85110  0.47410  0.83230  Biso   1.000  H
  C64      1.0000 0.84270  0.37100  0.85730  Biso   1.000  C
  C65      1.0000 0.79220  0.30120  0.86270  Biso   1.000  C
  H52      1.0000 0.80900  0.26010  0.87660  Biso   1.000  H
  C66      1.0000 0.92110  0.37830  0.87540  Biso   1.000  C
  C67      1.0000 0.61060  0.90490  0.87250  Biso   1.000  C
  H53      1.0000 0.55410  0.90530  0.87490  Biso   1.000  H
  C68      1.0000 0.65170  0.83350  0.87760  Biso   1.000  C
  H54      1.0000 0.62390  0.78700  0.88420  Biso   1.000  H
  C69      1.0000 0.73510  0.83140  0.87280  Biso   1.000  C
  H55      1.0000 0.76360  0.78260  0.87510  Biso   1.000  H
  C70      1.0000 0.77630  0.90300  0.86440  Biso   1.000  C
  C71      1.0000 0.72720  0.97470  0.86010  Biso   1.000  C
  H56      1.0000 0.75290  0.02300  0.85420  Biso   1.000  H
  C72      1.0000 0.86430  0.90630  0.85780  Biso   1.000  C
  H57      1.0000 0.89020  0.85970  0.86790  Biso   1.000  H
  H58      1.0000 0.88650  0.95520  0.86760  Biso   1.000  H
  C73      1.0000 0.97290  0.91090  0.81580  Biso   1.000  C
  H59      1.0000 0.99930  0.86170  0.82360  Biso   1.000  H
  H60      1.0000 0.99650  0.95680  0.82710  Biso   1.000  H
  C74      1.0000 0.99220  0.92010  0.78030  Biso   1.000  C
  H61      1.0000 0.95630  0.88500  0.76850  Biso   1.000  H
  H62      1.0000 0.04730  0.90250  0.77640  Biso   1.000  H
  C75      1.0000 0.98170  0.00770  0.76970  Biso   1.000  C
  H63      1.0000 0.02060  0.04170  0.78070  Biso   1.000  H
  H64      1.0000 0.92810  0.02640  0.77550  Biso   1.000  H
  N5       1.0000 0.64860  0.97530  0.86400  Biso   1.000  N
  N6       1.0000 0.88630  0.90640  0.82353  Biso   1.000  N
  H65      1.0000 0.86610  0.86110  0.81470  Biso   1.000  H
  H66      1.0000 0.86140  0.94860  0.81430  Biso   1.000  H
  O19      1.0000 0.49690  0.96880  0.81730  Biso   1.000  O
  O20      1.0000 0.57290  0.06120  0.79320  Biso   1.000  O
  O21      1.0000 0.60550  0.21390  0.83240  Biso   1.000  O
  O22      1.0000 0.68200  0.16960  0.87080  Biso   1.000  O
  O23      1.0000 0.43830  0.71310  0.75020  Biso   1.000  O
  O24      1.0000 0.47260  0.72240  0.69880  Biso   1.000  O
  O25      1.0000 0.97690  0.42080  0.86290  Biso   1.000  O
  O26      1.0000 0.92810  0.34590  0.90190  Biso   1.000  O
  O27      1.0000 0.56590  0.56370  0.75240  Biso   1.000  O
  Cd7      1.0000 0.43270  0.91623  0.34714  Biso   1.000  Cd
  Cd8      1.0000 0.57380  0.42120  0.24201  Biso   1.000  Cd
  C76      1.0000 0.47150  0.00210  0.29240  Biso   1.000  C
  C77      1.0000 0.48650  0.04280  0.26150  Biso   1.000  C
  C78      1.0000 0.48630  0.99690  0.23310  Biso   1.000  C
  H67      1.0000 0.47810  0.94070  0.23440  Biso   1.000  H
  C79      1.0000 0.49750  0.03100  0.20400  Biso   1.000  C
  H68      1.0000 0.49410  0.99970  0.18540  Biso   1.000  H
  C80      1.0000 0.51350  0.11050  0.20250  Biso   1.000  C
  H69      1.0000 0.52330  0.13390  0.18260  Biso   1.000  H
  C81      1.0000 0.51630  0.16040  0.22940  Biso   1.000  C
  C82      1.0000 0.50300  0.12460  0.25950  Biso   1.000  C
  H70      1.0000 0.50540  0.15630  0.27790  Biso   1.000  H
  C83      1.0000 0.53330  0.24920  0.22650  Biso   1.000  C
  C84      1.0000 0.33310  0.77820  0.35130  Biso   1.000  C
  C85      1.0000 0.28140  0.70460  0.34720  Biso   1.000  C
  C86      1.0000 0.30610  0.64420  0.32650  Biso   1.000  C
  H71      1.0000 0.35510  0.65040  0.31550  Biso   1.000  H
  C87      1.0000 0.26000  0.57400  0.32170  Biso   1.000  C
  H72      1.0000 0.27920  0.53140  0.30910  Biso   1.000  H
  C88      1.0000 0.18310  0.56990  0.33660  Biso   1.000  C
  H73      1.0000 0.14890  0.52590  0.33230  Biso   1.000  H
  C89      1.0000 0.15730  0.62900  0.35730  Biso   1.000  C
  C90      1.0000 0.20780  0.69880  0.36270  Biso   1.000  C
  H74      1.0000 0.19100  0.73990  0.37660  Biso   1.000  H
  C91      1.0000 0.07890  0.62170  0.37540  Biso   1.000  C
  C92      1.0000 0.38940  0.09510  0.37250  Biso   1.000  C
  H75      1.0000 0.44590  0.09470  0.37490  Biso   1.000  H
  C93      1.0000 0.34830  0.16650  0.37760  Biso   1.000  C
  H76      1.0000 0.37610  0.21300  0.38420  Biso   1.000  H
  C94      1.0000 0.26490  0.16860  0.37280  Biso   1.000  C
  H77      1.0000 0.23640  0.21740  0.37510  Biso   1.000  H
  C95      1.0000 0.22370  0.09700  0.36440  Biso   1.000  C
  C96      1.0000 0.27280  0.02530  0.36010  Biso   1.000  C
  H78      1.0000 0.24710  0.97700  0.35420  Biso   1.000  H
  C97      1.0000 0.13570  0.09370  0.35780  Biso   1.000  C
  H79      1.0000 0.10980  0.14030  0.36790  Biso   1.000  H
  H80      1.0000 0.11350  0.04480  0.36760  Biso   1.000  H
  C98      1.0000 0.02710  0.08910  0.31580  Biso   1.000  C
  H81      1.0000 0.00070  0.13830  0.32360  Biso   1.000  H
  H82      1.0000 0.00350  0.04320  0.32710  Biso   1.000  H
  C99      1.0000 0.00780  0.07990  0.28030  Biso   1.000  C
  H83      1.0000 0.04370  0.11500  0.26850  Biso   1.000  H
  H84      1.0000 0.95270  0.09750  0.27640  Biso   1.000  H
  C100     1.0000 0.01830  0.99230  0.26970  Biso   1.000  C
  H85      1.0000 0.97940  0.95830  0.28070  Biso   1.000  H
  H86      1.0000 0.07190  0.97360  0.27550  Biso   1.000  H
  N7       1.0000 0.35140  0.02470  0.36400  Biso   1.000  N
  N8       1.0000 0.11370  0.09360  0.32353  Biso   1.000  N
  H87      1.0000 0.13390  0.13890  0.31470  Biso   1.000  H
  H88      1.0000 0.13860  0.05140  0.31430  Biso   1.000  H
  O28      1.0000 0.50310  0.03120  0.31730  Biso   1.000  O
  O29      1.0000 0.42710  0.93880  0.29320  Biso   1.000  O
  O30      1.0000 0.39450  0.78610  0.33240  Biso   1.000  O
  O31      1.0000 0.31800  0.83040  0.37080  Biso   1.000  O
  O32      1.0000 0.56170  0.28690  0.25020  Biso   1.000  O
  O33      1.0000 0.52740  0.27760  0.19880  Biso   1.000  O
  O34      1.0000 0.02310  0.57920  0.36290  Biso   1.000  O
  O35      1.0000 0.07190  0.65410  0.40190  Biso   1.000  O
  O36      1.0000 0.43410  0.43630  0.25240  Biso   1.000  O
  Cd9      1.0000 0.91623  0.43270  0.65286  Biso   1.000  Cd
  Cd10     1.0000 0.42120  0.57380  0.75799  Biso   1.000  Cd
  C101     1.0000 0.00210  0.47150  0.70760  Biso   1.000  C
  C102     1.0000 0.04280  0.48650  0.73850  Biso   1.000  C
  C103     1.0000 0.99690  0.48630  0.76690  Biso   1.000  C
  H89      1.0000 0.94070  0.47810  0.76560  Biso   1.000  H
  C104     1.0000 0.03100  0.49750  0.79600  Biso   1.000  C
  H90      1.0000 0.99970  0.49410  0.81460  Biso   1.000  H
  C105     1.0000 0.11050  0.51350  0.79750  Biso   1.000  C
  H91      1.0000 0.13390  0.52330  0.81740  Biso   1.000  H
  C106     1.0000 0.16040  0.51630  0.77060  Biso   1.000  C
  C107     1.0000 0.12460  0.50300  0.74050  Biso   1.000  C
  H92      1.0000 0.15630  0.50540  0.72210  Biso   1.000  H
  C108     1.0000 0.24920  0.53330  0.77350  Biso   1.000  C
  C109     1.0000 0.77820  0.33310  0.64870  Biso   1.000  C
  C110     1.0000 0.70460  0.28140  0.65280  Biso   1.000  C
  C111     1.0000 0.64420  0.30610  0.67350  Biso   1.000  C
  H93      1.0000 0.65040  0.35510  0.68450  Biso   1.000  H
  C112     1.0000 0.57400  0.26000  0.67830  Biso   1.000  C
  H94      1.0000 0.53140  0.27920  0.69090  Biso   1.000  H
  C113     1.0000 0.56990  0.18310  0.66340  Biso   1.000  C
  H95      1.0000 0.52590  0.14890  0.66770  Biso   1.000  H
  C114     1.0000 0.62900  0.15730  0.64270  Biso   1.000  C
  C115     1.0000 0.69880  0.20780  0.63730  Biso   1.000  C
  H96      1.0000 0.73990  0.19100  0.62340  Biso   1.000  H
  C116     1.0000 0.62170  0.07890  0.62460  Biso   1.000  C
  C117     1.0000 0.09510  0.38940  0.62750  Biso   1.000  C
  H97      1.0000 0.09470  0.44590  0.62510  Biso   1.000  H
  C118     1.0000 0.16650  0.34830  0.62240  Biso   1.000  C
  H98      1.0000 0.21300  0.37610  0.61580  Biso   1.000  H
  C119     1.0000 0.16860  0.26490  0.62720  Biso   1.000  C
  H99      1.0000 0.21740  0.23640  0.62490  Biso   1.000  H
  C120     1.0000 0.09700  0.22370  0.63560  Biso   1.000  C
  C121     1.0000 0.02530  0.27280  0.63990  Biso   1.000  C
  H100     1.0000 0.97700  0.24710  0.64580  Biso   1.000  H
  C122     1.0000 0.09370  0.13570  0.64220  Biso   1.000  C
  H101     1.0000 0.14030  0.10980  0.63210  Biso   1.000  H
  H102     1.0000 0.04480  0.11350  0.63240  Biso   1.000  H
  C123     1.0000 0.08910  0.02710  0.68420  Biso   1.000  C
  H103     1.0000 0.13830  0.00070  0.67640  Biso   1.000  H
  H104     1.0000 0.04320  0.00350  0.67290  Biso   1.000  H
  C124     1.0000 0.07990  0.00780  0.71970  Biso   1.000  C
  H105     1.0000 0.11500  0.04370  0.73150  Biso   1.000  H
  H106     1.0000 0.09750  0.95270  0.72360  Biso   1.000  H
  C125     1.0000 0.99230  0.01830  0.73030  Biso   1.000  C
  H107     1.0000 0.95830  0.97940  0.71930  Biso   1.000  H
  H108     1.0000 0.97360  0.07190  0.72450  Biso   1.000  H
  N9       1.0000 0.02470  0.35140  0.63600  Biso   1.000  N
  N10      1.0000 0.09360  0.11370  0.67647  Biso   1.000  N
  H109     1.0000 0.13890  0.13390  0.68530  Biso   1.000  H
  H110     1.0000 0.05140  0.13860  0.68570  Biso   1.000  H
  O37      1.0000 0.03120  0.50310  0.68270  Biso   1.000  O
  O38      1.0000 0.93880  0.42710  0.70680  Biso   1.000  O
  O39      1.0000 0.78610  0.39450  0.66760  Biso   1.000  O
  O40      1.0000 0.83040  0.31800  0.62920  Biso   1.000  O
  O41      1.0000 0.28690  0.56170  0.74980  Biso   1.000  O
  O42      1.0000 0.27760  0.52740  0.80120  Biso   1.000  O
  O43      1.0000 0.57920  0.02310  0.63710  Biso   1.000  O
  O44      1.0000 0.65410  0.07190  0.59810  Biso   1.000  O
  O45      1.0000 0.43630  0.43410  0.74760  Biso   1.000  O
  Cd11     1.0000 0.08377  0.56730  0.15286  Biso   1.000  Cd
  Cd12     1.0000 0.57880  0.42620  0.25799  Biso   1.000  Cd
  C126     1.0000 0.99790  0.52850  0.20760  Biso   1.000  C
  C127     1.0000 0.95720  0.51350  0.23850  Biso   1.000  C
  C128     1.0000 0.00310  0.51370  0.26690  Biso   1.000  C
  H111     1.0000 0.05930  0.52190  0.26560  Biso   1.000  H
  C129     1.0000 0.96900  0.50250  0.29600  Biso   1.000  C
  H112     1.0000 0.00030  0.50590  0.31460  Biso   1.000  H
  C130     1.0000 0.88950  0.48650  0.29750  Biso   1.000  C
  H113     1.0000 0.86610  0.47670  0.31740  Biso   1.000  H
  C131     1.0000 0.83960  0.48370  0.27060  Biso   1.000  C
  C132     1.0000 0.87540  0.49700  0.24050  Biso   1.000  C
  H114     1.0000 0.84370  0.49460  0.22210  Biso   1.000  H
  C133     1.0000 0.75080  0.46670  0.27350  Biso   1.000  C
  C134     1.0000 0.22180  0.66690  0.14870  Biso   1.000  C
  C135     1.0000 0.29540  0.71860  0.15280  Biso   1.000  C
  C136     1.0000 0.35580  0.69390  0.17350  Biso   1.000  C
  H115     1.0000 0.34960  0.64490  0.18450  Biso   1.000  H
  C137     1.0000 0.42600  0.74000  0.17830  Biso   1.000  C
  H116     1.0000 0.46860  0.72080  0.19090  Biso   1.000  H
  C138     1.0000 0.43010  0.81690  0.16340  Biso   1.000  C
  H117     1.0000 0.47410  0.85110  0.16770  Biso   1.000  H
  C139     1.0000 0.37100  0.84270  0.14270  Biso   1.000  C
  C140     1.0000 0.30120  0.79220  0.13730  Biso   1.000  C
  H118     1.0000 0.26010  0.80900  0.12340  Biso   1.000  H
  C141     1.0000 0.37830  0.92110  0.12460  Biso   1.000  C
  C142     1.0000 0.90490  0.61060  0.12750  Biso   1.000  C
  H119     1.0000 0.90530  0.55410  0.12510  Biso   1.000  H
  C143     1.0000 0.83350  0.65170  0.12240  Biso   1.000  C
  H120     1.0000 0.78700  0.62390  0.11580  Biso   1.000  H
  C144     1.0000 0.83140  0.73510  0.12720  Biso   1.000  C
  H121     1.0000 0.78260  0.76360  0.12490  Biso   1.000  H
  C145     1.0000 0.90300  0.77630  0.13560  Biso   1.000  C
  C146     1.0000 0.97470  0.72720  0.13990  Biso   1.000  C
  H122     1.0000 0.02300  0.75290  0.14580  Biso   1.000  H
  C147     1.0000 0.90630  0.86430  0.14220  Biso   1.000  C
  H123     1.0000 0.85970  0.89020  0.13210  Biso   1.000  H
  H124     1.0000 0.95520  0.88650  0.13240  Biso   1.000  H
  C148     1.0000 0.91090  0.97290  0.18420  Biso   1.000  C
  H125     1.0000 0.86170  0.99930  0.17640  Biso   1.000  H
  H126     1.0000 0.95680  0.99650  0.17290  Biso   1.000  H
  C149     1.0000 0.92010  0.99220  0.21970  Biso   1.000  C
  H127     1.0000 0.88500  0.95630  0.23150  Biso   1.000  H
  H128     1.0000 0.90250  0.04730  0.22360  Biso   1.000  H
  C150     1.0000 0.00770  0.98170  0.23030  Biso   1.000  C
  H129     1.0000 0.04170  0.02060  0.21930  Biso   1.000  H
  H130     1.0000 0.02640  0.92810  0.22450  Biso   1.000  H
  N11      1.0000 0.97530  0.64860  0.13600  Biso   1.000  N
  N12      1.0000 0.90640  0.88630  0.17647  Biso   1.000  N
  H131     1.0000 0.86110  0.86610  0.18530  Biso   1.000  H
  H132     1.0000 0.94860  0.86140  0.18570  Biso   1.000  H
  O46      1.0000 0.96880  0.49690  0.18270  Biso   1.000  O
  O47      1.0000 0.06120  0.57290  0.20680  Biso   1.000  O
  O48      1.0000 0.21390  0.60550  0.16760  Biso   1.000  O
  O49      1.0000 0.16960  0.68200  0.12920  Biso   1.000  O
  O50      1.0000 0.71310  0.43830  0.24980  Biso   1.000  O
  O51      1.0000 0.72240  0.47260  0.30120  Biso   1.000  O
  O52      1.0000 0.42080  0.97690  0.13710  Biso   1.000  O
  O53      1.0000 0.34590  0.92810  0.09810  Biso   1.000  O
  O54      1.0000 0.56370  0.56590  0.24760  Biso   1.000  O
  Cd13     1.0000 0.93270  0.58377  0.40286  Biso   1.000  Cd
  Cd14     1.0000 0.07380  0.07880  0.50799  Biso   1.000  Cd
  C151     1.0000 0.97150  0.49790  0.45760  Biso   1.000  C
  C152     1.0000 0.98650  0.45720  0.48850  Biso   1.000  C
  C153     1.0000 0.98630  0.50310  0.51690  Biso   1.000  C
  H133     1.0000 0.97810  0.55930  0.51560  Biso   1.000  H
  C154     1.0000 0.99750  0.46900  0.54600  Biso   1.000  C
  H134     1.0000 0.99410  0.50030  0.56460  Biso   1.000  H
  C155     1.0000 0.01350  0.38950  0.54750  Biso   1.000  C
  H135     1.0000 0.02330  0.36610  0.56740  Biso   1.000  H
  C156     1.0000 0.01630  0.33960  0.52060  Biso   1.000  C
  C157     1.0000 0.00300  0.37540  0.49050  Biso   1.000  C
  H136     1.0000 0.00540  0.34370  0.47210  Biso   1.000  H
  C158     1.0000 0.03330  0.25080  0.52350  Biso   1.000  C
  C159     1.0000 0.83310  0.72180  0.39870  Biso   1.000  C
  C160     1.0000 0.78140  0.79540  0.40280  Biso   1.000  C
  C161     1.0000 0.80610  0.85580  0.42350  Biso   1.000  C
  H137     1.0000 0.85510  0.84960  0.43450  Biso   1.000  H
  C162     1.0000 0.76000  0.92600  0.42830  Biso   1.000  C
  H138     1.0000 0.77920  0.96860  0.44090  Biso   1.000  H
  C163     1.0000 0.68310  0.93010  0.41340  Biso   1.000  C
  H139     1.0000 0.64890  0.97410  0.41770  Biso   1.000  H
  C164     1.0000 0.65730  0.87100  0.39270  Biso   1.000  C
  C165     1.0000 0.70780  0.80120  0.38730  Biso   1.000  C
  H140     1.0000 0.69100  0.76010  0.37340  Biso   1.000  H
  C166     1.0000 0.57890  0.87830  0.37460  Biso   1.000  C
  C167     1.0000 0.88940  0.40490  0.37750  Biso   1.000  C
  H141     1.0000 0.94590  0.40530  0.37510  Biso   1.000  H
  C168     1.0000 0.84830  0.33350  0.37240  Biso   1.000  C
  H142     1.0000 0.87610  0.28700  0.36580  Biso   1.000  H
  C169     1.0000 0.76490  0.33140  0.37720  Biso   1.000  C
  H143     1.0000 0.73640  0.28260  0.37490  Biso   1.000  H
  C170     1.0000 0.72370  0.40300  0.38560  Biso   1.000  C
  C171     1.0000 0.77280  0.47470  0.38990  Biso   1.000  C
  H144     1.0000 0.74710  0.52300  0.39580  Biso   1.000  H
  C172     1.0000 0.63570  0.40630  0.39220  Biso   1.000  C
  H145     1.0000 0.60980  0.35970  0.38210  Biso   1.000  H
  H146     1.0000 0.61350  0.45520  0.38240  Biso   1.000  H
  C173     1.0000 0.52710  0.41090  0.43420  Biso   1.000  C
  H147     1.0000 0.50070  0.36170  0.42640  Biso   1.000  H
  H148     1.0000 0.50350  0.45680  0.42290  Biso   1.000  H
  C174     1.0000 0.50780  0.42010  0.46970  Biso   1.000  C
  H149     1.0000 0.54370  0.38500  0.48150  Biso   1.000  H
  H150     1.0000 0.45270  0.40250  0.47360  Biso   1.000  H
  C175     1.0000 0.51830  0.50770  0.48030  Biso   1.000  C
  H151     1.0000 0.47940  0.54170  0.46930  Biso   1.000  H
  H152     1.0000 0.57190  0.52640  0.47450  Biso   1.000  H
  N13      1.0000 0.85140  0.47530  0.38600  Biso   1.000  N
  N14      1.0000 0.61370  0.40640  0.42647  Biso   1.000  N
  H153     1.0000 0.63390  0.36110  0.43530  Biso   1.000  H
  H154     1.0000 0.63860  0.44860  0.43570  Biso   1.000  H
  O55      1.0000 0.00310  0.46880  0.43270  Biso   1.000  O
  O56      1.0000 0.92710  0.56120  0.45680  Biso   1.000  O
  O57      1.0000 0.89450  0.71390  0.41760  Biso   1.000  O
  O58      1.0000 0.81800  0.66960  0.37920  Biso   1.000  O
  O59      1.0000 0.06170  0.21310  0.49980  Biso   1.000  O
  O60      1.0000 0.02740  0.22240  0.55120  Biso   1.000  O
  O61      1.0000 0.52310  0.92080  0.38710  Biso   1.000  O
  O62      1.0000 0.57190  0.84590  0.34810  Biso   1.000  O
  O63      1.0000 0.93410  0.06370  0.49760  Biso   1.000  O
  Cd15     1.0000 0.06730  0.41623  0.90286  Biso   1.000  Cd
  Cd16     1.0000 0.92620  0.92120  0.00799  Biso   1.000  Cd
  C176     1.0000 0.02850  0.50210  0.95760  Biso   1.000  C
  C177     1.0000 0.01350  0.54280  0.98850  Biso   1.000  C
  C178     1.0000 0.01370  0.49690  0.01690  Biso   1.000  C
  H155     1.0000 0.02190  0.44070  0.01560  Biso   1.000  H
  C179     1.0000 0.00250  0.53100  0.04600  Biso   1.000  C
  H156     1.0000 0.00590  0.49970  0.06460  Biso   1.000  H
  C180     1.0000 0.98650  0.61050  0.04750  Biso   1.000  C
  H157     1.0000 0.97670  0.63390  0.06740  Biso   1.000  H
  C181     1.0000 0.98370  0.66040  0.02060  Biso   1.000  C
  C182     1.0000 0.99700  0.62460  0.99050  Biso   1.000  C
  H158     1.0000 0.99460  0.65630  0.97210  Biso   1.000  H
  C183     1.0000 0.96670  0.74920  0.02350  Biso   1.000  C
  C184     1.0000 0.16690  0.27820  0.89870  Biso   1.000  C
  C185     1.0000 0.21860  0.20460  0.90280  Biso   1.000  C
  C186     1.0000 0.19390  0.14420  0.92350  Biso   1.000  C
  H159     1.0000 0.14490  0.15040  0.93450  Biso   1.000  H
  C187     1.0000 0.24000  0.07400  0.92830  Biso   1.000  C
  H160     1.0000 0.22080  0.03140  0.94090  Biso   1.000  H
  C188     1.0000 0.31690  0.06990  0.91340  Biso   1.000  C
  H161     1.0000 0.35110  0.02590  0.91770  Biso   1.000  H
  C189     1.0000 0.34270  0.12900  0.89270  Biso   1.000  C
  C190     1.0000 0.29220  0.19880  0.88730  Biso   1.000  C
  H162     1.0000 0.30900  0.23990  0.87340  Biso   1.000  H
  C191     1.0000 0.42110  0.12170  0.87460  Biso   1.000  C
  C192     1.0000 0.11060  0.59510  0.87750  Biso   1.000  C
  H163     1.0000 0.05410  0.59470  0.87510  Biso   1.000  H
  C193     1.0000 0.15170  0.66650  0.87240  Biso   1.000  C
  H164     1.0000 0.12390  0.71300  0.86580  Biso   1.000  H
  C194     1.0000 0.23510  0.66860  0.87720  Biso   1.000  C
  H165     1.0000 0.26360  0.71740  0.87490  Biso   1.000  H
  C195     1.0000 0.27630  0.59700  0.88560  Biso   1.000  C
  C196     1.0000 0.22720  0.52530  0.88990  Biso   1.000  C
  H166     1.0000 0.25290  0.47700  0.89580  Biso   1.000  H
  C197     1.0000 0.36430  0.59370  0.89220  Biso   1.000  C
  H167     1.0000 0.39020  0.64030  0.88210  Biso   1.000  H
  H168     1.0000 0.38650  0.54480  0.88240  Biso   1.000  H
  C198     1.0000 0.47290  0.58910  0.93420  Biso   1.000  C
  H169     1.0000 0.49930  0.63830  0.92640  Biso   1.000  H
  H170     1.0000 0.49650  0.54320  0.92290  Biso   1.000  H
  C199     1.0000 0.49220  0.57990  0.96970  Biso   1.000  C
  H171     1.0000 0.45630  0.61500  0.98150  Biso   1.000  H
  H172     1.0000 0.54730  0.59750  0.97360  Biso   1.000  H
  C200     1.0000 0.48170  0.49230  0.98030  Biso   1.000  C
  H173     1.0000 0.52060  0.45830  0.96930  Biso   1.000  H
  H174     1.0000 0.42810  0.47360  0.97450  Biso   1.000  H
  N15      1.0000 0.14860  0.52470  0.88600  Biso   1.000  N
  N16      1.0000 0.38630  0.59360  0.92647  Biso   1.000  N
  H175     1.0000 0.36610  0.63890  0.93530  Biso   1.000  H
  H176     1.0000 0.36140  0.55140  0.93570  Biso   1.000  H
  O64      1.0000 0.99690  0.53120  0.93270  Biso   1.000  O
  O65      1.0000 0.07290  0.43880  0.95680  Biso   1.000  O
  O66      1.0000 0.10550  0.28610  0.91760  Biso   1.000  O
  O67      1.0000 0.18200  0.33040  0.87920  Biso   1.000  O
  O68      1.0000 0.93830  0.78690  0.99980  Biso   1.000  O
  O69      1.0000 0.97260  0.77760  0.05120  Biso   1.000  O
  O70      1.0000 0.47690  0.07920  0.88710  Biso   1.000  O
  O71      1.0000 0.42810  0.15410  0.84810  Biso   1.000  O
  O72      1.0000 0.06590  0.93630  0.99760  Biso   1.000  O
