data_image0
_cell_length_a       15.482
_cell_length_b       16.212
_cell_length_c       19.631
_cell_angle_alpha    93.931
_cell_angle_beta     103.836
_cell_angle_gamma    106.406

_symmetry_space_group_name_H-M    "P 1"
_symmetry_int_tables_number       1

loop_
  _symmetry_equiv_pos_as_xyz
  'x, y, z'

loop_
  _atom_site_label
  _atom_site_occupancy
  _atom_site_fract_x
  _atom_site_fract_y
  _atom_site_fract_z
  _atom_site_thermal_displace_type
  _atom_site_B_iso_or_equiv
  _atom_site_type_symbol
  Cd1      1.0000 0.07736  0.08852  0.19578  Biso   1.000  Cd
  Cd2      1.0000 0.67644  0.55165  0.34865  Biso   1.000  Cd
  C1       1.0000 0.92260  0.95510  0.22820  Biso   1.000  C
  C2       1.0000 0.82230  0.89990  0.21960  Biso   1.000  C
  C3       1.0000 0.75120  0.91520  0.17250  Biso   1.000  C
  H1       1.0000 0.76360  0.96400  0.14980  Biso   1.000  H
  C4       1.0000 0.65980  0.85970  0.15720  Biso   1.000  C
  C5       1.0000 0.64270  0.78330  0.18700  Biso   1.000  C
  H2       1.0000 0.58320  0.74300  0.17440  Biso   1.000  H
  C6       1.0000 0.71540  0.76790  0.23560  Biso   1.000  C
  C7       1.0000 0.80520  0.82620  0.25360  Biso   1.000  C
  H3       1.0000 0.85310  0.81650  0.28760  Biso   1.000  H
  C8       1.0000 0.58230  0.87680  0.10210  Biso   1.000  C
  C9       1.0000 0.69940  0.68560  0.26970  Biso   1.000  C
  C10      1.0000 0.19330  0.23420  0.27550  Biso   1.000  C
  C11      1.0000 0.25720  0.31670  0.32390  Biso   1.000  C
  C12      1.0000 0.24090  0.34210  0.38610  Biso   1.000  C
  H4       1.0000 0.18770  0.30930  0.39730  Biso   1.000  H
  C13      1.0000 0.30020  0.41430  0.43310  Biso   1.000  C
  C14      1.0000 0.37660  0.46340  0.41660  Biso   1.000  C
  H5       1.0000 0.41410  0.51430  0.44670  Biso   1.000  H
  C15      1.0000 0.40100  0.43990  0.35530  Biso   1.000  C
  C16      1.0000 0.34370  0.36270  0.30860  Biso   1.000  C
  H6       1.0000 0.36100  0.34270  0.27000  Biso   1.000  H
  C17      1.0000 0.49040  0.48860  0.34170  Biso   1.000  C
  C18      1.0000 0.29100  0.43290  0.50880  Biso   1.000  C
  C19      1.0000 0.59120  0.88340  0.91510  Biso   1.000  C
  H7       1.0000 0.57250  0.84400  0.94510  Biso   1.000  H
  C20      1.0000 0.63730  0.86280  0.86900  Biso   1.000  C
  H8       1.0000 0.65100  0.81050  0.86840  Biso   1.000  H
  C21      1.0000 0.66310  0.91800  0.82400  Biso   1.000  C
  H9       1.0000 0.69320  0.90350  0.79150  Biso   1.000  H
  C22      1.0000 0.64480  0.99470  0.82650  Biso   1.000  C
  C23      1.0000 0.59820  0.01430  0.87180  Biso   1.000  C
  H10      1.0000 0.58350  0.06610  0.87110  Biso   1.000  H
  C24      1.0000 0.67130  0.05910  0.77540  Biso   1.000  C
  H11      1.0000 0.66210  0.11370  0.78990  Biso   1.000  H
  H12      1.0000 0.73670  0.07030  0.77710  Biso   1.000  H
  C25      1.0000 0.64030  0.07310  0.64630  Biso   1.000  C
  H13      1.0000 0.69820  0.06780  0.63870  Biso   1.000  H
  H14      1.0000 0.64600  0.13410  0.65700  Biso   1.000  H
  C26      1.0000 0.55480  0.02580  0.58200  Biso   1.000  C
  H15      1.0000 0.54970  0.96460  0.57560  Biso   1.000  H
  H16      1.0000 0.49810  0.03060  0.59230  Biso   1.000  H
  C27      1.0000 0.11530  0.08400  0.04760  Biso   1.000  C
  H17      1.0000 0.10730  0.13850  0.05350  Biso   1.000  H
  C28      1.0000 0.13930  0.05880  0.98870  Biso   1.000  C
  H18      1.0000 0.14400  0.09540  0.95440  Biso   1.000  H
  C29      1.0000 0.15650  0.98100  0.97890  Biso   1.000  C
  H19      1.0000 0.17430  0.96420  0.93940  Biso   1.000  H
  C30      1.0000 0.14580  0.92890  0.03140  Biso   1.000  C
  C31      1.0000 0.11860  0.95650  0.08700  Biso   1.000  C
  H20      1.0000 0.11000  0.91990  0.12090  Biso   1.000  H
  C32      1.0000 0.16780  0.84320  0.02380  Biso   1.000  C
  H21      1.0000 0.20050  0.84330  0.98740  Biso   1.000  H
  H22      1.0000 0.20920  0.83870  0.06810  Biso   1.000  H
  C33      1.0000 0.10050  0.68400  0.98340  Biso   1.000  C
  H23      1.0000 0.16100  0.68330  0.01130  Biso   1.000  H
  H24      1.0000 0.09970  0.67880  0.93370  Biso   1.000  H
  C34      1.0000 0.02090  0.60760  0.99620  Biso   1.000  C
  H25      1.0000 0.01560  0.61610  0.04420  Biso   1.000  H
  H26      1.0000 0.96120  0.60180  0.96310  Biso   1.000  H
  N1       1.0000 0.10330  0.03280  0.09620  Biso   1.000  N
  N2       1.0000 0.08290  0.76590  0.00510  Biso   1.000  N
  H27      1.0000 0.05950  0.75970  0.04240  Biso   1.000  H
  H28      1.0000 0.04010  0.77520  0.96990  Biso   1.000  H
  N3       1.0000 0.57160  0.96010  0.91890  Biso   1.000  N
  N4       1.0000 0.61290  0.02330  0.70200  Biso   1.000  N
  H29      1.0000 0.61470  0.96950  0.69220  Biso   1.000  H
  H30      1.0000 0.55400  0.01980  0.70020  Biso   1.000  H
  O1       1.0000 0.93650  0.01650  0.19460  Biso   1.000  O
  O2       1.0000 0.98850  0.93860  0.27210  Biso   1.000  O
  O3       1.0000 0.12600  0.19170  0.29500  Biso   1.000  O
  O4       1.0000 0.21300  0.21280  0.21960  Biso   1.000  O
  O5       1.0000 0.59520  0.95400  0.08910  Biso   1.000  O
  O6       1.0000 0.51050  0.81410  0.07630  Biso   1.000  O
  O7       1.0000 0.52680  0.45140  0.30520  Biso   1.000  O
  O8       1.0000 0.32880  0.50820  0.54180  Biso   1.000  O
  O9       1.0000 0.25120  0.36930  0.53500  Biso   1.000  O
  O10      1.0000 0.75710  0.67960  0.32010  Biso   1.000  O
  O11      1.0000 0.62600  0.62640  0.24420  Biso   1.000  O
  O12      1.0000 0.53180  0.56640  0.37460  Biso   1.000  O
  C35      1.0000 0.56300  0.06180  0.51270  Biso   1.000  C
  H31      1.0000 0.56940  0.12280  0.51720  Biso   1.000  H
  H32      1.0000 0.61740  0.05270  0.50260  Biso   1.000  H
  C36      1.0000 0.05320  0.52660  0.98320  Biso   1.000  C
  H33      1.0000 0.05600  0.52110  0.93480  Biso   1.000  H
  H34      1.0000 0.11360  0.53260  0.01410  Biso   1.000  H
  C37      1.0000 0.48970  0.00980  0.55260  Biso   1.000  C
  H35      1.0000 0.47150  0.96760  0.58270  Biso   1.000  H
  H36      1.0000 0.47190  0.06010  0.56380  Biso   1.000  H
  C38      1.0000 0.59680  0.03360  0.56730  Biso   1.000  C
  H37      1.0000 0.61700  0.07750  0.53840  Biso   1.000  H
  H38      1.0000 0.61660  0.98390  0.55580  Biso   1.000  H
  C39      1.0000 0.02400  0.56260  0.03570  Biso   1.000  C
  H39      1.0000 0.08440  0.55580  0.05600  Biso   1.000  H
  H40      1.0000 0.01360  0.60490  0.06660  Biso   1.000  H
  C40      1.0000 0.02640  0.59350  0.96380  Biso   1.000  C
  H41      1.0000 0.96590  0.60060  0.94300  Biso   1.000  H
  H42      1.0000 0.03900  0.55390  0.93100  Biso   1.000  H
  H43      1.0000 0.12550  0.69360  0.94280  Biso   1.000  H
  H44      1.0000 0.15080  0.67890  0.02150  Biso   1.000  H
  H45      1.0000 0.70760  0.08710  0.65540  Biso   1.000  H
  H46      1.0000 0.62700  0.12770  0.65260  Biso   1.000  H
  Cd3      1.0000 0.92264  0.91148  0.80422  Biso   1.000  Cd
  Cd4      1.0000 0.32356  0.44835  0.65135  Biso   1.000  Cd
  C41      1.0000 0.07740  0.04490  0.77180  Biso   1.000  C
  C42      1.0000 0.17770  0.10010  0.78040  Biso   1.000  C
  C43      1.0000 0.24880  0.08480  0.82750  Biso   1.000  C
  H47      1.0000 0.23640  0.03600  0.85020  Biso   1.000  H
  C44      1.0000 0.34020  0.14030  0.84280  Biso   1.000  C
  C45      1.0000 0.35730  0.21670  0.81300  Biso   1.000  C
  H48      1.0000 0.41680  0.25700  0.82560  Biso   1.000  H
  C46      1.0000 0.28460  0.23210  0.76440  Biso   1.000  C
  C47      1.0000 0.19480  0.17380  0.74640  Biso   1.000  C
  H49      1.0000 0.14690  0.18350  0.71240  Biso   1.000  H
  C48      1.0000 0.41770  0.12320  0.89790  Biso   1.000  C
  C49      1.0000 0.30060  0.31440  0.73030  Biso   1.000  C
  C50      1.0000 0.80670  0.76580  0.72450  Biso   1.000  C
  C51      1.0000 0.74280  0.68330  0.67610  Biso   1.000  C
  C52      1.0000 0.75910  0.65790  0.61390  Biso   1.000  C
  H50      1.0000 0.81230  0.69070  0.60270  Biso   1.000  H
  C53      1.0000 0.69980  0.58570  0.56690  Biso   1.000  C
  C54      1.0000 0.62340  0.53660  0.58340  Biso   1.000  C
  H51      1.0000 0.58590  0.48570  0.55330  Biso   1.000  H
  C55      1.0000 0.59900  0.56010  0.64470  Biso   1.000  C
  C56      1.0000 0.65630  0.63730  0.69140  Biso   1.000  C
  H52      1.0000 0.63900  0.65730  0.73000  Biso   1.000  H
  C57      1.0000 0.50960  0.51140  0.65830  Biso   1.000  C
  C58      1.0000 0.70900  0.56710  0.49120  Biso   1.000  C
  C59      1.0000 0.40880  0.11660  0.08490  Biso   1.000  C
  H53      1.0000 0.42750  0.15600  0.05490  Biso   1.000  H
  C60      1.0000 0.36270  0.13720  0.13100  Biso   1.000  C
  H54      1.0000 0.34900  0.18950  0.13160  Biso   1.000  H
  C61      1.0000 0.33690  0.08200  0.17600  Biso   1.000  C
  H55      1.0000 0.30680  0.09650  0.20850  Biso   1.000  H
  C62      1.0000 0.35520  0.00530  0.17350  Biso   1.000  C
  C63      1.0000 0.40180  0.98570  0.12820  Biso   1.000  C
  H56      1.0000 0.41650  0.93390  0.12890  Biso   1.000  H
  C64      1.0000 0.32870  0.94090  0.22460  Biso   1.000  C
  H57      1.0000 0.33790  0.88630  0.21010  Biso   1.000  H
  H58      1.0000 0.26330  0.92970  0.22290  Biso   1.000  H
  C65      1.0000 0.35970  0.92690  0.35370  Biso   1.000  C
  H59      1.0000 0.30180  0.93220  0.36130  Biso   1.000  H
  H60      1.0000 0.35400  0.86590  0.34300  Biso   1.000  H
  C66      1.0000 0.44520  0.97420  0.41800  Biso   1.000  C
  H61      1.0000 0.45030  0.03540  0.42440  Biso   1.000  H
  H62      1.0000 0.50190  0.96940  0.40770  Biso   1.000  H
  C67      1.0000 0.88470  0.91600  0.95240  Biso   1.000  C
  H63      1.0000 0.89270  0.86150  0.94650  Biso   1.000  H
  C68      1.0000 0.86070  0.94120  0.01130  Biso   1.000  C
  H64      1.0000 0.85600  0.90460  0.04560  Biso   1.000  H
  C69      1.0000 0.84350  0.01900  0.02110  Biso   1.000  C
  H65      1.0000 0.82570  0.03580  0.06060  Biso   1.000  H
  C70      1.0000 0.85420  0.07110  0.96860  Biso   1.000  C
  C71      1.0000 0.88140  0.04350  0.91300  Biso   1.000  C
  H66      1.0000 0.89000  0.08010  0.87910  Biso   1.000  H
  C72      1.0000 0.83220  0.15680  0.97620  Biso   1.000  C
  H67      1.0000 0.79950  0.15670  0.01260  Biso   1.000  H
  H68      1.0000 0.79080  0.16130  0.93190  Biso   1.000  H
  C73      1.0000 0.89950  0.31600  0.01660  Biso   1.000  C
  H69      1.0000 0.83900  0.31670  0.98870  Biso   1.000  H
  H70      1.0000 0.90030  0.32120  0.06630  Biso   1.000  H
  C74      1.0000 0.97910  0.39240  0.00380  Biso   1.000  C
  H71      1.0000 0.98440  0.38390  0.95580  Biso   1.000  H
  H72      1.0000 0.03880  0.39820  0.03690  Biso   1.000  H
  N5       1.0000 0.89670  0.96720  0.90380  Biso   1.000  N
  N6       1.0000 0.91710  0.23410  0.99490  Biso   1.000  N
  H73      1.0000 0.94050  0.24030  0.95760  Biso   1.000  H
  H74      1.0000 0.95990  0.22480  0.03010  Biso   1.000  H
  N7       1.0000 0.42840  0.03990  0.08110  Biso   1.000  N
  N8       1.0000 0.38710  0.97670  0.29800  Biso   1.000  N
  H75      1.0000 0.38530  0.03050  0.30780  Biso   1.000  H
  H76      1.0000 0.44600  0.98020  0.29980  Biso   1.000  H
  O13      1.0000 0.06350  0.98350  0.80540  Biso   1.000  O
  O14      1.0000 0.01150  0.06140  0.72790  Biso   1.000  O
  O15      1.0000 0.87400  0.80830  0.70500  Biso   1.000  O
  O16      1.0000 0.78700  0.78720  0.78040  Biso   1.000  O
  O17      1.0000 0.40480  0.04600  0.91090  Biso   1.000  O
  O18      1.0000 0.48950  0.18590  0.92370  Biso   1.000  O
  O19      1.0000 0.47320  0.54860  0.69480  Biso   1.000  O
  O20      1.0000 0.67120  0.49180  0.45820  Biso   1.000  O
  O21      1.0000 0.74880  0.63070  0.46500  Biso   1.000  O
  O22      1.0000 0.24290  0.32040  0.67990  Biso   1.000  O
  O23      1.0000 0.37400  0.37360  0.75580  Biso   1.000  O
  O24      1.0000 0.46820  0.43360  0.62540  Biso   1.000  O
  C75      1.0000 0.43700  0.93820  0.48730  Biso   1.000  C
  H77      1.0000 0.43060  0.87720  0.48280  Biso   1.000  H
  H78      1.0000 0.38260  0.94730  0.49740  Biso   1.000  H
  C76      1.0000 0.94680  0.47340  0.01680  Biso   1.000  C
  H79      1.0000 0.94400  0.47890  0.06520  Biso   1.000  H
  H80      1.0000 0.88640  0.46740  0.98590  Biso   1.000  H
  C77      1.0000 0.51030  0.99020  0.44740  Biso   1.000  C
  H81      1.0000 0.52850  0.03240  0.41730  Biso   1.000  H
  H82      1.0000 0.52810  0.93990  0.43620  Biso   1.000  H
  C78      1.0000 0.40320  0.96640  0.43270  Biso   1.000  C
  H83      1.0000 0.38300  0.92250  0.46160  Biso   1.000  H
  H84      1.0000 0.38340  0.01610  0.44420  Biso   1.000  H
  C79      1.0000 0.97600  0.43740  0.96430  Biso   1.000  C
  H85      1.0000 0.91560  0.44420  0.94400  Biso   1.000  H
  H86      1.0000 0.98640  0.39510  0.93340  Biso   1.000  H
  C80      1.0000 0.97360  0.40650  0.03620  Biso   1.000  C
  H87      1.0000 0.03410  0.39940  0.05700  Biso   1.000  H
  H88      1.0000 0.96100  0.44610  0.06900  Biso   1.000  H
  H89      1.0000 0.87450  0.30640  0.05720  Biso   1.000  H
  H90      1.0000 0.84920  0.32110  0.97850  Biso   1.000  H
  H91      1.0000 0.29240  0.91290  0.34460  Biso   1.000  H
  H92      1.0000 0.37300  0.87230  0.34740  Biso   1.000  H
  Cd5      1.0000 0.50000  0.00000  0.00000  Biso   1.000  Cd
