data_image0
_cell_length_a       10.448
_cell_length_b       10.448
_cell_length_c       6.522
_cell_angle_alpha    90
_cell_angle_beta     90
_cell_angle_gamma    90

_symmetry_space_group_name_H-M    "P 1"
_symmetry_int_tables_number       1

loop_
  _symmetry_equiv_pos_as_xyz
  'x, y, z'

loop_
  _atom_site_label
  _atom_site_occupancy
  _atom_site_fract_x
  _atom_site_fract_y
  _atom_site_fract_z
  _atom_site_thermal_displace_type
  _atom_site_B_iso_or_equiv
  _atom_site_type_symbol
  N1       1.0000 0.09260  0.40580  0.02990  Biso   1.000  N
  C1       1.0000 0.08830  0.51030  0.14360  Biso   1.000  C
  H1       1.0000 0.15100  0.52150  0.24760  Biso   1.000  H
  C2       1.0000 0.00530  0.39450  0.88290  Biso   1.000  C
  H2       1.0000 0.00610  0.32180  0.79540  Biso   1.000  H
  O1       1.0000 0.21120  0.16350  0.40870  Biso   1.000  O
  C3       1.0000 0.13970  0.30140  0.45860  Biso   1.000  C
  H3       1.0000 0.08740  0.32450  0.57390  Biso   1.000  H
  H4       1.0000 0.12360  0.15780  0.37860  Biso   1.000  H
  H5       1.0000 0.25980  0.09500  0.37540  Biso   1.000  H
  N2       1.0000 0.40740  0.09420  0.02990  Biso   1.000  N
  C4       1.0000 0.41170  0.98970  0.14360  Biso   1.000  C
  H6       1.0000 0.34900  0.97850  0.24760  Biso   1.000  H
  C5       1.0000 0.49470  0.10550  0.88290  Biso   1.000  C
  H7       1.0000 0.49390  0.17820  0.79540  Biso   1.000  H
  O2       1.0000 0.28880  0.33650  0.40870  Biso   1.000  O
  C6       1.0000 0.36030  0.19860  0.45860  Biso   1.000  C
  H8       1.0000 0.41260  0.17550  0.57390  Biso   1.000  H
  H9       1.0000 0.37640  0.34220  0.37860  Biso   1.000  H
  H10      1.0000 0.24020  0.40500  0.37540  Biso   1.000  H
  N3       1.0000 0.09420  0.09260  0.02990  Biso   1.000  N
  C7       1.0000 0.98970  0.08830  0.14360  Biso   1.000  C
  H11      1.0000 0.97850  0.15100  0.24760  Biso   1.000  H
  C8       1.0000 0.10550  0.00530  0.88290  Biso   1.000  C
  H12      1.0000 0.17820  0.00610  0.79540  Biso   1.000  H
  O3       1.0000 0.33650  0.21120  0.40870  Biso   1.000  O
  C9       1.0000 0.19860  0.13970  0.45860  Biso   1.000  C
  H13      1.0000 0.17550  0.08740  0.57390  Biso   1.000  H
  H14      1.0000 0.34220  0.12360  0.37860  Biso   1.000  H
  H15      1.0000 0.40500  0.25980  0.37540  Biso   1.000  H
  N4       1.0000 0.40580  0.40740  0.02990  Biso   1.000  N
  C10      1.0000 0.51030  0.41170  0.14360  Biso   1.000  C
  H16      1.0000 0.52150  0.34900  0.24760  Biso   1.000  H
  C11      1.0000 0.39450  0.49470  0.88290  Biso   1.000  C
  H17      1.0000 0.32180  0.49390  0.79540  Biso   1.000  H
  O4       1.0000 0.16350  0.28880  0.40870  Biso   1.000  O
  C12      1.0000 0.30140  0.36030  0.45860  Biso   1.000  C
  H18      1.0000 0.32450  0.41260  0.57390  Biso   1.000  H
  H19      1.0000 0.15780  0.37640  0.37860  Biso   1.000  H
  H20      1.0000 0.09500  0.24020  0.37540  Biso   1.000  H
  N5       1.0000 0.90740  0.59420  0.97010  Biso   1.000  N
  C13      1.0000 0.91170  0.48970  0.85640  Biso   1.000  C
  H21      1.0000 0.84900  0.47850  0.75240  Biso   1.000  H
  C14      1.0000 0.99470  0.60550  0.11710  Biso   1.000  C
  H22      1.0000 0.99390  0.67820  0.20460  Biso   1.000  H
  O5       1.0000 0.78880  0.83650  0.59130  Biso   1.000  O
  C15      1.0000 0.86030  0.69860  0.54140  Biso   1.000  C
  H23      1.0000 0.91260  0.67550  0.42610  Biso   1.000  H
  H24      1.0000 0.87640  0.84220  0.62140  Biso   1.000  H
  H25      1.0000 0.74020  0.90500  0.62460  Biso   1.000  H
  N6       1.0000 0.59260  0.90580  0.97010  Biso   1.000  N
  C16      1.0000 0.58830  0.01030  0.85640  Biso   1.000  C
  H26      1.0000 0.65100  0.02150  0.75240  Biso   1.000  H
  C17      1.0000 0.50530  0.89450  0.11710  Biso   1.000  C
  H27      1.0000 0.50610  0.82180  0.20460  Biso   1.000  H
  O6       1.0000 0.71120  0.66350  0.59130  Biso   1.000  O
  C18      1.0000 0.63970  0.80140  0.54140  Biso   1.000  C
  H28      1.0000 0.58740  0.82450  0.42610  Biso   1.000  H
  H29      1.0000 0.62360  0.65780  0.62140  Biso   1.000  H
  H30      1.0000 0.75980  0.59500  0.62460  Biso   1.000  H
  N7       1.0000 0.90580  0.90740  0.97010  Biso   1.000  N
  C19      1.0000 0.01030  0.91170  0.85640  Biso   1.000  C
  H31      1.0000 0.02150  0.84900  0.75240  Biso   1.000  H
  C20      1.0000 0.89450  0.99470  0.11710  Biso   1.000  C
  H32      1.0000 0.82180  0.99390  0.20460  Biso   1.000  H
  O7       1.0000 0.66350  0.78880  0.59130  Biso   1.000  O
  C21      1.0000 0.80140  0.86030  0.54140  Biso   1.000  C
  H33      1.0000 0.82450  0.91260  0.42610  Biso   1.000  H
  H34      1.0000 0.65780  0.87640  0.62140  Biso   1.000  H
  H35      1.0000 0.59500  0.74020  0.62460  Biso   1.000  H
  N8       1.0000 0.59420  0.59260  0.97010  Biso   1.000  N
  C22      1.0000 0.48970  0.58830  0.85640  Biso   1.000  C
  H36      1.0000 0.47850  0.65100  0.75240  Biso   1.000  H
  C23      1.0000 0.60550  0.50530  0.11710  Biso   1.000  C
  H37      1.0000 0.67820  0.50610  0.20460  Biso   1.000  H
  O8       1.0000 0.83650  0.71120  0.59130  Biso   1.000  O
  C24      1.0000 0.69860  0.63970  0.54140  Biso   1.000  C
  H38      1.0000 0.67550  0.58740  0.42610  Biso   1.000  H
  H39      1.0000 0.84220  0.62360  0.62140  Biso   1.000  H
  H40      1.0000 0.90500  0.75980  0.62460  Biso   1.000  H
  Cd1      1.0000 0.25000  0.25000  0.08138  Biso   1.000  Cd
  O9       1.0000 0.25000  0.25000  0.70900  Biso   1.000  O
  C25      1.0000 0.25000  0.25000  0.52560  Biso   1.000  C
  Cd2      1.0000 0.75000  0.75000  0.91862  Biso   1.000  Cd
  O10      1.0000 0.75000  0.75000  0.29100  Biso   1.000  O
  C26      1.0000 0.75000  0.75000  0.47440  Biso   1.000  C
