data_image0
_cell_length_a       12.446
_cell_length_b       7.287
_cell_length_c       17.819
_cell_angle_alpha    90
_cell_angle_beta     97.23
_cell_angle_gamma    90

_symmetry_space_group_name_H-M    "P 1"
_symmetry_int_tables_number       1

loop_
  _symmetry_equiv_pos_as_xyz
  'x, y, z'

loop_
  _atom_site_label
  _atom_site_occupancy
  _atom_site_fract_x
  _atom_site_fract_y
  _atom_site_fract_z
  _atom_site_thermal_displace_type
  _atom_site_B_iso_or_equiv
  _atom_site_type_symbol
  P1       1.0000 0.19048  0.86740  0.87992  Biso   1.000  P
  O1       1.0000 0.10320  0.04820  0.72420  Biso   1.000  O
  O2       1.0000 0.71830  0.86770  0.77660  Biso   1.000  O
  O3       1.0000 0.24370  0.69040  0.85630  Biso   1.000  O
  O4       1.0000 0.90370  0.67380  0.77080  Biso   1.000  O
  O5       1.0000 0.24360  0.03700  0.84900  Biso   1.000  O
  O6       1.0000 0.06820  0.86510  0.85250  Biso   1.000  O
  O7       1.0000 0.20440  0.88030  0.96680  Biso   1.000  O
  H1       1.0000 0.25580  0.27130  0.50140  Biso   1.000  H
  V1       1.0000 0.23658  0.07414  0.73904  Biso   1.000  V
  P2       1.0000 0.69048  0.36740  0.87992  Biso   1.000  P
  O8       1.0000 0.60320  0.54820  0.72420  Biso   1.000  O
  O9       1.0000 0.21830  0.36770  0.77660  Biso   1.000  O
  O10      1.0000 0.74370  0.19040  0.85630  Biso   1.000  O
  O11      1.0000 0.40370  0.17380  0.77080  Biso   1.000  O
  O12      1.0000 0.74360  0.53700  0.84900  Biso   1.000  O
  O13      1.0000 0.56820  0.36510  0.85250  Biso   1.000  O
  O14      1.0000 0.70440  0.38030  0.96680  Biso   1.000  O
  H2       1.0000 0.75580  0.77130  0.50140  Biso   1.000  H
  V2       1.0000 0.73658  0.57414  0.73904  Biso   1.000  V
  P3       1.0000 0.80952  0.86740  0.62008  Biso   1.000  P
  O15      1.0000 0.89680  0.04820  0.77580  Biso   1.000  O
  O16      1.0000 0.28170  0.86770  0.72340  Biso   1.000  O
  O17      1.0000 0.75630  0.69040  0.64370  Biso   1.000  O
  O18      1.0000 0.09630  0.67380  0.72920  Biso   1.000  O
  O19      1.0000 0.75640  0.03700  0.65100  Biso   1.000  O
  O20      1.0000 0.93180  0.86510  0.64750  Biso   1.000  O
  O21      1.0000 0.79560  0.88030  0.53320  Biso   1.000  O
  H3       1.0000 0.74420  0.27130  0.99860  Biso   1.000  H
  V3       1.0000 0.76342  0.07414  0.76096  Biso   1.000  V
  P4       1.0000 0.30952  0.36740  0.62008  Biso   1.000  P
  O22      1.0000 0.39680  0.54820  0.77580  Biso   1.000  O
  O23      1.0000 0.78170  0.36770  0.72340  Biso   1.000  O
  O24      1.0000 0.25630  0.19040  0.64370  Biso   1.000  O
  O25      1.0000 0.59630  0.17380  0.72920  Biso   1.000  O
  O26      1.0000 0.25640  0.53700  0.65100  Biso   1.000  O
  O27      1.0000 0.43180  0.36510  0.64750  Biso   1.000  O
  O28      1.0000 0.29560  0.38030  0.53320  Biso   1.000  O
  H4       1.0000 0.24420  0.77130  0.99860  Biso   1.000  H
  V4       1.0000 0.26342  0.57414  0.76096  Biso   1.000  V
  P5       1.0000 0.80952  0.13260  0.12008  Biso   1.000  P
  O29      1.0000 0.89680  0.95180  0.27580  Biso   1.000  O
  O30      1.0000 0.28170  0.13230  0.22340  Biso   1.000  O
  O31      1.0000 0.75630  0.30960  0.14370  Biso   1.000  O
  O32      1.0000 0.09630  0.32620  0.22920  Biso   1.000  O
  O33      1.0000 0.75640  0.96300  0.15100  Biso   1.000  O
  O34      1.0000 0.93180  0.13490  0.14750  Biso   1.000  O
  O35      1.0000 0.79560  0.11970  0.03320  Biso   1.000  O
  H5       1.0000 0.74420  0.72870  0.49860  Biso   1.000  H
  V5       1.0000 0.76342  0.92586  0.26096  Biso   1.000  V
  P6       1.0000 0.30952  0.63260  0.12008  Biso   1.000  P
  O36      1.0000 0.39680  0.45180  0.27580  Biso   1.000  O
  O37      1.0000 0.78170  0.63230  0.22340  Biso   1.000  O
  O38      1.0000 0.25630  0.80960  0.14370  Biso   1.000  O
  O39      1.0000 0.59630  0.82620  0.22920  Biso   1.000  O
  O40      1.0000 0.25640  0.46300  0.15100  Biso   1.000  O
  O41      1.0000 0.43180  0.63490  0.14750  Biso   1.000  O
  O42      1.0000 0.29560  0.61970  0.03320  Biso   1.000  O
  H6       1.0000 0.24420  0.22870  0.49860  Biso   1.000  H
  V6       1.0000 0.26342  0.42586  0.26096  Biso   1.000  V
  P7       1.0000 0.19048  0.13260  0.37992  Biso   1.000  P
  O43      1.0000 0.10320  0.95180  0.22420  Biso   1.000  O
  O44      1.0000 0.71830  0.13230  0.27660  Biso   1.000  O
  O45      1.0000 0.24370  0.30960  0.35630  Biso   1.000  O
  O46      1.0000 0.90370  0.32620  0.27080  Biso   1.000  O
  O47      1.0000 0.24360  0.96300  0.34900  Biso   1.000  O
  O48      1.0000 0.06820  0.13490  0.35250  Biso   1.000  O
  O49      1.0000 0.20440  0.11970  0.46680  Biso   1.000  O
  H7       1.0000 0.25580  0.72870  0.00140  Biso   1.000  H
  V7       1.0000 0.23658  0.92586  0.23904  Biso   1.000  V
  P8       1.0000 0.69048  0.63260  0.37992  Biso   1.000  P
  O50      1.0000 0.60320  0.45180  0.22420  Biso   1.000  O
  O51      1.0000 0.21830  0.63230  0.27660  Biso   1.000  O
  O52      1.0000 0.74370  0.80960  0.35630  Biso   1.000  O
  O53      1.0000 0.40370  0.82620  0.27080  Biso   1.000  O
  O54      1.0000 0.74360  0.46300  0.34900  Biso   1.000  O
  O55      1.0000 0.56820  0.63490  0.35250  Biso   1.000  O
  O56      1.0000 0.70440  0.61970  0.46680  Biso   1.000  O
  H8       1.0000 0.75580  0.22870  0.00140  Biso   1.000  H
  V8       1.0000 0.73658  0.42586  0.23904  Biso   1.000  V
  V9       1.0000 0.00000  0.81170  0.75000  Biso   1.000  V
  V10      1.0000 0.50000  0.31170  0.75000  Biso   1.000  V
  V11      1.0000 0.00000  0.18830  0.25000  Biso   1.000  V
  V12      1.0000 0.50000  0.68830  0.25000  Biso   1.000  V
