data_image0
_cell_length_a       11.8401
_cell_length_b       6.824
_cell_length_c       17.4619
_cell_angle_alpha    90
_cell_angle_beta     93.816
_cell_angle_gamma    90

_symmetry_space_group_name_H-M    "P 1"
_symmetry_int_tables_number       1

loop_
  _symmetry_equiv_pos_as_xyz
  'x, y, z'

loop_
  _atom_site_label
  _atom_site_occupancy
  _atom_site_fract_x
  _atom_site_fract_y
  _atom_site_fract_z
  _atom_site_thermal_displace_type
  _atom_site_B_iso_or_equiv
  _atom_site_type_symbol
  N1       1.0000 0.61500  0.80800  0.10880  Biso   1.000  N
  N2       1.0000 0.57590  0.07640  0.17890  Biso   1.000  N
  O1       1.0000 0.60100  0.46200  0.28430  Biso   1.000  O
  O2       1.0000 0.68800  0.23200  0.35480  Biso   1.000  O
  C1       1.0000 0.67700  0.40300  0.33300  Biso   1.000  C
  C2       1.0000 0.75000  0.56000  0.37000  Biso   1.000  C
  C3       1.0000 0.75700  0.75000  0.34800  Biso   1.000  C
  H1       1.0000 0.71220  0.79970  0.30580  Biso   1.000  H
  C4       1.0000 0.83000  0.88100  0.38800  Biso   1.000  C
  H2       1.0000 0.83500  0.01110  0.37350  Biso   1.000  H
  C5       1.0000 0.90000  0.81000  0.45100  Biso   1.000  C
  C6       1.0000 0.89000  0.61900  0.47300  Biso   1.000  C
  H3       1.0000 0.93480  0.57360  0.51470  Biso   1.000  H
  C7       1.0000 0.81800  0.49500  0.43200  Biso   1.000  C
  H4       1.0000 0.81410  0.36390  0.44710  Biso   1.000  H
  C8       1.0000 0.98100  0.92700  0.50100  Biso   1.000  C
  H5       1.0000 0.00550  0.85760  0.54520  Biso   1.000  H
  C9       1.0000 0.54100  0.88700  0.15850  Biso   1.000  C
  H6       1.0000 0.47710  0.82460  0.17550  Biso   1.000  H
  C10      1.0000 0.67400  0.11600  0.14200  Biso   1.000  C
  H7       1.0000 0.71580  0.23160  0.14530  Biso   1.000  H
  C11      1.0000 0.70000  0.95000  0.10000  Biso   1.000  C
  H8       1.0000 0.75990  0.93510  0.06760  Biso   1.000  H
  C12      1.0000 0.59800  0.61000  0.07710  Biso   1.000  C
  H9       1.0000 0.66690  0.57050  0.05390  Biso   1.000  H
  H10      1.0000 0.58750  0.52010  0.11920  Biso   1.000  H
  C13      1.0000 0.50700  0.58800  0.02200  Biso   1.000  C
  H11      1.0000 0.51010  0.69590  0.98640  Biso   1.000  H
  H12      1.0000 0.43790  0.60500  0.04870  Biso   1.000  H
  N3       1.0000 0.57000  0.89000  0.07200  Biso   1.000  N
  O3       1.0000 0.61800  0.33500  0.32300  Biso   1.000  O
  O4       1.0000 0.65700  0.52800  0.23300  Biso   1.000  O
  C14      1.0000 0.67300  0.47300  0.30100  Biso   1.000  C
  C15      1.0000 0.50300  0.97100  0.12700  Biso   1.000  C
  H13      1.0000 0.42560  0.95630  0.12980  Biso   1.000  H
  C16      1.0000 0.69000  0.06000  0.15600  Biso   1.000  C
  H14      1.0000 0.75050  0.12050  0.18020  Biso   1.000  H
  C17      1.0000 0.68000  0.95000  0.09000  Biso   1.000  C
  H15      1.0000 0.74350  0.91480  0.06020  Biso   1.000  H
  C18      1.0000 0.52000  0.76800  0.00900  Biso   1.000  C
  H16      1.0000 0.44030  0.80040  0.00060  Biso   1.000  H
  H17      1.0000 0.55590  0.80120  0.96200  Biso   1.000  H
  C19      1.0000 0.53000  0.61000  0.01900  Biso   1.000  C
  H18      1.0000 0.51530  0.59650  0.07280  Biso   1.000  H
  H19      1.0000 0.60900  0.58720  0.01600  Biso   1.000  H
  C20      1.0000 0.95700  0.02000  0.47100  Biso   1.000  C
  H20      1.0000 0.94500  0.15350  0.45740  Biso   1.000  H
  C21      1.0000 0.86200  0.69000  0.46800  Biso   1.000  C
  H21      1.0000 0.89290  0.66280  0.51740  Biso   1.000  H
  C22      1.0000 0.75000  0.60000  0.35000  Biso   1.000  C
  C23      1.0000 0.88000  0.87000  0.43300  Biso   1.000  C
  C24      1.0000 0.79300  0.55000  0.42800  Biso   1.000  C
  H22      1.0000 0.77730  0.43580  0.45090  Biso   1.000  H
  C25      1.0000 0.84000  0.91000  0.36000  Biso   1.000  C
  H23      1.0000 0.85560  0.02890  0.33760  Biso   1.000  H
  C26      1.0000 0.77200  0.77000  0.32100  Biso   1.000  C
  H24      1.0000 0.74140  0.80190  0.27170  Biso   1.000  H
  N4       1.0000 0.38500  0.80800  0.39120  Biso   1.000  N
  N5       1.0000 0.42410  0.07640  0.32110  Biso   1.000  N
  O5       1.0000 0.39900  0.46200  0.21570  Biso   1.000  O
  O6       1.0000 0.31200  0.23200  0.14520  Biso   1.000  O
  C27      1.0000 0.32300  0.40300  0.16700  Biso   1.000  C
  C28      1.0000 0.25000  0.56000  0.13000  Biso   1.000  C
  C29      1.0000 0.24300  0.75000  0.15200  Biso   1.000  C
  H25      1.0000 0.28780  0.79970  0.19420  Biso   1.000  H
  C30      1.0000 0.17000  0.88100  0.11200  Biso   1.000  C
  H26      1.0000 0.16500  0.01110  0.12650  Biso   1.000  H
  C31      1.0000 0.10000  0.81000  0.04900  Biso   1.000  C
  C32      1.0000 0.11000  0.61900  0.02700  Biso   1.000  C
  H27      1.0000 0.06520  0.57360  0.98530  Biso   1.000  H
  C33      1.0000 0.18200  0.49500  0.06800  Biso   1.000  C
  H28      1.0000 0.18590  0.36390  0.05290  Biso   1.000  H
  C34      1.0000 0.01900  0.92700  0.99900  Biso   1.000  C
  H29      1.0000 0.99450  0.85760  0.95480  Biso   1.000  H
  C35      1.0000 0.45900  0.88700  0.34150  Biso   1.000  C
  H30      1.0000 0.52290  0.82460  0.32450  Biso   1.000  H
  C36      1.0000 0.32600  0.11600  0.35800  Biso   1.000  C
  H31      1.0000 0.28420  0.23160  0.35470  Biso   1.000  H
  C37      1.0000 0.30000  0.95000  0.40000  Biso   1.000  C
  H32      1.0000 0.24010  0.93510  0.43240  Biso   1.000  H
  C38      1.0000 0.40200  0.61000  0.42290  Biso   1.000  C
  H33      1.0000 0.33310  0.57050  0.44610  Biso   1.000  H
  H34      1.0000 0.41250  0.52010  0.38080  Biso   1.000  H
  C39      1.0000 0.49300  0.58800  0.47800  Biso   1.000  C
  H35      1.0000 0.48990  0.69590  0.51360  Biso   1.000  H
  H36      1.0000 0.56210  0.60500  0.45130  Biso   1.000  H
  N6       1.0000 0.43000  0.89000  0.42800  Biso   1.000  N
  O7       1.0000 0.38200  0.33500  0.17700  Biso   1.000  O
  O8       1.0000 0.34300  0.52800  0.26700  Biso   1.000  O
  C40      1.0000 0.32700  0.47300  0.19900  Biso   1.000  C
  C41      1.0000 0.49700  0.97100  0.37300  Biso   1.000  C
  H37      1.0000 0.57440  0.95630  0.37020  Biso   1.000  H
  C42      1.0000 0.31000  0.06000  0.34400  Biso   1.000  C
  H38      1.0000 0.24950  0.12050  0.31980  Biso   1.000  H
  C43      1.0000 0.32000  0.95000  0.41000  Biso   1.000  C
  H39      1.0000 0.25650  0.91480  0.43980  Biso   1.000  H
  C44      1.0000 0.48000  0.76800  0.49100  Biso   1.000  C
  H40      1.0000 0.55970  0.80040  0.49940  Biso   1.000  H
  H41      1.0000 0.44410  0.80120  0.53800  Biso   1.000  H
  C45      1.0000 0.47000  0.61000  0.48100  Biso   1.000  C
  H42      1.0000 0.48470  0.59650  0.42720  Biso   1.000  H
  H43      1.0000 0.39100  0.58720  0.48400  Biso   1.000  H
  C46      1.0000 0.04300  0.02000  0.02900  Biso   1.000  C
  H44      1.0000 0.05500  0.15350  0.04260  Biso   1.000  H
  C47      1.0000 0.13800  0.69000  0.03200  Biso   1.000  C
  H45      1.0000 0.10710  0.66280  0.98260  Biso   1.000  H
  C48      1.0000 0.25000  0.60000  0.15000  Biso   1.000  C
  C49      1.0000 0.12000  0.87000  0.06700  Biso   1.000  C
  C50      1.0000 0.20700  0.55000  0.07200  Biso   1.000  C
  H46      1.0000 0.22270  0.43580  0.04910  Biso   1.000  H
  C51      1.0000 0.16000  0.91000  0.14000  Biso   1.000  C
  H47      1.0000 0.14440  0.02890  0.16240  Biso   1.000  H
  C52      1.0000 0.22800  0.77000  0.17900  Biso   1.000  C
  H48      1.0000 0.25860  0.80190  0.22830  Biso   1.000  H
  N7       1.0000 0.38500  0.19200  0.89120  Biso   1.000  N
  N8       1.0000 0.42410  0.92360  0.82110  Biso   1.000  N
  O9       1.0000 0.39900  0.53800  0.71570  Biso   1.000  O
  O10      1.0000 0.31200  0.76800  0.64520  Biso   1.000  O
  C53      1.0000 0.32300  0.59700  0.66700  Biso   1.000  C
  C54      1.0000 0.25000  0.44000  0.63000  Biso   1.000  C
  C55      1.0000 0.24300  0.25000  0.65200  Biso   1.000  C
  H49      1.0000 0.28780  0.20030  0.69420  Biso   1.000  H
  C56      1.0000 0.17000  0.11900  0.61200  Biso   1.000  C
  H50      1.0000 0.16500  0.98890  0.62650  Biso   1.000  H
  C57      1.0000 0.10000  0.19000  0.54900  Biso   1.000  C
  C58      1.0000 0.11000  0.38100  0.52700  Biso   1.000  C
  H51      1.0000 0.06520  0.42640  0.48530  Biso   1.000  H
  C59      1.0000 0.18200  0.50500  0.56800  Biso   1.000  C
  H52      1.0000 0.18590  0.63610  0.55290  Biso   1.000  H
  C60      1.0000 0.01900  0.07300  0.49900  Biso   1.000  C
  H53      1.0000 0.99450  0.14240  0.45480  Biso   1.000  H
  C61      1.0000 0.45900  0.11300  0.84150  Biso   1.000  C
  H54      1.0000 0.52290  0.17540  0.82450  Biso   1.000  H
  C62      1.0000 0.32600  0.88400  0.85800  Biso   1.000  C
  H55      1.0000 0.28420  0.76840  0.85470  Biso   1.000  H
  C63      1.0000 0.30000  0.05000  0.90000  Biso   1.000  C
  H56      1.0000 0.24010  0.06490  0.93240  Biso   1.000  H
  C64      1.0000 0.40200  0.39000  0.92290  Biso   1.000  C
  H57      1.0000 0.33310  0.42950  0.94610  Biso   1.000  H
  H58      1.0000 0.41250  0.47990  0.88080  Biso   1.000  H
  C65      1.0000 0.49300  0.41200  0.97800  Biso   1.000  C
  H59      1.0000 0.48990  0.30410  0.01360  Biso   1.000  H
  H60      1.0000 0.56210  0.39500  0.95130  Biso   1.000  H
  N9       1.0000 0.43000  0.11000  0.92800  Biso   1.000  N
  O11      1.0000 0.38200  0.66500  0.67700  Biso   1.000  O
  O12      1.0000 0.34300  0.47200  0.76700  Biso   1.000  O
  C66      1.0000 0.32700  0.52700  0.69900  Biso   1.000  C
  C67      1.0000 0.49700  0.02900  0.87300  Biso   1.000  C
  H61      1.0000 0.57440  0.04370  0.87020  Biso   1.000  H
  C68      1.0000 0.31000  0.94000  0.84400  Biso   1.000  C
  H62      1.0000 0.24950  0.87950  0.81980  Biso   1.000  H
  C69      1.0000 0.32000  0.05000  0.91000  Biso   1.000  C
  H63      1.0000 0.25650  0.08520  0.93980  Biso   1.000  H
  C70      1.0000 0.48000  0.23200  0.99100  Biso   1.000  C
  H64      1.0000 0.55970  0.19960  0.99940  Biso   1.000  H
  H65      1.0000 0.44410  0.19880  0.03800  Biso   1.000  H
  C71      1.0000 0.47000  0.39000  0.98100  Biso   1.000  C
  H66      1.0000 0.48470  0.40350  0.92720  Biso   1.000  H
  H67      1.0000 0.39100  0.41280  0.98400  Biso   1.000  H
  C72      1.0000 0.04300  0.98000  0.52900  Biso   1.000  C
  H68      1.0000 0.05500  0.84650  0.54260  Biso   1.000  H
  C73      1.0000 0.13800  0.31000  0.53200  Biso   1.000  C
  H69      1.0000 0.10710  0.33720  0.48260  Biso   1.000  H
  C74      1.0000 0.25000  0.40000  0.65000  Biso   1.000  C
  C75      1.0000 0.12000  0.13000  0.56700  Biso   1.000  C
  C76      1.0000 0.20700  0.45000  0.57200  Biso   1.000  C
  H70      1.0000 0.22270  0.56420  0.54910  Biso   1.000  H
  C77      1.0000 0.16000  0.09000  0.64000  Biso   1.000  C
  H71      1.0000 0.14440  0.97110  0.66240  Biso   1.000  H
  C78      1.0000 0.22800  0.23000  0.67900  Biso   1.000  C
  H72      1.0000 0.25860  0.19810  0.72830  Biso   1.000  H
  N10      1.0000 0.61500  0.19200  0.60880  Biso   1.000  N
  N11      1.0000 0.57590  0.92360  0.67890  Biso   1.000  N
  O13      1.0000 0.60100  0.53800  0.78430  Biso   1.000  O
  O14      1.0000 0.68800  0.76800  0.85480  Biso   1.000  O
  C79      1.0000 0.67700  0.59700  0.83300  Biso   1.000  C
  C80      1.0000 0.75000  0.44000  0.87000  Biso   1.000  C
  C81      1.0000 0.75700  0.25000  0.84800  Biso   1.000  C
  H73      1.0000 0.71220  0.20030  0.80580  Biso   1.000  H
  C82      1.0000 0.83000  0.11900  0.88800  Biso   1.000  C
  H74      1.0000 0.83500  0.98890  0.87350  Biso   1.000  H
  C83      1.0000 0.90000  0.19000  0.95100  Biso   1.000  C
  C84      1.0000 0.89000  0.38100  0.97300  Biso   1.000  C
  H75      1.0000 0.93480  0.42640  0.01470  Biso   1.000  H
  C85      1.0000 0.81800  0.50500  0.93200  Biso   1.000  C
  H76      1.0000 0.81410  0.63610  0.94710  Biso   1.000  H
  C86      1.0000 0.98100  0.07300  0.00100  Biso   1.000  C
  H77      1.0000 0.00550  0.14240  0.04520  Biso   1.000  H
  C87      1.0000 0.54100  0.11300  0.65850  Biso   1.000  C
  H78      1.0000 0.47710  0.17540  0.67550  Biso   1.000  H
  C88      1.0000 0.67400  0.88400  0.64200  Biso   1.000  C
  H79      1.0000 0.71580  0.76840  0.64530  Biso   1.000  H
  C89      1.0000 0.70000  0.05000  0.60000  Biso   1.000  C
  H80      1.0000 0.75990  0.06490  0.56760  Biso   1.000  H
  C90      1.0000 0.59800  0.39000  0.57710  Biso   1.000  C
  H81      1.0000 0.66690  0.42950  0.55390  Biso   1.000  H
  H82      1.0000 0.58750  0.47990  0.61920  Biso   1.000  H
  C91      1.0000 0.50700  0.41200  0.52200  Biso   1.000  C
  H83      1.0000 0.51010  0.30410  0.48640  Biso   1.000  H
  H84      1.0000 0.43790  0.39500  0.54870  Biso   1.000  H
  N12      1.0000 0.57000  0.11000  0.57200  Biso   1.000  N
  O15      1.0000 0.61800  0.66500  0.82300  Biso   1.000  O
  O16      1.0000 0.65700  0.47200  0.73300  Biso   1.000  O
  C92      1.0000 0.67300  0.52700  0.80100  Biso   1.000  C
  C93      1.0000 0.50300  0.02900  0.62700  Biso   1.000  C
  H85      1.0000 0.42560  0.04370  0.62980  Biso   1.000  H
  C94      1.0000 0.69000  0.94000  0.65600  Biso   1.000  C
  H86      1.0000 0.75050  0.87950  0.68020  Biso   1.000  H
  C95      1.0000 0.68000  0.05000  0.59000  Biso   1.000  C
  H87      1.0000 0.74350  0.08520  0.56020  Biso   1.000  H
  C96      1.0000 0.52000  0.23200  0.50900  Biso   1.000  C
  H88      1.0000 0.44030  0.19960  0.50060  Biso   1.000  H
  H89      1.0000 0.55590  0.19880  0.46200  Biso   1.000  H
  C97      1.0000 0.53000  0.39000  0.51900  Biso   1.000  C
  H90      1.0000 0.51530  0.40350  0.57280  Biso   1.000  H
  H91      1.0000 0.60900  0.41280  0.51600  Biso   1.000  H
  C98      1.0000 0.95700  0.98000  0.97100  Biso   1.000  C
  H92      1.0000 0.94500  0.84650  0.95740  Biso   1.000  H
  C99      1.0000 0.86200  0.31000  0.96800  Biso   1.000  C
  H93      1.0000 0.89290  0.33720  0.01740  Biso   1.000  H
  C100     1.0000 0.75000  0.40000  0.85000  Biso   1.000  C
  C101     1.0000 0.88000  0.13000  0.93300  Biso   1.000  C
  C102     1.0000 0.79300  0.45000  0.92800  Biso   1.000  C
  H94      1.0000 0.77730  0.56420  0.95090  Biso   1.000  H
  C103     1.0000 0.84000  0.09000  0.86000  Biso   1.000  C
  H95      1.0000 0.85560  0.97110  0.83760  Biso   1.000  H
  C104     1.0000 0.77200  0.23000  0.82100  Biso   1.000  C
  H96      1.0000 0.74140  0.19810  0.77170  Biso   1.000  H
  Zn1      1.0000 0.50000  0.24990  0.25000  Biso   1.000  Zn
  Zn2      1.0000 0.50000  0.75010  0.75000  Biso   1.000  Zn
