data_image0
_cell_length_a       17.302
_cell_length_b       17.302
_cell_length_c       22.789
_cell_angle_alpha    90
_cell_angle_beta     90
_cell_angle_gamma    90

_symmetry_space_group_name_H-M    "P 1"
_symmetry_int_tables_number       1

loop_
  _symmetry_equiv_pos_as_xyz
  'x, y, z'

loop_
  _atom_site_label
  _atom_site_occupancy
  _atom_site_fract_x
  _atom_site_fract_y
  _atom_site_fract_z
  _atom_site_thermal_displace_type
  _atom_site_B_iso_or_equiv
  _atom_site_type_symbol
  N1       1.0000 0.27080  0.12830  0.46280  Biso   1.000  N
  N2       1.0000 0.26610  0.87180  0.49920  Biso   1.000  N
  C1       1.0000 0.29600  0.06900  0.47220  Biso   1.000  C
  C2       1.0000 0.33450  0.00090  0.48510  Biso   1.000  C
  C3       1.0000 0.29330  0.93100  0.49270  Biso   1.000  C
  C4       1.0000 0.41900  0.99990  0.49350  Biso   1.000  C
  C5       1.0000 0.46240  0.06670  0.48420  Biso   1.000  C
  C6       1.0000 0.45820  0.93360  0.50870  Biso   1.000  C
  C7       1.0000 0.19420  0.28480  0.58620  Biso   1.000  C
  C8       1.0000 0.19180  0.28610  0.64710  Biso   1.000  C
  C9       1.0000 0.28500  0.19090  0.77680  Biso   1.000  C
  C10      1.0000 0.28390  0.19430  0.83670  Biso   1.000  C
  C11      1.0000 0.21770  0.80730  0.62480  Biso   1.000  C
  C12      1.0000 0.21680  0.80950  0.68510  Biso   1.000  C
  N3       1.0000 0.22920  0.37170  0.46280  Biso   1.000  N
  N4       1.0000 0.23390  0.62820  0.49920  Biso   1.000  N
  C13      1.0000 0.20400  0.43100  0.47220  Biso   1.000  C
  C14      1.0000 0.16550  0.49910  0.48510  Biso   1.000  C
  C15      1.0000 0.20670  0.56900  0.49270  Biso   1.000  C
  C16      1.0000 0.08100  0.50010  0.49350  Biso   1.000  C
  C17      1.0000 0.03760  0.43330  0.48420  Biso   1.000  C
  C18      1.0000 0.04180  0.56640  0.50870  Biso   1.000  C
  C19      1.0000 0.30580  0.21520  0.58620  Biso   1.000  C
  C20      1.0000 0.30820  0.21390  0.64710  Biso   1.000  C
  C21      1.0000 0.21500  0.30910  0.77680  Biso   1.000  C
  C22      1.0000 0.21610  0.30570  0.83670  Biso   1.000  C
  C23      1.0000 0.28230  0.69270  0.62480  Biso   1.000  C
  C24      1.0000 0.28320  0.69050  0.68510  Biso   1.000  C
  N5       1.0000 0.37170  0.27080  0.46280  Biso   1.000  N
  N6       1.0000 0.62820  0.26610  0.49920  Biso   1.000  N
  C25      1.0000 0.43100  0.29600  0.47220  Biso   1.000  C
  C26      1.0000 0.49910  0.33450  0.48510  Biso   1.000  C
  C27      1.0000 0.56900  0.29330  0.49270  Biso   1.000  C
  C28      1.0000 0.50010  0.41900  0.49350  Biso   1.000  C
  C29      1.0000 0.43330  0.46240  0.48420  Biso   1.000  C
  C30      1.0000 0.56640  0.45820  0.50870  Biso   1.000  C
  C31      1.0000 0.21520  0.19420  0.58620  Biso   1.000  C
  C32      1.0000 0.21390  0.19180  0.64710  Biso   1.000  C
  C33      1.0000 0.30910  0.28500  0.77680  Biso   1.000  C
  C34      1.0000 0.30570  0.28390  0.83670  Biso   1.000  C
  C35      1.0000 0.69270  0.21770  0.62480  Biso   1.000  C
  C36      1.0000 0.69050  0.21680  0.68510  Biso   1.000  C
  N7       1.0000 0.12830  0.22920  0.46280  Biso   1.000  N
  N8       1.0000 0.87180  0.23390  0.49920  Biso   1.000  N
  C37      1.0000 0.06900  0.20400  0.47220  Biso   1.000  C
  C38      1.0000 0.00090  0.16550  0.48510  Biso   1.000  C
  C39      1.0000 0.93100  0.20670  0.49270  Biso   1.000  C
  C40      1.0000 0.99990  0.08100  0.49350  Biso   1.000  C
  C41      1.0000 0.06670  0.03760  0.48420  Biso   1.000  C
  C42      1.0000 0.93360  0.04180  0.50870  Biso   1.000  C
  C43      1.0000 0.28480  0.30580  0.58620  Biso   1.000  C
  C44      1.0000 0.28610  0.30820  0.64710  Biso   1.000  C
  C45      1.0000 0.19090  0.21500  0.77680  Biso   1.000  C
  C46      1.0000 0.19430  0.21610  0.83670  Biso   1.000  C
  C47      1.0000 0.80730  0.28230  0.62480  Biso   1.000  C
  C48      1.0000 0.80950  0.28320  0.68510  Biso   1.000  C
  N9       1.0000 0.72920  0.62830  0.03720  Biso   1.000  N
  N10      1.0000 0.73390  0.37180  0.00080  Biso   1.000  N
  C49      1.0000 0.70400  0.56900  0.02780  Biso   1.000  C
  C50      1.0000 0.66550  0.50090  0.01490  Biso   1.000  C
  C51      1.0000 0.70670  0.43100  0.00730  Biso   1.000  C
  C52      1.0000 0.58100  0.49990  0.00650  Biso   1.000  C
  C53      1.0000 0.53760  0.56670  0.01580  Biso   1.000  C
  C54      1.0000 0.54180  0.43360  0.99130  Biso   1.000  C
  C55      1.0000 0.80580  0.78480  0.91380  Biso   1.000  C
  C56      1.0000 0.80820  0.78610  0.85290  Biso   1.000  C
  C57      1.0000 0.71500  0.69090  0.72320  Biso   1.000  C
  C58      1.0000 0.71610  0.69430  0.66330  Biso   1.000  C
  C59      1.0000 0.78230  0.30730  0.87520  Biso   1.000  C
  C60      1.0000 0.78320  0.30950  0.81490  Biso   1.000  C
  N11      1.0000 0.77080  0.87170  0.03720  Biso   1.000  N
  N12      1.0000 0.76610  0.12820  0.00080  Biso   1.000  N
  C61      1.0000 0.79600  0.93100  0.02780  Biso   1.000  C
  C62      1.0000 0.83450  0.99910  0.01490  Biso   1.000  C
  C63      1.0000 0.79330  0.06900  0.00730  Biso   1.000  C
  C64      1.0000 0.91900  0.00010  0.00650  Biso   1.000  C
  C65      1.0000 0.96240  0.93330  0.01580  Biso   1.000  C
  C66      1.0000 0.95820  0.06640  0.99130  Biso   1.000  C
  C67      1.0000 0.69420  0.71520  0.91380  Biso   1.000  C
  C68      1.0000 0.69180  0.71390  0.85290  Biso   1.000  C
  C69      1.0000 0.78500  0.80910  0.72320  Biso   1.000  C
  C70      1.0000 0.78390  0.80570  0.66330  Biso   1.000  C
  C71      1.0000 0.71770  0.19270  0.87520  Biso   1.000  C
  C72      1.0000 0.71680  0.19050  0.81490  Biso   1.000  C
  N13      1.0000 0.62830  0.77080  0.03720  Biso   1.000  N
  N14      1.0000 0.37180  0.76610  0.00080  Biso   1.000  N
  C73      1.0000 0.56900  0.79600  0.02780  Biso   1.000  C
  C74      1.0000 0.50090  0.83450  0.01490  Biso   1.000  C
  C75      1.0000 0.43100  0.79330  0.00730  Biso   1.000  C
  C76      1.0000 0.49990  0.91900  0.00650  Biso   1.000  C
  C77      1.0000 0.56670  0.96240  0.01580  Biso   1.000  C
  C78      1.0000 0.43360  0.95820  0.99130  Biso   1.000  C
  C79      1.0000 0.78480  0.69420  0.91380  Biso   1.000  C
  C80      1.0000 0.78610  0.69180  0.85290  Biso   1.000  C
  C81      1.0000 0.69090  0.78500  0.72320  Biso   1.000  C
  C82      1.0000 0.69430  0.78390  0.66330  Biso   1.000  C
  C83      1.0000 0.30730  0.71770  0.87520  Biso   1.000  C
  C84      1.0000 0.30950  0.71680  0.81490  Biso   1.000  C
  N15      1.0000 0.87170  0.72920  0.03720  Biso   1.000  N
  N16      1.0000 0.12820  0.73390  0.00080  Biso   1.000  N
  C85      1.0000 0.93100  0.70400  0.02780  Biso   1.000  C
  C86      1.0000 0.99910  0.66550  0.01490  Biso   1.000  C
  C87      1.0000 0.06900  0.70670  0.00730  Biso   1.000  C
  C88      1.0000 0.00010  0.58100  0.00650  Biso   1.000  C
  C89      1.0000 0.93330  0.53760  0.01580  Biso   1.000  C
  C90      1.0000 0.06640  0.54180  0.99130  Biso   1.000  C
  C91      1.0000 0.71520  0.80580  0.91380  Biso   1.000  C
  C92      1.0000 0.71390  0.80820  0.85290  Biso   1.000  C
  C93      1.0000 0.80910  0.71500  0.72320  Biso   1.000  C
  C94      1.0000 0.80570  0.71610  0.66330  Biso   1.000  C
  C95      1.0000 0.19270  0.78230  0.87520  Biso   1.000  C
  C96      1.0000 0.19050  0.78320  0.81490  Biso   1.000  C
  N17      1.0000 0.72920  0.87170  0.53720  Biso   1.000  N
  N18      1.0000 0.73390  0.12820  0.50080  Biso   1.000  N
  C97      1.0000 0.70400  0.93100  0.52780  Biso   1.000  C
  C98      1.0000 0.66550  0.99910  0.51490  Biso   1.000  C
  C99      1.0000 0.70670  0.06900  0.50730  Biso   1.000  C
  C100     1.0000 0.58100  0.00010  0.50650  Biso   1.000  C
  C101     1.0000 0.53760  0.93330  0.51580  Biso   1.000  C
  C102     1.0000 0.54180  0.06640  0.49130  Biso   1.000  C
  C103     1.0000 0.80580  0.71520  0.41380  Biso   1.000  C
  C104     1.0000 0.80820  0.71390  0.35290  Biso   1.000  C
  C105     1.0000 0.71500  0.80910  0.22320  Biso   1.000  C
  C106     1.0000 0.71610  0.80570  0.16330  Biso   1.000  C
  C107     1.0000 0.78230  0.19270  0.37520  Biso   1.000  C
  C108     1.0000 0.78320  0.19050  0.31490  Biso   1.000  C
  N19      1.0000 0.77080  0.62830  0.53720  Biso   1.000  N
  N20      1.0000 0.76610  0.37180  0.50080  Biso   1.000  N
  C109     1.0000 0.79600  0.56900  0.52780  Biso   1.000  C
  C110     1.0000 0.83450  0.50090  0.51490  Biso   1.000  C
  C111     1.0000 0.79330  0.43100  0.50730  Biso   1.000  C
  C112     1.0000 0.91900  0.49990  0.50650  Biso   1.000  C
  C113     1.0000 0.96240  0.56670  0.51580  Biso   1.000  C
  C114     1.0000 0.95820  0.43360  0.49130  Biso   1.000  C
  C115     1.0000 0.69420  0.78480  0.41380  Biso   1.000  C
  C116     1.0000 0.69180  0.78610  0.35290  Biso   1.000  C
  C117     1.0000 0.78500  0.69090  0.22320  Biso   1.000  C
  C118     1.0000 0.78390  0.69430  0.16330  Biso   1.000  C
  C119     1.0000 0.71770  0.30730  0.37520  Biso   1.000  C
  C120     1.0000 0.71680  0.30950  0.31490  Biso   1.000  C
  N21      1.0000 0.62830  0.72920  0.53720  Biso   1.000  N
  N22      1.0000 0.37180  0.73390  0.50080  Biso   1.000  N
  C121     1.0000 0.56900  0.70400  0.52780  Biso   1.000  C
  C122     1.0000 0.50090  0.66550  0.51490  Biso   1.000  C
  C123     1.0000 0.43100  0.70670  0.50730  Biso   1.000  C
  C124     1.0000 0.49990  0.58100  0.50650  Biso   1.000  C
  C125     1.0000 0.56670  0.53760  0.51580  Biso   1.000  C
  C126     1.0000 0.43360  0.54180  0.49130  Biso   1.000  C
  C127     1.0000 0.78480  0.80580  0.41380  Biso   1.000  C
  C128     1.0000 0.78610  0.80820  0.35290  Biso   1.000  C
  C129     1.0000 0.69090  0.71500  0.22320  Biso   1.000  C
  C130     1.0000 0.69430  0.71610  0.16330  Biso   1.000  C
  C131     1.0000 0.30730  0.78230  0.37520  Biso   1.000  C
  C132     1.0000 0.30950  0.78320  0.31490  Biso   1.000  C
  N23      1.0000 0.87170  0.77080  0.53720  Biso   1.000  N
  N24      1.0000 0.12820  0.76610  0.50080  Biso   1.000  N
  C133     1.0000 0.93100  0.79600  0.52780  Biso   1.000  C
  C134     1.0000 0.99910  0.83450  0.51490  Biso   1.000  C
  C135     1.0000 0.06900  0.79330  0.50730  Biso   1.000  C
  C136     1.0000 0.00010  0.91900  0.50650  Biso   1.000  C
  C137     1.0000 0.93330  0.96240  0.51580  Biso   1.000  C
  C138     1.0000 0.06640  0.95820  0.49130  Biso   1.000  C
  C139     1.0000 0.71520  0.69420  0.41380  Biso   1.000  C
  C140     1.0000 0.71390  0.69180  0.35290  Biso   1.000  C
  C141     1.0000 0.80910  0.78500  0.22320  Biso   1.000  C
  C142     1.0000 0.80570  0.78390  0.16330  Biso   1.000  C
  C143     1.0000 0.19270  0.71770  0.37520  Biso   1.000  C
  C144     1.0000 0.19050  0.71680  0.31490  Biso   1.000  C
  N25      1.0000 0.27080  0.37170  0.96280  Biso   1.000  N
  N26      1.0000 0.26610  0.62820  0.99920  Biso   1.000  N
  C145     1.0000 0.29600  0.43100  0.97220  Biso   1.000  C
  C146     1.0000 0.33450  0.49910  0.98510  Biso   1.000  C
  C147     1.0000 0.29330  0.56900  0.99270  Biso   1.000  C
  C148     1.0000 0.41900  0.50010  0.99350  Biso   1.000  C
  C149     1.0000 0.46240  0.43330  0.98420  Biso   1.000  C
  C150     1.0000 0.45820  0.56640  0.00870  Biso   1.000  C
  C151     1.0000 0.19420  0.21520  0.08620  Biso   1.000  C
  C152     1.0000 0.19180  0.21390  0.14710  Biso   1.000  C
  C153     1.0000 0.28500  0.30910  0.27680  Biso   1.000  C
  C154     1.0000 0.28390  0.30570  0.33670  Biso   1.000  C
  C155     1.0000 0.21770  0.69270  0.12480  Biso   1.000  C
  C156     1.0000 0.21680  0.69050  0.18510  Biso   1.000  C
  N27      1.0000 0.22920  0.12830  0.96280  Biso   1.000  N
  N28      1.0000 0.23390  0.87180  0.99920  Biso   1.000  N
  C157     1.0000 0.20400  0.06900  0.97220  Biso   1.000  C
  C158     1.0000 0.16550  0.00090  0.98510  Biso   1.000  C
  C159     1.0000 0.20670  0.93100  0.99270  Biso   1.000  C
  C160     1.0000 0.08100  0.99990  0.99350  Biso   1.000  C
  C161     1.0000 0.03760  0.06670  0.98420  Biso   1.000  C
  C162     1.0000 0.04180  0.93360  0.00870  Biso   1.000  C
  C163     1.0000 0.30580  0.28480  0.08620  Biso   1.000  C
  C164     1.0000 0.30820  0.28610  0.14710  Biso   1.000  C
  C165     1.0000 0.21500  0.19090  0.27680  Biso   1.000  C
  C166     1.0000 0.21610  0.19430  0.33670  Biso   1.000  C
  C167     1.0000 0.28230  0.80730  0.12480  Biso   1.000  C
  C168     1.0000 0.28320  0.80950  0.18510  Biso   1.000  C
  N29      1.0000 0.37170  0.22920  0.96280  Biso   1.000  N
  N30      1.0000 0.62820  0.23390  0.99920  Biso   1.000  N
  C169     1.0000 0.43100  0.20400  0.97220  Biso   1.000  C
  C170     1.0000 0.49910  0.16550  0.98510  Biso   1.000  C
  C171     1.0000 0.56900  0.20670  0.99270  Biso   1.000  C
  C172     1.0000 0.50010  0.08100  0.99350  Biso   1.000  C
  C173     1.0000 0.43330  0.03760  0.98420  Biso   1.000  C
  C174     1.0000 0.56640  0.04180  0.00870  Biso   1.000  C
  C175     1.0000 0.21520  0.30580  0.08620  Biso   1.000  C
  C176     1.0000 0.21390  0.30820  0.14710  Biso   1.000  C
  C177     1.0000 0.30910  0.21500  0.27680  Biso   1.000  C
  C178     1.0000 0.30570  0.21610  0.33670  Biso   1.000  C
  C179     1.0000 0.69270  0.28230  0.12480  Biso   1.000  C
  C180     1.0000 0.69050  0.28320  0.18510  Biso   1.000  C
  N31      1.0000 0.12830  0.27080  0.96280  Biso   1.000  N
  N32      1.0000 0.87180  0.26610  0.99920  Biso   1.000  N
  C181     1.0000 0.06900  0.29600  0.97220  Biso   1.000  C
  C182     1.0000 0.00090  0.33450  0.98510  Biso   1.000  C
  C183     1.0000 0.93100  0.29330  0.99270  Biso   1.000  C
  C184     1.0000 0.99990  0.41900  0.99350  Biso   1.000  C
  C185     1.0000 0.06670  0.46240  0.98420  Biso   1.000  C
  C186     1.0000 0.93360  0.45820  0.00870  Biso   1.000  C
  C187     1.0000 0.28480  0.19420  0.08620  Biso   1.000  C
  C188     1.0000 0.28610  0.19180  0.14710  Biso   1.000  C
  C189     1.0000 0.19090  0.28500  0.27680  Biso   1.000  C
  C190     1.0000 0.19430  0.28390  0.33670  Biso   1.000  C
  C191     1.0000 0.80730  0.21770  0.12480  Biso   1.000  C
  C192     1.0000 0.80950  0.21680  0.18510  Biso   1.000  C
  Co1      1.0000 0.25000  0.25000  0.46161  Biso   1.000  Co
  N33      1.0000 0.25000  0.25000  0.55420  Biso   1.000  N
  N34      1.0000 0.25000  0.25000  0.86840  Biso   1.000  N
  C193     1.0000 0.25000  0.25000  0.68050  Biso   1.000  C
  C194     1.0000 0.25000  0.25000  0.74460  Biso   1.000  C
  Co2      1.0000 0.75000  0.75000  0.03839  Biso   1.000  Co
  N35      1.0000 0.75000  0.75000  0.94580  Biso   1.000  N
  N36      1.0000 0.75000  0.75000  0.63160  Biso   1.000  N
  C195     1.0000 0.75000  0.75000  0.81950  Biso   1.000  C
  C196     1.0000 0.75000  0.75000  0.75540  Biso   1.000  C
  Co3      1.0000 0.75000  0.75000  0.53839  Biso   1.000  Co
  N37      1.0000 0.75000  0.75000  0.44580  Biso   1.000  N
  N38      1.0000 0.75000  0.75000  0.13160  Biso   1.000  N
  C197     1.0000 0.75000  0.75000  0.31950  Biso   1.000  C
  C198     1.0000 0.75000  0.75000  0.25540  Biso   1.000  C
  Co4      1.0000 0.25000  0.25000  0.96161  Biso   1.000  Co
  N39      1.0000 0.25000  0.25000  0.05420  Biso   1.000  N
  N40      1.0000 0.25000  0.25000  0.36840  Biso   1.000  N
  C199     1.0000 0.25000  0.25000  0.18050  Biso   1.000  C
  C200     1.0000 0.25000  0.25000  0.24460  Biso   1.000  C
  Co5      1.0000 0.25000  0.75000  0.50000  Biso   1.000  Co
  Co6      1.0000 0.75000  0.25000  0.50000  Biso   1.000  Co
  Co7      1.0000 0.75000  0.25000  0.00000  Biso   1.000  Co
  Co8      1.0000 0.25000  0.75000  0.00000  Biso   1.000  Co
  N41      1.0000 0.25000  0.75000  0.59290  Biso   1.000  N
  C201     1.0000 0.25000  0.75000  0.71730  Biso   1.000  C
  N42      1.0000 0.75000  0.25000  0.59290  Biso   1.000  N
  C202     1.0000 0.75000  0.25000  0.71730  Biso   1.000  C
  N43      1.0000 0.75000  0.25000  0.90710  Biso   1.000  N
  C203     1.0000 0.75000  0.25000  0.78270  Biso   1.000  C
  N44      1.0000 0.25000  0.75000  0.90710  Biso   1.000  N
  C204     1.0000 0.25000  0.75000  0.78270  Biso   1.000  C
  N45      1.0000 0.75000  0.25000  0.40710  Biso   1.000  N
  C205     1.0000 0.75000  0.25000  0.28270  Biso   1.000  C
  N46      1.0000 0.25000  0.75000  0.40710  Biso   1.000  N
  C206     1.0000 0.25000  0.75000  0.28270  Biso   1.000  C
  N47      1.0000 0.25000  0.75000  0.09290  Biso   1.000  N
  C207     1.0000 0.25000  0.75000  0.21730  Biso   1.000  C
  N48      1.0000 0.75000  0.25000  0.09290  Biso   1.000  N
  C208     1.0000 0.75000  0.25000  0.21730  Biso   1.000  C
