data_image0
_cell_length_a       12.413
_cell_length_b       12.413
_cell_length_c       23.03
_cell_angle_alpha    90
_cell_angle_beta     90
_cell_angle_gamma    90

_symmetry_space_group_name_H-M    "P 1"
_symmetry_int_tables_number       1

loop_
  _symmetry_equiv_pos_as_xyz
  'x, y, z'

loop_
  _atom_site_label
  _atom_site_occupancy
  _atom_site_fract_x
  _atom_site_fract_y
  _atom_site_fract_z
  _atom_site_thermal_displace_type
  _atom_site_B_iso_or_equiv
  _atom_site_type_symbol
  C1       1.0000 0.08500  0.97290  0.87370  Biso   1.000  C
  C2       1.0000 0.08730  0.97230  0.81400  Biso   1.000  C
  H1       1.0000 0.14870  0.95290  0.89390  Biso   1.000  H
  H2       1.0000 0.15170  0.95160  0.79470  Biso   1.000  H
  C3       1.0000 0.58500  0.47290  0.37370  Biso   1.000  C
  C4       1.0000 0.58730  0.47230  0.31400  Biso   1.000  C
  H3       1.0000 0.64870  0.45290  0.39390  Biso   1.000  H
  H4       1.0000 0.65170  0.45160  0.29470  Biso   1.000  H
  C5       1.0000 0.91500  0.02710  0.87370  Biso   1.000  C
  C6       1.0000 0.91270  0.02770  0.81400  Biso   1.000  C
  H5       1.0000 0.85130  0.04710  0.89390  Biso   1.000  H
  H6       1.0000 0.84830  0.04840  0.79470  Biso   1.000  H
  C7       1.0000 0.41500  0.52710  0.37370  Biso   1.000  C
  C8       1.0000 0.41270  0.52770  0.31400  Biso   1.000  C
  H7       1.0000 0.35130  0.54710  0.39390  Biso   1.000  H
  H8       1.0000 0.34830  0.54840  0.29470  Biso   1.000  H
  C9       1.0000 0.02710  0.08500  0.87370  Biso   1.000  C
  C10      1.0000 0.02770  0.08730  0.81400  Biso   1.000  C
  H9       1.0000 0.04710  0.14870  0.89390  Biso   1.000  H
  H10      1.0000 0.04840  0.15170  0.79470  Biso   1.000  H
  C11      1.0000 0.52710  0.58500  0.37370  Biso   1.000  C
  C12      1.0000 0.52770  0.58730  0.31400  Biso   1.000  C
  H11      1.0000 0.54710  0.64870  0.39390  Biso   1.000  H
  H12      1.0000 0.54840  0.65170  0.29470  Biso   1.000  H
  C13      1.0000 0.97290  0.91500  0.87370  Biso   1.000  C
  C14      1.0000 0.97230  0.91270  0.81400  Biso   1.000  C
  H13      1.0000 0.95290  0.85130  0.89390  Biso   1.000  H
  H14      1.0000 0.95160  0.84830  0.79470  Biso   1.000  H
  C15      1.0000 0.47290  0.41500  0.37370  Biso   1.000  C
  C16      1.0000 0.47230  0.41270  0.31400  Biso   1.000  C
  H15      1.0000 0.45290  0.35130  0.39390  Biso   1.000  H
  H16      1.0000 0.45160  0.34830  0.29470  Biso   1.000  H
  C17      1.0000 0.91500  0.97290  0.62630  Biso   1.000  C
  C18      1.0000 0.91270  0.97230  0.68600  Biso   1.000  C
  H17      1.0000 0.85130  0.95290  0.60610  Biso   1.000  H
  H18      1.0000 0.84830  0.95160  0.70530  Biso   1.000  H
  C19      1.0000 0.41500  0.47290  0.12630  Biso   1.000  C
  C20      1.0000 0.41270  0.47230  0.18600  Biso   1.000  C
  H19      1.0000 0.35130  0.45290  0.10610  Biso   1.000  H
  H20      1.0000 0.34830  0.45160  0.20530  Biso   1.000  H
  C21      1.0000 0.08500  0.02710  0.62630  Biso   1.000  C
  C22      1.0000 0.08730  0.02770  0.68600  Biso   1.000  C
  H21      1.0000 0.14870  0.04710  0.60610  Biso   1.000  H
  H22      1.0000 0.15170  0.04840  0.70530  Biso   1.000  H
  C23      1.0000 0.58500  0.52710  0.12630  Biso   1.000  C
  C24      1.0000 0.58730  0.52770  0.18600  Biso   1.000  C
  H23      1.0000 0.64870  0.54710  0.10610  Biso   1.000  H
  H24      1.0000 0.65170  0.54840  0.20530  Biso   1.000  H
  C25      1.0000 0.97290  0.08500  0.62630  Biso   1.000  C
  C26      1.0000 0.97230  0.08730  0.68600  Biso   1.000  C
  H25      1.0000 0.95290  0.14870  0.60610  Biso   1.000  H
  H26      1.0000 0.95160  0.15170  0.70530  Biso   1.000  H
  C27      1.0000 0.47290  0.58500  0.12630  Biso   1.000  C
  C28      1.0000 0.47230  0.58730  0.18600  Biso   1.000  C
  H27      1.0000 0.45290  0.64870  0.10610  Biso   1.000  H
  H28      1.0000 0.45160  0.65170  0.20530  Biso   1.000  H
  C29      1.0000 0.02710  0.91500  0.62630  Biso   1.000  C
  C30      1.0000 0.02770  0.91270  0.68600  Biso   1.000  C
  H29      1.0000 0.04710  0.85130  0.60610  Biso   1.000  H
  H30      1.0000 0.04840  0.84830  0.70530  Biso   1.000  H
  C31      1.0000 0.52710  0.41500  0.12630  Biso   1.000  C
  C32      1.0000 0.52770  0.41270  0.18600  Biso   1.000  C
  H31      1.0000 0.54710  0.35130  0.10610  Biso   1.000  H
  H32      1.0000 0.54840  0.34830  0.20530  Biso   1.000  H
  C33      1.0000 0.91500  0.02710  0.12630  Biso   1.000  C
  C34      1.0000 0.91270  0.02770  0.18600  Biso   1.000  C
  H33      1.0000 0.85130  0.04710  0.10610  Biso   1.000  H
  H34      1.0000 0.84830  0.04840  0.20530  Biso   1.000  H
  C35      1.0000 0.41500  0.52710  0.62630  Biso   1.000  C
  C36      1.0000 0.41270  0.52770  0.68600  Biso   1.000  C
  H35      1.0000 0.35130  0.54710  0.60610  Biso   1.000  H
  H36      1.0000 0.34830  0.54840  0.70530  Biso   1.000  H
  C37      1.0000 0.08500  0.97290  0.12630  Biso   1.000  C
  C38      1.0000 0.08730  0.97230  0.18600  Biso   1.000  C
  H37      1.0000 0.14870  0.95290  0.10610  Biso   1.000  H
  H38      1.0000 0.15170  0.95160  0.20530  Biso   1.000  H
  C39      1.0000 0.58500  0.47290  0.62630  Biso   1.000  C
  C40      1.0000 0.58730  0.47230  0.68600  Biso   1.000  C
  H39      1.0000 0.64870  0.45290  0.60610  Biso   1.000  H
  H40      1.0000 0.65170  0.45160  0.70530  Biso   1.000  H
  C41      1.0000 0.97290  0.91500  0.12630  Biso   1.000  C
  C42      1.0000 0.97230  0.91270  0.18600  Biso   1.000  C
  H41      1.0000 0.95290  0.85130  0.10610  Biso   1.000  H
  H42      1.0000 0.95160  0.84830  0.20530  Biso   1.000  H
  C43      1.0000 0.47290  0.41500  0.62630  Biso   1.000  C
  C44      1.0000 0.47230  0.41270  0.68600  Biso   1.000  C
  H43      1.0000 0.45290  0.35130  0.60610  Biso   1.000  H
  H44      1.0000 0.45160  0.34830  0.70530  Biso   1.000  H
  C45      1.0000 0.02710  0.08500  0.12630  Biso   1.000  C
  C46      1.0000 0.02770  0.08730  0.18600  Biso   1.000  C
  H45      1.0000 0.04710  0.14870  0.10610  Biso   1.000  H
  H46      1.0000 0.04840  0.15170  0.20530  Biso   1.000  H
  C47      1.0000 0.52710  0.58500  0.62630  Biso   1.000  C
  C48      1.0000 0.52770  0.58730  0.68600  Biso   1.000  C
  H47      1.0000 0.54710  0.64870  0.60610  Biso   1.000  H
  H48      1.0000 0.54840  0.65170  0.70530  Biso   1.000  H
  C49      1.0000 0.08500  0.02710  0.37370  Biso   1.000  C
  C50      1.0000 0.08730  0.02770  0.31400  Biso   1.000  C
  H49      1.0000 0.14870  0.04710  0.39390  Biso   1.000  H
  H50      1.0000 0.15170  0.04840  0.29470  Biso   1.000  H
  C51      1.0000 0.58500  0.52710  0.87370  Biso   1.000  C
  C52      1.0000 0.58730  0.52770  0.81400  Biso   1.000  C
  H51      1.0000 0.64870  0.54710  0.89390  Biso   1.000  H
  H52      1.0000 0.65170  0.54840  0.79470  Biso   1.000  H
  C53      1.0000 0.91500  0.97290  0.37370  Biso   1.000  C
  C54      1.0000 0.91270  0.97230  0.31400  Biso   1.000  C
  H53      1.0000 0.85130  0.95290  0.39390  Biso   1.000  H
  H54      1.0000 0.84830  0.95160  0.29470  Biso   1.000  H
  C55      1.0000 0.41500  0.47290  0.87370  Biso   1.000  C
  C56      1.0000 0.41270  0.47230  0.81400  Biso   1.000  C
  H55      1.0000 0.35130  0.45290  0.89390  Biso   1.000  H
  H56      1.0000 0.34830  0.45160  0.79470  Biso   1.000  H
  C57      1.0000 0.02710  0.91500  0.37370  Biso   1.000  C
  C58      1.0000 0.02770  0.91270  0.31400  Biso   1.000  C
  H57      1.0000 0.04710  0.85130  0.39390  Biso   1.000  H
  H58      1.0000 0.04840  0.84830  0.29470  Biso   1.000  H
  C59      1.0000 0.52710  0.41500  0.87370  Biso   1.000  C
  C60      1.0000 0.52770  0.41270  0.81400  Biso   1.000  C
  H59      1.0000 0.54710  0.35130  0.89390  Biso   1.000  H
  H60      1.0000 0.54840  0.34830  0.79470  Biso   1.000  H
  C61      1.0000 0.97290  0.08500  0.37370  Biso   1.000  C
  C62      1.0000 0.97230  0.08730  0.31400  Biso   1.000  C
  H61      1.0000 0.95290  0.14870  0.39390  Biso   1.000  H
  H62      1.0000 0.95160  0.15170  0.29470  Biso   1.000  H
  C63      1.0000 0.47290  0.58500  0.87370  Biso   1.000  C
  C64      1.0000 0.47230  0.58730  0.81400  Biso   1.000  C
  H63      1.0000 0.45290  0.64870  0.89390  Biso   1.000  H
  H64      1.0000 0.45160  0.65170  0.79470  Biso   1.000  H
  Fe1      1.0000 0.00000  0.00000  0.00000  Biso   1.000  Fe
  Fe2      1.0000 0.50000  0.50000  0.50000  Biso   1.000  Fe
  Fe3      1.0000 0.00000  0.00000  0.50000  Biso   1.000  Fe
  Fe4      1.0000 0.50000  0.50000  0.00000  Biso   1.000  Fe
  N1       1.0000 0.10029  0.86004  0.00000  Biso   1.000  N
  C65      1.0000 0.13530  0.77330  0.00000  Biso   1.000  C
  C66      1.0000 0.97230  0.60520  0.00000  Biso   1.000  C
  H65      1.0000 0.95080  0.67870  0.00000  Biso   1.000  H
  N2       1.0000 0.60029  0.36004  0.50000  Biso   1.000  N
  C67      1.0000 0.63530  0.27330  0.50000  Biso   1.000  C
  C68      1.0000 0.47230  0.10520  0.50000  Biso   1.000  C
  H66      1.0000 0.45080  0.17870  0.50000  Biso   1.000  H
  N3       1.0000 0.89971  0.13996  0.00000  Biso   1.000  N
  C69      1.0000 0.86470  0.22670  0.00000  Biso   1.000  C
  C70      1.0000 0.02770  0.39480  0.00000  Biso   1.000  C
  H67      1.0000 0.04920  0.32130  0.00000  Biso   1.000  H
  N4       1.0000 0.39971  0.63996  0.50000  Biso   1.000  N
  C71      1.0000 0.36470  0.72670  0.50000  Biso   1.000  C
  C72      1.0000 0.52770  0.89480  0.50000  Biso   1.000  C
  H68      1.0000 0.54920  0.82130  0.50000  Biso   1.000  H
  N5       1.0000 0.13996  0.10029  0.00000  Biso   1.000  N
  C73      1.0000 0.22670  0.13530  0.00000  Biso   1.000  C
  C74      1.0000 0.39480  0.97230  0.00000  Biso   1.000  C
  H69      1.0000 0.32130  0.95080  0.00000  Biso   1.000  H
  N6       1.0000 0.63996  0.60029  0.50000  Biso   1.000  N
  C75      1.0000 0.72670  0.63530  0.50000  Biso   1.000  C
  C76      1.0000 0.89480  0.47230  0.50000  Biso   1.000  C
  H70      1.0000 0.82130  0.45080  0.50000  Biso   1.000  H
  N7       1.0000 0.86004  0.89971  0.00000  Biso   1.000  N
  C77      1.0000 0.77330  0.86470  0.00000  Biso   1.000  C
  C78      1.0000 0.60520  0.02770  0.00000  Biso   1.000  C
  H71      1.0000 0.67870  0.04920  0.00000  Biso   1.000  H
  N8       1.0000 0.36004  0.39971  0.50000  Biso   1.000  N
  C79      1.0000 0.27330  0.36470  0.50000  Biso   1.000  C
  C80      1.0000 0.10520  0.52770  0.50000  Biso   1.000  C
  H72      1.0000 0.17870  0.54920  0.50000  Biso   1.000  H
  N9       1.0000 0.89971  0.86004  0.50000  Biso   1.000  N
  C81      1.0000 0.86470  0.77330  0.50000  Biso   1.000  C
  C82      1.0000 0.02770  0.60520  0.50000  Biso   1.000  C
  H73      1.0000 0.04920  0.67870  0.50000  Biso   1.000  H
  N10      1.0000 0.39971  0.36004  0.00000  Biso   1.000  N
  C83      1.0000 0.36470  0.27330  0.00000  Biso   1.000  C
  C84      1.0000 0.52770  0.10520  0.00000  Biso   1.000  C
  H74      1.0000 0.54920  0.17870  0.00000  Biso   1.000  H
  N11      1.0000 0.10029  0.13996  0.50000  Biso   1.000  N
  C85      1.0000 0.13530  0.22670  0.50000  Biso   1.000  C
  C86      1.0000 0.97230  0.39480  0.50000  Biso   1.000  C
  H75      1.0000 0.95080  0.32130  0.50000  Biso   1.000  H
  N12      1.0000 0.60029  0.63996  0.00000  Biso   1.000  N
  C87      1.0000 0.63530  0.72670  0.00000  Biso   1.000  C
  C88      1.0000 0.47230  0.89480  0.00000  Biso   1.000  C
  H76      1.0000 0.45080  0.82130  0.00000  Biso   1.000  H
  N13      1.0000 0.86004  0.10029  0.50000  Biso   1.000  N
  C89      1.0000 0.77330  0.13530  0.50000  Biso   1.000  C
  C90      1.0000 0.60520  0.97230  0.50000  Biso   1.000  C
  H77      1.0000 0.67870  0.95080  0.50000  Biso   1.000  H
  N14      1.0000 0.36004  0.60029  0.00000  Biso   1.000  N
  C91      1.0000 0.27330  0.63530  0.00000  Biso   1.000  C
  C92      1.0000 0.10520  0.47230  0.00000  Biso   1.000  C
  H78      1.0000 0.17870  0.45080  0.00000  Biso   1.000  H
  N15      1.0000 0.13996  0.89971  0.50000  Biso   1.000  N
  C93      1.0000 0.22670  0.86470  0.50000  Biso   1.000  C
  C94      1.0000 0.39480  0.02770  0.50000  Biso   1.000  C
  H79      1.0000 0.32130  0.04920  0.50000  Biso   1.000  H
  N16      1.0000 0.63996  0.39971  0.00000  Biso   1.000  N
  C95      1.0000 0.72670  0.36470  0.00000  Biso   1.000  C
  C96      1.0000 0.89480  0.52770  0.00000  Biso   1.000  C
  H80      1.0000 0.82130  0.54920  0.00000  Biso   1.000  H
  N17      1.0000 0.00000  0.00000  0.90394  Biso   1.000  N
  C97      1.0000 0.00000  0.00000  0.78220  Biso   1.000  C
  N18      1.0000 0.50000  0.50000  0.40394  Biso   1.000  N
  C98      1.0000 0.50000  0.50000  0.28220  Biso   1.000  C
  N19      1.0000 0.00000  0.00000  0.59606  Biso   1.000  N
  C99      1.0000 0.00000  0.00000  0.71780  Biso   1.000  C
  N20      1.0000 0.50000  0.50000  0.09606  Biso   1.000  N
  C100     1.0000 0.50000  0.50000  0.21780  Biso   1.000  C
  N21      1.0000 0.00000  0.00000  0.09606  Biso   1.000  N
  C101     1.0000 0.00000  0.00000  0.21780  Biso   1.000  C
  N22      1.0000 0.50000  0.50000  0.59606  Biso   1.000  N
  C102     1.0000 0.50000  0.50000  0.71780  Biso   1.000  C
  N23      1.0000 0.00000  0.00000  0.40394  Biso   1.000  N
  C103     1.0000 0.00000  0.00000  0.28220  Biso   1.000  C
  N24      1.0000 0.50000  0.50000  0.90394  Biso   1.000  N
  C104     1.0000 0.50000  0.50000  0.78220  Biso   1.000  C
  C105     1.0000 0.16400  0.66400  0.00000  Biso   1.000  C
  C106     1.0000 0.08070  0.58070  0.00000  Biso   1.000  C
  C107     1.0000 0.83600  0.33600  0.00000  Biso   1.000  C
  C108     1.0000 0.91930  0.41930  0.00000  Biso   1.000  C
  C109     1.0000 0.33600  0.16400  0.00000  Biso   1.000  C
  C110     1.0000 0.41930  0.08070  0.00000  Biso   1.000  C
  C111     1.0000 0.66400  0.83600  0.00000  Biso   1.000  C
  C112     1.0000 0.58070  0.91930  0.00000  Biso   1.000  C
  C113     1.0000 0.83600  0.66400  0.50000  Biso   1.000  C
  C114     1.0000 0.91930  0.58070  0.50000  Biso   1.000  C
  C115     1.0000 0.16400  0.33600  0.50000  Biso   1.000  C
  C116     1.0000 0.08070  0.41930  0.50000  Biso   1.000  C
  C117     1.0000 0.66400  0.16400  0.50000  Biso   1.000  C
  C118     1.0000 0.58070  0.08070  0.50000  Biso   1.000  C
  C119     1.0000 0.33600  0.83600  0.50000  Biso   1.000  C
  C120     1.0000 0.41930  0.91930  0.50000  Biso   1.000  C
