data_image0
_cell_length_a       23.4261
_cell_length_b       23.4261
_cell_length_c       12.2033
_cell_angle_alpha    90
_cell_angle_beta     90
_cell_angle_gamma    120

_symmetry_space_group_name_H-M    "P 1"
_symmetry_int_tables_number       1

loop_
  _symmetry_equiv_pos_as_xyz
  'x, y, z'

loop_
  _atom_site_label
  _atom_site_occupancy
  _atom_site_fract_x
  _atom_site_fract_y
  _atom_site_fract_z
  _atom_site_thermal_displace_type
  _atom_site_B_iso_or_equiv
  _atom_site_type_symbol
  N1       1.0000 0.71910  0.15280  0.15440  Biso   1.000  N
  N2       1.0000 0.66010  0.09460  0.15870  Biso   1.000  N
  N3       1.0000 0.70410  0.11330  0.32710  Biso   1.000  N
  F1       1.0000 0.67930  0.97860  0.08630  Biso   1.000  F
  F2       1.0000 0.40790  0.74590  0.08580  Biso   1.000  F
  C1       1.0000 0.65460  0.07360  0.25830  Biso   1.000  C
  C2       1.0000 0.59880  0.01080  0.29810  Biso   1.000  C
  F3       1.0000 0.56580  0.01820  0.37930  Biso   1.000  F
  F4       1.0000 0.62740  0.97620  0.35210  Biso   1.000  F
  F5       1.0000 0.56150  0.96950  0.22620  Biso   1.000  F
  C3       1.0000 0.74230  0.16120  0.25610  Biso   1.000  C
  C4       1.0000 0.80760  0.21960  0.28710  Biso   1.000  C
  F6       1.0000 0.85630  0.21950  0.23470  Biso   1.000  F
  F7       1.0000 0.81840  0.22640  0.38980  Biso   1.000  F
  F8       1.0000 0.81150  0.27540  0.25240  Biso   1.000  F
  F9       1.0000 0.98880  0.56810  0.39920  Biso   1.000  F
  F10      1.0000 0.04270  0.64280  0.27730  Biso   1.000  F
  F11      1.0000 0.99960  0.54110  0.23620  Biso   1.000  F
  N4       1.0000 0.84720  0.56630  0.15440  Biso   1.000  N
  N5       1.0000 0.90540  0.56550  0.15870  Biso   1.000  N
  N6       1.0000 0.88670  0.59080  0.32710  Biso   1.000  N
  F12      1.0000 0.02140  0.70070  0.08630  Biso   1.000  F
  F13      1.0000 0.25410  0.66200  0.08580  Biso   1.000  F
  C5       1.0000 0.92640  0.58100  0.25830  Biso   1.000  C
  C6       1.0000 0.98920  0.58800  0.29810  Biso   1.000  C
  F14      1.0000 0.98180  0.54760  0.37930  Biso   1.000  F
  F15      1.0000 0.02380  0.65120  0.35210  Biso   1.000  F
  F16      1.0000 0.03050  0.59200  0.22620  Biso   1.000  F
  C7       1.0000 0.83880  0.58110  0.25610  Biso   1.000  C
  C8       1.0000 0.78040  0.58800  0.28710  Biso   1.000  C
  F17      1.0000 0.78050  0.63680  0.23470  Biso   1.000  F
  F18      1.0000 0.77360  0.59200  0.38980  Biso   1.000  F
  F19      1.0000 0.72460  0.53610  0.25240  Biso   1.000  F
  F20      1.0000 0.43190  0.42070  0.39920  Biso   1.000  F
  F21      1.0000 0.35720  0.39990  0.27730  Biso   1.000  F
  F22      1.0000 0.45890  0.45850  0.23620  Biso   1.000  F
  N7       1.0000 0.43370  0.28090  0.15440  Biso   1.000  N
  N8       1.0000 0.43450  0.33990  0.15870  Biso   1.000  N
  N9       1.0000 0.40920  0.29590  0.32710  Biso   1.000  N
  F23      1.0000 0.29930  0.32070  0.08630  Biso   1.000  F
  F24      1.0000 0.33800  0.59210  0.08580  Biso   1.000  F
  C9       1.0000 0.41900  0.34540  0.25830  Biso   1.000  C
  C10      1.0000 0.41200  0.40120  0.29810  Biso   1.000  C
  F25      1.0000 0.45240  0.43420  0.37930  Biso   1.000  F
  F26      1.0000 0.34880  0.37260  0.35210  Biso   1.000  F
  F27      1.0000 0.40800  0.43850  0.22620  Biso   1.000  F
  C11      1.0000 0.41890  0.25770  0.25610  Biso   1.000  C
  C12      1.0000 0.41200  0.19240  0.28710  Biso   1.000  C
  F28      1.0000 0.36320  0.14370  0.23470  Biso   1.000  F
  F29      1.0000 0.40800  0.18160  0.38980  Biso   1.000  F
  F30      1.0000 0.46390  0.18850  0.25240  Biso   1.000  F
  F31      1.0000 0.57930  0.01120  0.39920  Biso   1.000  F
  F32      1.0000 0.60010  0.95730  0.27730  Biso   1.000  F
  F33      1.0000 0.54150  0.00040  0.23620  Biso   1.000  F
  N10      1.0000 0.28090  0.84720  0.15440  Biso   1.000  N
  N11      1.0000 0.33990  0.90540  0.15870  Biso   1.000  N
  N12      1.0000 0.29590  0.88670  0.32710  Biso   1.000  N
  F34      1.0000 0.32070  0.02140  0.08630  Biso   1.000  F
  F35      1.0000 0.59210  0.25410  0.08580  Biso   1.000  F
  C13      1.0000 0.34540  0.92640  0.25830  Biso   1.000  C
  C14      1.0000 0.40120  0.98920  0.29810  Biso   1.000  C
  F36      1.0000 0.43420  0.98180  0.37930  Biso   1.000  F
  F37      1.0000 0.37260  0.02380  0.35210  Biso   1.000  F
  F38      1.0000 0.43850  0.03050  0.22620  Biso   1.000  F
  C15      1.0000 0.25770  0.83880  0.25610  Biso   1.000  C
  C16      1.0000 0.19240  0.78040  0.28710  Biso   1.000  C
  F39      1.0000 0.14370  0.78050  0.23470  Biso   1.000  F
  F40      1.0000 0.18160  0.77360  0.38980  Biso   1.000  F
  F41      1.0000 0.18850  0.72460  0.25240  Biso   1.000  F
  F42      1.0000 0.01120  0.43190  0.39920  Biso   1.000  F
  F43      1.0000 0.95730  0.35720  0.27730  Biso   1.000  F
  F44      1.0000 0.00040  0.45890  0.23620  Biso   1.000  F
  N13      1.0000 0.15280  0.43370  0.15440  Biso   1.000  N
  N14      1.0000 0.09460  0.43450  0.15870  Biso   1.000  N
  N15      1.0000 0.11330  0.40920  0.32710  Biso   1.000  N
  F45      1.0000 0.97860  0.29930  0.08630  Biso   1.000  F
  F46      1.0000 0.74590  0.33800  0.08580  Biso   1.000  F
  C17      1.0000 0.07360  0.41900  0.25830  Biso   1.000  C
  C18      1.0000 0.01080  0.41200  0.29810  Biso   1.000  C
  F47      1.0000 0.01820  0.45240  0.37930  Biso   1.000  F
  F48      1.0000 0.97620  0.34880  0.35210  Biso   1.000  F
  F49      1.0000 0.96950  0.40800  0.22620  Biso   1.000  F
  C19      1.0000 0.16120  0.41890  0.25610  Biso   1.000  C
  C20      1.0000 0.21960  0.41200  0.28710  Biso   1.000  C
  F50      1.0000 0.21950  0.36320  0.23470  Biso   1.000  F
  F51      1.0000 0.22640  0.40800  0.38980  Biso   1.000  F
  F52      1.0000 0.27540  0.46390  0.25240  Biso   1.000  F
  F53      1.0000 0.56810  0.57930  0.39920  Biso   1.000  F
  F54      1.0000 0.64280  0.60010  0.27730  Biso   1.000  F
  F55      1.0000 0.54110  0.54150  0.23620  Biso   1.000  F
  N16      1.0000 0.56630  0.71910  0.15440  Biso   1.000  N
  N17      1.0000 0.56550  0.66010  0.15870  Biso   1.000  N
  N18      1.0000 0.59080  0.70410  0.32710  Biso   1.000  N
  F56      1.0000 0.70070  0.67930  0.08630  Biso   1.000  F
  F57      1.0000 0.66200  0.40790  0.08580  Biso   1.000  F
  C21      1.0000 0.58100  0.65460  0.25830  Biso   1.000  C
  C22      1.0000 0.58800  0.59880  0.29810  Biso   1.000  C
  F58      1.0000 0.54760  0.56580  0.37930  Biso   1.000  F
  F59      1.0000 0.65120  0.62740  0.35210  Biso   1.000  F
  F60      1.0000 0.59200  0.56150  0.22620  Biso   1.000  F
  C23      1.0000 0.58110  0.74230  0.25610  Biso   1.000  C
  C24      1.0000 0.58800  0.80760  0.28710  Biso   1.000  C
  F61      1.0000 0.63680  0.85630  0.23470  Biso   1.000  F
  F62      1.0000 0.59200  0.81840  0.38980  Biso   1.000  F
  F63      1.0000 0.53610  0.81150  0.25240  Biso   1.000  F
  F64      1.0000 0.42070  0.98880  0.39920  Biso   1.000  F
  F65      1.0000 0.39990  0.04270  0.27730  Biso   1.000  F
  F66      1.0000 0.45850  0.99960  0.23620  Biso   1.000  F
  N19      1.0000 0.28090  0.84720  0.84560  Biso   1.000  N
  N20      1.0000 0.33990  0.90540  0.84130  Biso   1.000  N
  N21      1.0000 0.29590  0.88670  0.67290  Biso   1.000  N
  F67      1.0000 0.32070  0.02140  0.91370  Biso   1.000  F
  F68      1.0000 0.59210  0.25410  0.91420  Biso   1.000  F
  C25      1.0000 0.34540  0.92640  0.74170  Biso   1.000  C
  C26      1.0000 0.40120  0.98920  0.70190  Biso   1.000  C
  F69      1.0000 0.43420  0.98180  0.62070  Biso   1.000  F
  F70      1.0000 0.37260  0.02380  0.64790  Biso   1.000  F
  F71      1.0000 0.43850  0.03050  0.77380  Biso   1.000  F
  C27      1.0000 0.25770  0.83880  0.74390  Biso   1.000  C
  C28      1.0000 0.19240  0.78040  0.71290  Biso   1.000  C
  F72      1.0000 0.14370  0.78050  0.76530  Biso   1.000  F
  F73      1.0000 0.18160  0.77360  0.61020  Biso   1.000  F
  F74      1.0000 0.18850  0.72460  0.74760  Biso   1.000  F
  F75      1.0000 0.01120  0.43190  0.60080  Biso   1.000  F
  F76      1.0000 0.95730  0.35720  0.72270  Biso   1.000  F
  F77      1.0000 0.00040  0.45890  0.76380  Biso   1.000  F
  N22      1.0000 0.15280  0.43370  0.84560  Biso   1.000  N
  N23      1.0000 0.09460  0.43450  0.84130  Biso   1.000  N
  N24      1.0000 0.11330  0.40920  0.67290  Biso   1.000  N
  F78      1.0000 0.97860  0.29930  0.91370  Biso   1.000  F
  F79      1.0000 0.74590  0.33800  0.91420  Biso   1.000  F
  C29      1.0000 0.07360  0.41900  0.74170  Biso   1.000  C
  C30      1.0000 0.01080  0.41200  0.70190  Biso   1.000  C
  F80      1.0000 0.01820  0.45240  0.62070  Biso   1.000  F
  F81      1.0000 0.97620  0.34880  0.64790  Biso   1.000  F
  F82      1.0000 0.96950  0.40800  0.77380  Biso   1.000  F
  C31      1.0000 0.16120  0.41890  0.74390  Biso   1.000  C
  C32      1.0000 0.21960  0.41200  0.71290  Biso   1.000  C
  F83      1.0000 0.21950  0.36320  0.76530  Biso   1.000  F
  F84      1.0000 0.22640  0.40800  0.61020  Biso   1.000  F
  F85      1.0000 0.27540  0.46390  0.74760  Biso   1.000  F
  F86      1.0000 0.56810  0.57930  0.60080  Biso   1.000  F
  F87      1.0000 0.64280  0.60010  0.72270  Biso   1.000  F
  F88      1.0000 0.54110  0.54150  0.76380  Biso   1.000  F
  N25      1.0000 0.56630  0.71910  0.84560  Biso   1.000  N
  N26      1.0000 0.56550  0.66010  0.84130  Biso   1.000  N
  N27      1.0000 0.59080  0.70410  0.67290  Biso   1.000  N
  F89      1.0000 0.70070  0.67930  0.91370  Biso   1.000  F
  F90      1.0000 0.66200  0.40790  0.91420  Biso   1.000  F
  C33      1.0000 0.58100  0.65460  0.74170  Biso   1.000  C
  C34      1.0000 0.58800  0.59880  0.70190  Biso   1.000  C
  F91      1.0000 0.54760  0.56580  0.62070  Biso   1.000  F
  F92      1.0000 0.65120  0.62740  0.64790  Biso   1.000  F
  F93      1.0000 0.59200  0.56150  0.77380  Biso   1.000  F
  C35      1.0000 0.58110  0.74230  0.74390  Biso   1.000  C
  C36      1.0000 0.58800  0.80760  0.71290  Biso   1.000  C
  F94      1.0000 0.63680  0.85630  0.76530  Biso   1.000  F
  F95      1.0000 0.59200  0.81840  0.61020  Biso   1.000  F
  F96      1.0000 0.53610  0.81150  0.74760  Biso   1.000  F
  F97      1.0000 0.42070  0.98880  0.60080  Biso   1.000  F
  F98      1.0000 0.39990  0.04270  0.72270  Biso   1.000  F
  F99      1.0000 0.45850  0.99960  0.76380  Biso   1.000  F
  N28      1.0000 0.71910  0.15280  0.84560  Biso   1.000  N
  N29      1.0000 0.66010  0.09460  0.84130  Biso   1.000  N
  N30      1.0000 0.70410  0.11330  0.67290  Biso   1.000  N
  F100     1.0000 0.67930  0.97860  0.91370  Biso   1.000  F
  F101     1.0000 0.40790  0.74590  0.91420  Biso   1.000  F
  C37      1.0000 0.65460  0.07360  0.74170  Biso   1.000  C
  C38      1.0000 0.59880  0.01080  0.70190  Biso   1.000  C
  F102     1.0000 0.56580  0.01820  0.62070  Biso   1.000  F
  F103     1.0000 0.62740  0.97620  0.64790  Biso   1.000  F
  F104     1.0000 0.56150  0.96950  0.77380  Biso   1.000  F
  C39      1.0000 0.74230  0.16120  0.74390  Biso   1.000  C
  C40      1.0000 0.80760  0.21960  0.71290  Biso   1.000  C
  F105     1.0000 0.85630  0.21950  0.76530  Biso   1.000  F
  F106     1.0000 0.81840  0.22640  0.61020  Biso   1.000  F
  F107     1.0000 0.81150  0.27540  0.74760  Biso   1.000  F
  F108     1.0000 0.98880  0.56810  0.60080  Biso   1.000  F
  F109     1.0000 0.04270  0.64280  0.72270  Biso   1.000  F
  F110     1.0000 0.99960  0.54110  0.76380  Biso   1.000  F
  N31      1.0000 0.84720  0.56630  0.84560  Biso   1.000  N
  N32      1.0000 0.90540  0.56550  0.84130  Biso   1.000  N
  N33      1.0000 0.88670  0.59080  0.67290  Biso   1.000  N
  F111     1.0000 0.02140  0.70070  0.91370  Biso   1.000  F
  F112     1.0000 0.25410  0.66200  0.91420  Biso   1.000  F
  C41      1.0000 0.92640  0.58100  0.74170  Biso   1.000  C
  C42      1.0000 0.98920  0.58800  0.70190  Biso   1.000  C
  F113     1.0000 0.98180  0.54760  0.62070  Biso   1.000  F
  F114     1.0000 0.02380  0.65120  0.64790  Biso   1.000  F
  F115     1.0000 0.03050  0.59200  0.77380  Biso   1.000  F
  C43      1.0000 0.83880  0.58110  0.74390  Biso   1.000  C
  C44      1.0000 0.78040  0.58800  0.71290  Biso   1.000  C
  F116     1.0000 0.78050  0.63680  0.76530  Biso   1.000  F
  F117     1.0000 0.77360  0.59200  0.61020  Biso   1.000  F
  F118     1.0000 0.72460  0.53610  0.74760  Biso   1.000  F
  F119     1.0000 0.43190  0.42070  0.60080  Biso   1.000  F
  F120     1.0000 0.35720  0.39990  0.72270  Biso   1.000  F
  F121     1.0000 0.45890  0.45850  0.76380  Biso   1.000  F
  N34      1.0000 0.43370  0.28090  0.84560  Biso   1.000  N
  N35      1.0000 0.43450  0.33990  0.84130  Biso   1.000  N
  N36      1.0000 0.40920  0.29590  0.67290  Biso   1.000  N
  F122     1.0000 0.29930  0.32070  0.91370  Biso   1.000  F
  F123     1.0000 0.33800  0.59210  0.91420  Biso   1.000  F
  C45      1.0000 0.41900  0.34540  0.74170  Biso   1.000  C
  C46      1.0000 0.41200  0.40120  0.70190  Biso   1.000  C
  F124     1.0000 0.45240  0.43420  0.62070  Biso   1.000  F
  F125     1.0000 0.34880  0.37260  0.64790  Biso   1.000  F
  F126     1.0000 0.40800  0.43850  0.77380  Biso   1.000  F
  C47      1.0000 0.41890  0.25770  0.74390  Biso   1.000  C
  C48      1.0000 0.41200  0.19240  0.71290  Biso   1.000  C
  F127     1.0000 0.36320  0.14370  0.76530  Biso   1.000  F
  F128     1.0000 0.40800  0.18160  0.61020  Biso   1.000  F
  F129     1.0000 0.46390  0.18850  0.74760  Biso   1.000  F
  F130     1.0000 0.57930  0.01120  0.60080  Biso   1.000  F
  F131     1.0000 0.60010  0.95730  0.72270  Biso   1.000  F
  F132     1.0000 0.54150  0.00040  0.76380  Biso   1.000  F
  Ag1      1.0000 0.59112  0.06003  0.00000  Biso   1.000  Ag
  Ag2      1.0000 0.76156  0.20753  0.00000  Biso   1.000  Ag
  N37      1.0000 0.55020  0.94830  0.00000  Biso   1.000  N
  N38      1.0000 0.48400  0.90510  0.00000  Biso   1.000  N
  N39      1.0000 0.53600  0.84670  0.00000  Biso   1.000  N
  C49      1.0000 0.57850  0.91150  0.00000  Biso   1.000  C
  C50      1.0000 0.65190  0.94110  0.00000  Biso   1.000  C
  F133     1.0000 0.66930  0.89550  0.00000  Biso   1.000  F
  C51      1.0000 0.47870  0.84550  0.00000  Biso   1.000  C
  C52      1.0000 0.41380  0.78240  0.00000  Biso   1.000  C
  F134     1.0000 0.36450  0.79360  0.00000  Biso   1.000  F
  Ag3      1.0000 0.93997  0.53109  0.00000  Biso   1.000  Ag
  Ag4      1.0000 0.79247  0.55403  0.00000  Biso   1.000  Ag
  N40      1.0000 0.05170  0.60190  0.00000  Biso   1.000  N
  N41      1.0000 0.09490  0.57890  0.00000  Biso   1.000  N
  N42      1.0000 0.15330  0.68930  0.00000  Biso   1.000  N
  C53      1.0000 0.08850  0.66700  0.00000  Biso   1.000  C
  C54      1.0000 0.05890  0.71080  0.00000  Biso   1.000  C
  F135     1.0000 0.10450  0.77380  0.00000  Biso   1.000  F
  C55      1.0000 0.15450  0.63320  0.00000  Biso   1.000  C
  C56      1.0000 0.21760  0.63140  0.00000  Biso   1.000  C
  F136     1.0000 0.20640  0.57090  0.00000  Biso   1.000  F
  Ag5      1.0000 0.46891  0.40888  0.00000  Biso   1.000  Ag
  Ag6      1.0000 0.44597  0.23844  0.00000  Biso   1.000  Ag
  N43      1.0000 0.39810  0.44980  0.00000  Biso   1.000  N
  N44      1.0000 0.42110  0.51600  0.00000  Biso   1.000  N
  N45      1.0000 0.31070  0.46400  0.00000  Biso   1.000  N
  C57      1.0000 0.33300  0.42150  0.00000  Biso   1.000  C
  C58      1.0000 0.28920  0.34810  0.00000  Biso   1.000  C
  F137     1.0000 0.22620  0.33070  0.00000  Biso   1.000  F
  C59      1.0000 0.36680  0.52130  0.00000  Biso   1.000  C
  C60      1.0000 0.36860  0.58620  0.00000  Biso   1.000  C
  F138     1.0000 0.42910  0.63550  0.00000  Biso   1.000  F
  Ag7      1.0000 0.40888  0.93997  0.00000  Biso   1.000  Ag
  Ag8      1.0000 0.23844  0.79247  0.00000  Biso   1.000  Ag
  N46      1.0000 0.44980  0.05170  0.00000  Biso   1.000  N
  N47      1.0000 0.51600  0.09490  0.00000  Biso   1.000  N
  N48      1.0000 0.46400  0.15330  0.00000  Biso   1.000  N
  C61      1.0000 0.42150  0.08850  0.00000  Biso   1.000  C
  C62      1.0000 0.34810  0.05890  0.00000  Biso   1.000  C
  F139     1.0000 0.33070  0.10450  0.00000  Biso   1.000  F
  C63      1.0000 0.52130  0.15450  0.00000  Biso   1.000  C
  C64      1.0000 0.58620  0.21760  0.00000  Biso   1.000  C
  F140     1.0000 0.63550  0.20640  0.00000  Biso   1.000  F
  Ag9      1.0000 0.06003  0.46891  0.00000  Biso   1.000  Ag
  Ag10     1.0000 0.20753  0.44597  0.00000  Biso   1.000  Ag
  N49      1.0000 0.94830  0.39810  0.00000  Biso   1.000  N
  N50      1.0000 0.90510  0.42110  0.00000  Biso   1.000  N
  N51      1.0000 0.84670  0.31070  0.00000  Biso   1.000  N
  C65      1.0000 0.91150  0.33300  0.00000  Biso   1.000  C
  C66      1.0000 0.94110  0.28920  0.00000  Biso   1.000  C
  F141     1.0000 0.89550  0.22620  0.00000  Biso   1.000  F
  C67      1.0000 0.84550  0.36680  0.00000  Biso   1.000  C
  C68      1.0000 0.78240  0.36860  0.00000  Biso   1.000  C
  F142     1.0000 0.79360  0.42910  0.00000  Biso   1.000  F
  Ag11     1.0000 0.53109  0.59112  0.00000  Biso   1.000  Ag
  Ag12     1.0000 0.55403  0.76156  0.00000  Biso   1.000  Ag
  N52      1.0000 0.60190  0.55020  0.00000  Biso   1.000  N
  N53      1.0000 0.57890  0.48400  0.00000  Biso   1.000  N
  N54      1.0000 0.68930  0.53600  0.00000  Biso   1.000  N
  C69      1.0000 0.66700  0.57850  0.00000  Biso   1.000  C
  C70      1.0000 0.71080  0.65190  0.00000  Biso   1.000  C
  F143     1.0000 0.77380  0.66930  0.00000  Biso   1.000  F
  C71      1.0000 0.63320  0.47870  0.00000  Biso   1.000  C
  C72      1.0000 0.63140  0.41380  0.00000  Biso   1.000  C
  F144     1.0000 0.57090  0.36450  0.00000  Biso   1.000  F
  Ag13     1.0000 0.70950  0.10985  0.50000  Biso   1.000  Ag
  Ag14     1.0000 0.89015  0.59965  0.50000  Biso   1.000  Ag
  Ag15     1.0000 0.40035  0.29050  0.50000  Biso   1.000  Ag
  Ag16     1.0000 0.29050  0.89015  0.50000  Biso   1.000  Ag
  Ag17     1.0000 0.10985  0.40035  0.50000  Biso   1.000  Ag
  Ag18     1.0000 0.59965  0.70950  0.50000  Biso   1.000  Ag
