data_image0
_cell_length_a       12.935
_cell_length_b       14.708
_cell_length_c       15.359
_cell_angle_alpha    90
_cell_angle_beta     90
_cell_angle_gamma    90

_symmetry_space_group_name_H-M    "P 1"
_symmetry_int_tables_number       1

loop_
  _symmetry_equiv_pos_as_xyz
  'x, y, z'

loop_
  _atom_site_label
  _atom_site_occupancy
  _atom_site_fract_x
  _atom_site_fract_y
  _atom_site_fract_z
  _atom_site_thermal_displace_type
  _atom_site_B_iso_or_equiv
  _atom_site_type_symbol
  O1       1.0000 0.35900  0.15900  0.12500  Biso   1.000  O
  C1       1.0000 0.44220  0.17850  0.15050  Biso   1.000  C
  C2       1.0000 0.47150  0.28100  0.13420  Biso   1.000  C
  C3       1.0000 0.48200  0.02620  0.20600  Biso   1.000  C
  C4       1.0000 0.62490  0.15100  0.19300  Biso   1.000  C
  N1       1.0000 0.51470  0.12400  0.17850  Biso   1.000  N
  Zn1      1.0000 0.01766  0.02724  0.04707  Biso   1.000  Zn
  Zn2      1.0000 0.20196  0.17115  0.16508  Biso   1.000  Zn
  O2       1.0000 0.13050  0.03620  0.96210  Biso   1.000  O
  O3       1.0000 0.16800  0.16400  0.03250  Biso   1.000  O
  O4       1.0000 0.44320  0.04690  0.64680  Biso   1.000  O
  O5       1.0000 0.30330  0.96850  0.68390  Biso   1.000  O
  O6       1.0000 0.43870  0.36630  0.91970  Biso   1.000  O
  O7       1.0000 0.54190  0.31800  0.81231  Biso   1.000  O
  C5       1.0000 0.26320  0.12930  0.90490  Biso   1.000  C
  C6       1.0000 0.32360  0.20720  0.91390  Biso   1.000  C
  H1       1.0000 0.31450  0.24540  0.96160  Biso   1.000  H
  C7       1.0000 0.39810  0.22770  0.85080  Biso   1.000  C
  C8       1.0000 0.41170  0.17000  0.78060  Biso   1.000  C
  H2       1.0000 0.46250  0.18270  0.73950  Biso   1.000  H
  C9       1.0000 0.34970  0.09290  0.77090  Biso   1.000  C
  C10      1.0000 0.27700  0.07340  0.83300  Biso   1.000  C
  H3       1.0000 0.23600  0.02180  0.82680  Biso   1.000  H
  C11      1.0000 0.18260  0.10840  0.97210  Biso   1.000  C
  C12      1.0000 0.36580  0.03060  0.69430  Biso   1.000  C
  C13      1.0000 0.46580  0.31040  0.86170  Biso   1.000  C
  C14      1.0000 0.43830  0.13590  0.16840  Biso   1.000  C
  C15      1.0000 0.47200  0.03260  0.17500  Biso   1.000  C
  C16      1.0000 0.48080  0.29860  0.16470  Biso   1.000  C
  C17      1.0000 0.60990  0.17900  0.22700  Biso   1.000  C
  N2       1.0000 0.50890  0.19800  0.18160  Biso   1.000  N
  O8       1.0000 0.35400  0.14600  0.13900  Biso   1.000  O
  O9       1.0000 0.14100  0.84100  0.62500  Biso   1.000  O
  C18      1.0000 0.05780  0.82150  0.65050  Biso   1.000  C
  C19      1.0000 0.02850  0.71900  0.63420  Biso   1.000  C
  C20      1.0000 0.01800  0.97380  0.70600  Biso   1.000  C
  C21      1.0000 0.87510  0.84900  0.69300  Biso   1.000  C
  N3       1.0000 0.98530  0.87600  0.67850  Biso   1.000  N
  Zn3      1.0000 0.48234  0.97276  0.54707  Biso   1.000  Zn
  Zn4      1.0000 0.29804  0.82885  0.66508  Biso   1.000  Zn
  O10      1.0000 0.36950  0.96380  0.46210  Biso   1.000  O
  O11      1.0000 0.33200  0.83600  0.53250  Biso   1.000  O
  O12      1.0000 0.05680  0.95310  0.14680  Biso   1.000  O
  O13      1.0000 0.19670  0.03150  0.18390  Biso   1.000  O
  O14      1.0000 0.06130  0.63370  0.41970  Biso   1.000  O
  O15      1.0000 0.95810  0.68200  0.31231  Biso   1.000  O
  C22      1.0000 0.23680  0.87070  0.40490  Biso   1.000  C
  C23      1.0000 0.17640  0.79280  0.41390  Biso   1.000  C
  H4       1.0000 0.18550  0.75460  0.46160  Biso   1.000  H
  C24      1.0000 0.10190  0.77230  0.35080  Biso   1.000  C
  C25      1.0000 0.08830  0.83000  0.28060  Biso   1.000  C
  H5       1.0000 0.03750  0.81730  0.23950  Biso   1.000  H
  C26      1.0000 0.15030  0.90710  0.27090  Biso   1.000  C
  C27      1.0000 0.22300  0.92660  0.33300  Biso   1.000  C
  H6       1.0000 0.26400  0.97820  0.32680  Biso   1.000  H
  C28      1.0000 0.31740  0.89160  0.47210  Biso   1.000  C
  C29      1.0000 0.13420  0.96940  0.19430  Biso   1.000  C
  C30      1.0000 0.03420  0.68960  0.36170  Biso   1.000  C
  C31      1.0000 0.06170  0.86410  0.66840  Biso   1.000  C
  C32      1.0000 0.02800  0.96740  0.67500  Biso   1.000  C
  C33      1.0000 0.01920  0.70140  0.66470  Biso   1.000  C
  C34      1.0000 0.89010  0.82100  0.72700  Biso   1.000  C
  N4       1.0000 0.99110  0.80200  0.68160  Biso   1.000  N
  O16      1.0000 0.14600  0.85400  0.63900  Biso   1.000  O
  O17      1.0000 0.64100  0.65900  0.37500  Biso   1.000  O
  C35      1.0000 0.55780  0.67850  0.34950  Biso   1.000  C
  C36      1.0000 0.52850  0.78100  0.36580  Biso   1.000  C
  C37      1.0000 0.51800  0.52620  0.29400  Biso   1.000  C
  C38      1.0000 0.37510  0.65100  0.30700  Biso   1.000  C
  N5       1.0000 0.48530  0.62400  0.32150  Biso   1.000  N
  Zn5      1.0000 0.98234  0.52724  0.45293  Biso   1.000  Zn
  Zn6      1.0000 0.79804  0.67115  0.33492  Biso   1.000  Zn
  O18      1.0000 0.86950  0.53620  0.53790  Biso   1.000  O
  O19      1.0000 0.83200  0.66400  0.46750  Biso   1.000  O
  O20      1.0000 0.55680  0.54690  0.85320  Biso   1.000  O
  O21      1.0000 0.69670  0.46850  0.81610  Biso   1.000  O
  O22      1.0000 0.56130  0.86630  0.58030  Biso   1.000  O
  O23      1.0000 0.45810  0.81800  0.68769  Biso   1.000  O
  C39      1.0000 0.73680  0.62930  0.59510  Biso   1.000  C
  C40      1.0000 0.67640  0.70720  0.58610  Biso   1.000  C
  H7       1.0000 0.68550  0.74540  0.53840  Biso   1.000  H
  C41      1.0000 0.60190  0.72770  0.64920  Biso   1.000  C
  C42      1.0000 0.58830  0.67000  0.71940  Biso   1.000  C
  H8       1.0000 0.53750  0.68270  0.76050  Biso   1.000  H
  C43      1.0000 0.65030  0.59290  0.72910  Biso   1.000  C
  C44      1.0000 0.72300  0.57340  0.66700  Biso   1.000  C
  H9       1.0000 0.76400  0.52180  0.67320  Biso   1.000  H
  C45      1.0000 0.81740  0.60840  0.52790  Biso   1.000  C
  C46      1.0000 0.63420  0.53060  0.80570  Biso   1.000  C
  C47      1.0000 0.53420  0.81040  0.63830  Biso   1.000  C
  C48      1.0000 0.56170  0.63590  0.33160  Biso   1.000  C
  C49      1.0000 0.52800  0.53260  0.32500  Biso   1.000  C
  C50      1.0000 0.51920  0.79860  0.33530  Biso   1.000  C
  C51      1.0000 0.39010  0.67900  0.27300  Biso   1.000  C
  N6       1.0000 0.49110  0.69800  0.31840  Biso   1.000  N
  O24      1.0000 0.64600  0.64600  0.36100  Biso   1.000  O
  O25      1.0000 0.85900  0.34100  0.87500  Biso   1.000  O
  C52      1.0000 0.94220  0.32150  0.84950  Biso   1.000  C
  C53      1.0000 0.97150  0.21900  0.86580  Biso   1.000  C
  C54      1.0000 0.98200  0.47380  0.79400  Biso   1.000  C
  C55      1.0000 0.12490  0.34900  0.80700  Biso   1.000  C
  N7       1.0000 0.01470  0.37600  0.82150  Biso   1.000  N
  Zn7      1.0000 0.51766  0.47276  0.95293  Biso   1.000  Zn
  Zn8      1.0000 0.70196  0.32885  0.83492  Biso   1.000  Zn
  O26      1.0000 0.63050  0.46380  0.03790  Biso   1.000  O
  O27      1.0000 0.66800  0.33600  0.96750  Biso   1.000  O
  O28      1.0000 0.94320  0.45310  0.35320  Biso   1.000  O
  O29      1.0000 0.80330  0.53150  0.31610  Biso   1.000  O
  O30      1.0000 0.93870  0.13370  0.08030  Biso   1.000  O
  O31      1.0000 0.04190  0.18200  0.18769  Biso   1.000  O
  C56      1.0000 0.76320  0.37070  0.09510  Biso   1.000  C
  C57      1.0000 0.82360  0.29280  0.08610  Biso   1.000  C
  H10      1.0000 0.81450  0.25460  0.03840  Biso   1.000  H
  C58      1.0000 0.89810  0.27230  0.14920  Biso   1.000  C
  C59      1.0000 0.91170  0.33000  0.21940  Biso   1.000  C
  H11      1.0000 0.96250  0.31730  0.26050  Biso   1.000  H
  C60      1.0000 0.84970  0.40710  0.22910  Biso   1.000  C
  C61      1.0000 0.77700  0.42660  0.16700  Biso   1.000  C
  H12      1.0000 0.73600  0.47820  0.17320  Biso   1.000  H
  C62      1.0000 0.68260  0.39160  0.02790  Biso   1.000  C
  C63      1.0000 0.86580  0.46940  0.30570  Biso   1.000  C
  C64      1.0000 0.96580  0.18960  0.13830  Biso   1.000  C
  C65      1.0000 0.93830  0.36410  0.83160  Biso   1.000  C
  C66      1.0000 0.97200  0.46740  0.82500  Biso   1.000  C
  C67      1.0000 0.98080  0.20140  0.83530  Biso   1.000  C
  C68      1.0000 0.10990  0.32100  0.77300  Biso   1.000  C
  N8       1.0000 0.00890  0.30200  0.81840  Biso   1.000  N
  O32      1.0000 0.85400  0.35400  0.86100  Biso   1.000  O
