data_image0
_cell_length_a       15.1376
_cell_length_b       15.2092
_cell_length_c       26.3
_cell_angle_alpha    73.271
_cell_angle_beta     77.508
_cell_angle_gamma    82.596

_symmetry_space_group_name_H-M    "P 1"
_symmetry_int_tables_number       1

loop_
  _symmetry_equiv_pos_as_xyz
  'x, y, z'

loop_
  _atom_site_label
  _atom_site_occupancy
  _atom_site_fract_x
  _atom_site_fract_y
  _atom_site_fract_z
  _atom_site_thermal_displace_type
  _atom_site_B_iso_or_equiv
  _atom_site_type_symbol
  Zn1      1.0000 0.68199  0.25709  0.58084  Biso   1.000  Zn
  Zn2      1.0000 0.64653  0.20099  0.70098  Biso   1.000  Zn
  Mn1      1.0000 0.64323  0.26865  0.13389  Biso   1.000  Mn
  Mn2      1.0000 0.63483  0.21559  0.15067  Biso   1.000  Mn
  Cl1      1.0000 0.64859  0.17638  0.15523  Biso   1.000  Cl
  Cl2      1.0000 0.63770  0.05500  0.19920  Biso   1.000  Cl
  O1       1.0000 0.65444  0.34371  0.67865  Biso   1.000  O
  O2       1.0000 0.65779  0.38663  0.59000  Biso   1.000  O
  O3       1.0000 0.65018  0.06998  0.69013  Biso   1.000  O
  O4       1.0000 0.70757  0.11372  0.60200  Biso   1.000  O
  O5       1.0000 0.81474  0.26198  0.58887  Biso   1.000  O
  O6       1.0000 0.78346  0.18827  0.67852  Biso   1.000  O
  O7       1.0000 0.55018  0.23848  0.61138  Biso   1.000  O
  O8       1.0000 0.51234  0.21667  0.69958  Biso   1.000  O
  O9       1.0000 0.72226  0.20277  0.08449  Biso   1.000  O
  O10      1.0000 0.72728  0.25001  0.18117  Biso   1.000  O
  N1       1.0000 0.64924  0.18006  0.78220  Biso   1.000  N
  N2       1.0000 0.53142  0.22361  0.11304  Biso   1.000  N
  N3       1.0000 0.53797  0.26638  0.20162  Biso   1.000  N
  N4       1.0000 0.68784  0.27161  0.50345  Biso   1.000  N
  C1       1.0000 0.65902  0.40459  0.63608  Biso   1.000  C
  C2       1.0000 0.65858  0.50082  0.63650  Biso   1.000  C
  C3       1.0000 0.66665  0.51363  0.68267  Biso   1.000  C
  H1       1.0000 0.66930  0.46330  0.71380  Biso   1.000  H
  C4       1.0000 0.67143  0.61024  0.68430  Biso   1.000  C
  H2       1.0000 0.67570  0.62190  0.71720  Biso   1.000  H
  C5       1.0000 0.66979  0.68049  0.63998  Biso   1.000  C
  C6       1.0000 0.66184  0.66083  0.59096  Biso   1.000  C
  H3       1.0000 0.65800  0.70880  0.55890  Biso   1.000  H
  C7       1.0000 0.65999  0.57258  0.59195  Biso   1.000  C
  H4       1.0000 0.65960  0.55950  0.55880  Biso   1.000  H
  C8       1.0000 0.67853  0.77396  0.64209  Biso   1.000  C
  C9       1.0000 0.64729  0.80429  0.68790  Biso   1.000  C
  H5       1.0000 0.62580  0.76000  0.72060  Biso   1.000  H
  C10      1.0000 0.64507  0.89143  0.68944  Biso   1.000  C
  H6       1.0000 0.61620  0.90820  0.72150  Biso   1.000  H
  C11      1.0000 0.68509  0.95889  0.64403  Biso   1.000  C
  C12      1.0000 0.72224  0.93789  0.59692  Biso   1.000  C
  H7       1.0000 0.75100  0.98300  0.56680  Biso   1.000  H
  C13      1.0000 0.71730  0.84338  0.59308  Biso   1.000  C
  H8       1.0000 0.73870  0.82790  0.55980  Biso   1.000  H
  C14      1.0000 0.68148  0.05662  0.64368  Biso   1.000  C
  C15      1.0000 0.83907  0.22204  0.63448  Biso   1.000  C
  C16      1.0000 0.93520  0.21859  0.63883  Biso   1.000  C
  C17      1.0000 0.96554  0.16853  0.68059  Biso   1.000  C
  H9       1.0000 0.92570  0.13360  0.71050  Biso   1.000  H
  C18      1.0000 0.06106  0.16560  0.68174  Biso   1.000  C
  H10      1.0000 0.08450  0.12220  0.71050  Biso   1.000  H
  C19      1.0000 0.11954  0.22420  0.64225  Biso   1.000  C
  C20      1.0000 0.08626  0.27941  0.60286  Biso   1.000  C
  H11      1.0000 0.12410  0.32200  0.57610  Biso   1.000  H
  C21      1.0000 0.99098  0.27890  0.59774  Biso   1.000  C
  H12      1.0000 0.96830  0.31840  0.56740  Biso   1.000  H
  C22      1.0000 0.21080  0.22448  0.64396  Biso   1.000  C
  C23      1.0000 0.23726  0.20198  0.69433  Biso   1.000  C
  H13      1.0000 0.19290  0.18360  0.72620  Biso   1.000  H
  C24      1.0000 0.32909  0.20584  0.69918  Biso   1.000  C
  H14      1.0000 0.34550  0.19540  0.73340  Biso   1.000  H
  C25      1.0000 0.39210  0.22528  0.65220  Biso   1.000  C
  C26      1.0000 0.36338  0.24057  0.60401  Biso   1.000  C
  H15      1.0000 0.40670  0.25410  0.57130  Biso   1.000  H
  C27      1.0000 0.27903  0.23711  0.60182  Biso   1.000  C
  H16      1.0000 0.26500  0.24420  0.56730  Biso   1.000  H
  C28      1.0000 0.49566  0.22592  0.65493  Biso   1.000  C
  C29      1.0000 0.57736  0.22537  0.81041  Biso   1.000  C
  H17      1.0000 0.52480  0.25440  0.79660  Biso   1.000  H
  C30      1.0000 0.59323  0.22261  0.86445  Biso   1.000  C
  H18      1.0000 0.54860  0.25320  0.88610  Biso   1.000  H
  C31      1.0000 0.66790  0.17899  0.88549  Biso   1.000  C
  C32      1.0000 0.73228  0.14540  0.85131  Biso   1.000  C
  H19      1.0000 0.78930  0.12570  0.86190  Biso   1.000  H
  C33      1.0000 0.72310  0.13645  0.80043  Biso   1.000  C
  H20      1.0000 0.76670  0.10170  0.78070  Biso   1.000  H
  C34      1.0000 0.67977  0.17896  0.93870  Biso   1.000  C
  C35      1.0000 0.60224  0.19328  0.97669  Biso   1.000  C
  H21      1.0000 0.54200  0.19770  0.97060  Biso   1.000  H
  C36      1.0000 0.62513  0.20100  0.02819  Biso   1.000  C
  C37      1.0000 0.70675  0.19415  0.04145  Biso   1.000  C
  C38      1.0000 0.78347  0.19100  0.99399  Biso   1.000  C
  C39      1.0000 0.76414  0.17402  0.94949  Biso   1.000  C
  H22      1.0000 0.81370  0.15740  0.92410  Biso   1.000  H
  C40      1.0000 0.53403  0.20700  0.06775  Biso   1.000  C
  H23      1.0000 0.47930  0.19830  0.05830  Biso   1.000  H
  C41      1.0000 0.87989  0.17230  0.01055  Biso   1.000  C
  C42      1.0000 0.89710  0.25760  0.02632  Biso   1.000  C
  H24      1.0000 0.84800  0.26860  0.05540  Biso   1.000  H
  H25      1.0000 0.89930  0.31130  0.99480  Biso   1.000  H
  H26      1.0000 0.95510  0.24730  0.03880  Biso   1.000  H
  C43      1.0000 0.95521  0.16190  0.95990  Biso   1.000  C
  H27      1.0000 0.94300  0.11040  0.94770  Biso   1.000  H
  H28      1.0000 0.01500  0.15020  0.97020  Biso   1.000  H
  H29      1.0000 0.95420  0.21880  0.93060  Biso   1.000  H
  C44      1.0000 0.90020  0.10130  0.05535  Biso   1.000  C
  H30      1.0000 0.85760  0.10790  0.08810  Biso   1.000  H
  H31      1.0000 0.96230  0.10510  0.05950  Biso   1.000  H
  H32      1.0000 0.89490  0.04150  0.04960  Biso   1.000  H
  C45      1.0000 0.44613  0.22270  0.15079  Biso   1.000  C
  H33      1.0000 0.44390  0.15790  0.17400  Biso   1.000  H
  C46      1.0000 0.44489  0.27730  0.18757  Biso   1.000  C
  H34      1.0000 0.44490  0.34080  0.16260  Biso   1.000  H
  C47      1.0000 0.36749  0.28670  0.22914  Biso   1.000  C
  H35      1.0000 0.37500  0.33660  0.24480  Biso   1.000  H
  H36      1.0000 0.36130  0.22870  0.25840  Biso   1.000  H
  C48      1.0000 0.27876  0.31080  0.20159  Biso   1.000  C
  H37      1.0000 0.22340  0.30600  0.23000  Biso   1.000  H
  H38      1.0000 0.27910  0.37470  0.17820  Biso   1.000  H
  C49      1.0000 0.27768  0.24500  0.16820  Biso   1.000  C
  H39      1.0000 0.26960  0.18250  0.19290  Biso   1.000  H
  H40      1.0000 0.22440  0.26310  0.15030  Biso   1.000  H
  C50      1.0000 0.35948  0.24070  0.12647  Biso   1.000  C
  H41      1.0000 0.36230  0.29950  0.09770  Biso   1.000  H
  H42      1.0000 0.35590  0.19090  0.10980  Biso   1.000  H
  C51      1.0000 0.54769  0.28336  0.24495  Biso   1.000  C
  H43      1.0000 0.49560  0.30200  0.26790  Biso   1.000  H
  C52      1.0000 0.63508  0.27520  0.26014  Biso   1.000  C
  C53      1.0000 0.62866  0.28476  0.31498  Biso   1.000  C
  H44      1.0000 0.57100  0.29430  0.33650  Biso   1.000  H
  C54      1.0000 0.71006  0.27955  0.33594  Biso   1.000  C
  C55      1.0000 0.79666  0.26442  0.30002  Biso   1.000  C
  H45      1.0000 0.85120  0.26030  0.31320  Biso   1.000  H
  C56      1.0000 0.80318  0.25620  0.25034  Biso   1.000  C
  C57      1.0000 0.72675  0.25380  0.22920  Biso   1.000  C
  C58      1.0000 0.89650  0.25738  0.21262  Biso   1.000  C
  C59      1.0000 0.97250  0.26440  0.23580  Biso   1.000  C
  H46      1.0000 0.97670  0.21160  0.26730  Biso   1.000  H
  H47      1.0000 0.96410  0.32140  0.24710  Biso   1.000  H
  H48      1.0000 0.02850  0.26490  0.20880  Biso   1.000  H
  C60      1.0000 0.91700  0.17730  0.19491  Biso   1.000  C
  H49      1.0000 0.91320  0.12330  0.22630  Biso   1.000  H
  H50      1.0000 0.97860  0.17810  0.17340  Biso   1.000  H
  H51      1.0000 0.87360  0.17460  0.17270  Biso   1.000  H
  C61      1.0000 0.90960  0.32740  0.16482  Biso   1.000  C
  H52      1.0000 0.86130  0.32960  0.14490  Biso   1.000  H
  H53      1.0000 0.96850  0.31570  0.14270  Biso   1.000  H
  H54      1.0000 0.90810  0.38640  0.17320  Biso   1.000  H
  C62      1.0000 0.70200  0.27814  0.39085  Biso   1.000  C
  C63      1.0000 0.61742  0.27896  0.42664  Biso   1.000  C
  H55      1.0000 0.56160  0.28280  0.41490  Biso   1.000  H
  C64      1.0000 0.62085  0.27364  0.48190  Biso   1.000  C
  H56      1.0000 0.56360  0.27130  0.50570  Biso   1.000  H
  C65      1.0000 0.76559  0.27689  0.46750  Biso   1.000  C
  H57      1.0000 0.81960  0.28240  0.47890  Biso   1.000  H
  C66      1.0000 0.77163  0.27483  0.41508  Biso   1.000  C
  H58      1.0000 0.83080  0.27070  0.39410  Biso   1.000  H
  Zn3      1.0000 0.38984  0.53879  0.36188  Biso   1.000  Zn
  Zn4      1.0000 0.35417  0.48278  0.48185  Biso   1.000  Zn
  Mn3      1.0000 0.39840  0.44900  0.93156  Biso   1.000  Mn
  Cl3      1.0000 0.38584  0.30768  0.96209  Biso   1.000  Cl
  O11      1.0000 0.52400  0.51999  0.36268  Biso   1.000  O
  O12      1.0000 0.49158  0.50159  0.45470  Biso   1.000  O
  O13      1.0000 0.25181  0.54558  0.38745  Biso   1.000  O
  O14      1.0000 0.22846  0.47491  0.47532  Biso   1.000  O
  O15      1.0000 0.37879  0.35176  0.47344  Biso   1.000  O
  O16      1.0000 0.38001  0.40041  0.38539  Biso   1.000  O
  O17      1.0000 0.33291  0.62423  0.46351  Biso   1.000  O
  O18      1.0000 0.39303  0.66114  0.37489  Biso   1.000  O
  O19      1.0000 0.31393  0.47961  0.98937  Biso   1.000  O
  O20      1.0000 0.30518  0.46788  0.88771  Biso   1.000  O
  N5       1.0000 0.38921  0.55712  0.28342  Biso   1.000  N
  N6       1.0000 0.50676  0.44879  0.96532  Biso   1.000  N
  N7       1.0000 0.50089  0.46786  0.86569  Biso   1.000  N
  N8       1.0000 0.34707  0.46560  0.56293  Biso   1.000  N
  C67      1.0000 0.54663  0.51306  0.40979  Biso   1.000  C
  C68      1.0000 0.63912  0.51744  0.41164  Biso   1.000  C
  C69      1.0000 0.70711  0.53660  0.36322  Biso   1.000  C
  H59      1.0000 0.68930  0.55060  0.32910  Biso   1.000  H
  C70      1.0000 0.79457  0.53517  0.36497  Biso   1.000  C
  H60      1.0000 0.83840  0.54490  0.33240  Biso   1.000  H
  C71      1.0000 0.82286  0.51930  0.41504  Biso   1.000  C
  C72      1.0000 0.75712  0.49576  0.46674  Biso   1.000  C
  H61      1.0000 0.77560  0.47890  0.50080  Biso   1.000  H
  C73      1.0000 0.66213  0.50011  0.46209  Biso   1.000  C
  H62      1.0000 0.61600  0.49110  0.49360  Biso   1.000  H
  C74      1.0000 0.92282  0.51888  0.42023  Biso   1.000  C
  C75      1.0000 0.97966  0.57939  0.37894  Biso   1.000  C
  H63      1.0000 0.95760  0.61990  0.34870  Biso   1.000  H
  C76      1.0000 0.06788  0.57715  0.38431  Biso   1.000  C
  H64      1.0000 0.10750  0.61770  0.35740  Biso   1.000  H
  C77      1.0000 0.10245  0.51562  0.42930  Biso   1.000  C
  C78      1.0000 0.04359  0.45868  0.46861  Biso   1.000  C
  H65      1.0000 0.06490  0.41860  0.49920  Biso   1.000  H
  C79      1.0000 0.95722  0.45872  0.46450  Biso   1.000  C
  H66      1.0000 0.91840  0.41770  0.49170  Biso   1.000  H
  C80      1.0000 0.20441  0.50943  0.43015  Biso   1.000  C
  C81      1.0000 0.37899  0.34008  0.42932  Biso   1.000  C
  C82      1.0000 0.37112  0.24343  0.42673  Biso   1.000  C
  C83      1.0000 0.37260  0.21719  0.37884  Biso   1.000  C
  H67      1.0000 0.37710  0.26240  0.34500  Biso   1.000  H
  C84      1.0000 0.36777  0.13014  0.38150  Biso   1.000  C
  H68      1.0000 0.37250  0.11560  0.34820  Biso   1.000  H
  C85      1.0000 0.35698  0.06113  0.42560  Biso   1.000  C
  C86      1.0000 0.36164  0.07839  0.47155  Biso   1.000  C
  H69      1.0000 0.35690  0.02890  0.50350  Biso   1.000  H
  C87      1.0000 0.37345  0.16740  0.47532  Biso   1.000  C
  H70      1.0000 0.38240  0.17690  0.50790  Biso   1.000  H
  C88      1.0000 0.35700  0.95937  0.42545  Biso   1.000  C
  C89      1.0000 0.40420  0.93458  0.37677  Biso   1.000  C
  H71      1.0000 0.43840  0.97690  0.34760  Biso   1.000  H
  C90      1.0000 0.39609  0.84366  0.37538  Biso   1.000  C
  H72      1.0000 0.41780  0.82600  0.34280  Biso   1.000  H
  C91      1.0000 0.35813  0.78292  0.41973  Biso   1.000  C
  C92      1.0000 0.32380  0.81506  0.46368  Biso   1.000  C
  H73      1.0000 0.30080  0.77170  0.49650  Biso   1.000  H
  C93      1.0000 0.32020  0.89728  0.46423  Biso   1.000  C
  H74      1.0000 0.28790  0.91380  0.49570  Biso   1.000  H
  C94      1.0000 0.36220  0.67885  0.41851  Biso   1.000  C
  C95      1.0000 0.44814  0.52382  0.25187  Biso   1.000  C
  H75      1.0000 0.50130  0.49760  0.26590  Biso   1.000  H
  C96      1.0000 0.45028  0.51804  0.20039  Biso   1.000  C
  H76      1.0000 0.50280  0.49450  0.17990  Biso   1.000  H
  C97      1.0000 0.37385  0.54750  0.18089  Biso   1.000  C
  C98      1.0000 0.30414  0.60158  0.21117  Biso   1.000  C
  H77      1.0000 0.25530  0.63840  0.19650  Biso   1.000  H
  C99      1.0000 0.31711  0.59309  0.26104  Biso   1.000  C
  H78      1.0000 0.26770  0.61610  0.28390  Biso   1.000  H
  C100     1.0000 0.36100  0.53140  0.12917  Biso   1.000  C
  C101     1.0000 0.42842  0.51120  0.09135  Biso   1.000  C
  H79      1.0000 0.48810  0.50790  0.09820  Biso   1.000  H
  C102     1.0000 0.42180  0.49500  0.04464  Biso   1.000  C
  C103     1.0000 0.33074  0.50110  0.03449  Biso   1.000  C
  C104     1.0000 0.25290  0.54630  0.06323  Biso   1.000  C
  C105     1.0000 0.26612  0.54590  0.11242  Biso   1.000  C
  H80      1.0000 0.21430  0.55500  0.13860  Biso   1.000  H
  C106     1.0000 0.50076  0.47427  0.01063  Biso   1.000  C
  H81      1.0000 0.55640  0.47860  0.02060  Biso   1.000  H
  C107     1.0000 0.15200  0.53280  0.06108  Biso   1.000  C
  C108     1.0000 0.15150  0.61940  0.00602  Biso   1.000  C
  H82      1.0000 0.09490  0.62270  0.99300  Biso   1.000  H
  H83      1.0000 0.20320  0.60980  0.97800  Biso   1.000  H
  H84      1.0000 0.15620  0.67710  0.01450  Biso   1.000  H
  C109     1.0000 0.08860  0.53170  0.11450  Biso   1.000  C
  H85      1.0000 0.02720  0.52160  0.11210  Biso   1.000  H
  H86      1.0000 0.08810  0.59080  0.12260  Biso   1.000  H
  H87      1.0000 0.10960  0.48200  0.14330  Biso   1.000  H
  C110     1.0000 0.13560  0.45010  0.05529  Biso   1.000  C
  H88      1.0000 0.07550  0.45470  0.04610  Biso   1.000  H
  H89      1.0000 0.13790  0.40230  0.08920  Biso   1.000  H
  H90      1.0000 0.18180  0.43410  0.02630  Biso   1.000  H
  C111     1.0000 0.58983  0.42940  0.92920  Biso   1.000  C
  H91      1.0000 0.59180  0.36280  0.93060  Biso   1.000  H
  C112     1.0000 0.58375  0.47930  0.87580  Biso   1.000  C
  H92      1.0000 0.57860  0.54500  0.87690  Biso   1.000  H
  C113     1.0000 0.67371  0.47190  0.83286  Biso   1.000  C
  H93      1.0000 0.67910  0.41060  0.82590  Biso   1.000  H
  H94      1.0000 0.66750  0.51860  0.79850  Biso   1.000  H
  C114     1.0000 0.75816  0.48440  0.84805  Biso   1.000  C
  H95      1.0000 0.81070  0.46620  0.82250  Biso   1.000  H
  H96      1.0000 0.76100  0.55020  0.84550  Biso   1.000  H
  C115     1.0000 0.76370  0.42940  0.90291  Biso   1.000  C
  H97      1.0000 0.82000  0.44260  0.91180  Biso   1.000  H
  H98      1.0000 0.76940  0.36370  0.90330  Biso   1.000  H
  C116     1.0000 0.68440  0.44370  0.94780  Biso   1.000  C
  H99      1.0000 0.68240  0.50640  0.95230  Biso   1.000  H
  H100     1.0000 0.69110  0.39850  0.98250  Biso   1.000  H
  C117     1.0000 0.48285  0.47595  0.81652  Biso   1.000  C
  H101     1.0000 0.53230  0.49170  0.78720  Biso   1.000  H
  C118     1.0000 0.39948  0.46422  0.80191  Biso   1.000  C
  C119     1.0000 0.40261  0.46681  0.75014  Biso   1.000  C
  H102     1.0000 0.46000  0.47240  0.72660  Biso   1.000  H
  C120     1.0000 0.33143  0.46217  0.72946  Biso   1.000  C
  C121     1.0000 0.25007  0.45550  0.76450  Biso   1.000  C
  H103     1.0000 0.19810  0.44890  0.75150  Biso   1.000  H
  C122     1.0000 0.23820  0.45770  0.81837  Biso   1.000  C
  C123     1.0000 0.32054  0.46333  0.83708  Biso   1.000  C
  C124     1.0000 0.33432  0.45684  0.67102  Biso   1.000  C
  C125     1.0000 0.41771  0.45420  0.63707  Biso   1.000  C
  H104     1.0000 0.47090  0.45080  0.65140  Biso   1.000  H
  C126     1.0000 0.42761  0.45623  0.58292  Biso   1.000  C
  H105     1.0000 0.48560  0.45160  0.56070  Biso   1.000  H
  C127     1.0000 0.26666  0.47345  0.59398  Biso   1.000  C
  H106     1.0000 0.21390  0.48510  0.57830  Biso   1.000  H
  C128     1.0000 0.25731  0.46507  0.64913  Biso   1.000  C
  H107     1.0000 0.19880  0.46500  0.67140  Biso   1.000  H
