data_image0
_cell_length_a       16.991
_cell_length_b       16.991
_cell_length_c       16.991
_cell_angle_alpha    90
_cell_angle_beta     90
_cell_angle_gamma    90

_symmetry_space_group_name_H-M    "P 1"
_symmetry_int_tables_number       1

loop_
  _symmetry_equiv_pos_as_xyz
  'x, y, z'

loop_
  _atom_site_label
  _atom_site_occupancy
  _atom_site_fract_x
  _atom_site_fract_y
  _atom_site_fract_z
  _atom_site_thermal_displace_type
  _atom_site_B_iso_or_equiv
  _atom_site_type_symbol
  C1       1.0000 0.36851  0.89914  0.68750  Biso   1.000  C
  H1       1.0000 0.37770  0.85890  0.72340  Biso   1.000  H
  N1       1.0000 0.40973  0.96832  0.68278  Biso   1.000  N
  H2       1.0000 0.45870  0.07980  0.57430  Biso   1.000  H
  H3       1.0000 0.40580  0.12280  0.63640  Biso   1.000  H
  H4       1.0000 0.37240  0.10390  0.55250  Biso   1.000  H
  C2       1.0000 0.86851  0.39914  0.18750  Biso   1.000  C
  H5       1.0000 0.87770  0.35890  0.22340  Biso   1.000  H
  N2       1.0000 0.90973  0.46832  0.18278  Biso   1.000  N
  H6       1.0000 0.95870  0.57980  0.07430  Biso   1.000  H
  H7       1.0000 0.90580  0.62280  0.13640  Biso   1.000  H
  H8       1.0000 0.87240  0.60390  0.05250  Biso   1.000  H
  C3       1.0000 0.63149  0.10086  0.68750  Biso   1.000  C
  H9       1.0000 0.62230  0.14110  0.72340  Biso   1.000  H
  N3       1.0000 0.59027  0.03168  0.68278  Biso   1.000  N
  H10      1.0000 0.54130  0.92020  0.57430  Biso   1.000  H
  H11      1.0000 0.59420  0.87720  0.63640  Biso   1.000  H
  H12      1.0000 0.62760  0.89610  0.55250  Biso   1.000  H
  C4       1.0000 0.13149  0.60086  0.18750  Biso   1.000  C
  H13      1.0000 0.12230  0.64110  0.22340  Biso   1.000  H
  N4       1.0000 0.09027  0.53168  0.18278  Biso   1.000  N
  H14      1.0000 0.04130  0.42020  0.07430  Biso   1.000  H
  H15      1.0000 0.09420  0.37720  0.13640  Biso   1.000  H
  H16      1.0000 0.12760  0.39610  0.05250  Biso   1.000  H
  C5       1.0000 0.63149  0.89914  0.31250  Biso   1.000  C
  H17      1.0000 0.62230  0.85890  0.27660  Biso   1.000  H
  N5       1.0000 0.59027  0.96832  0.31722  Biso   1.000  N
  H18      1.0000 0.54130  0.07980  0.42570  Biso   1.000  H
  H19      1.0000 0.59420  0.12280  0.36360  Biso   1.000  H
  H20      1.0000 0.62760  0.10390  0.44750  Biso   1.000  H
  C6       1.0000 0.13149  0.39914  0.81250  Biso   1.000  C
  H21      1.0000 0.12230  0.35890  0.77660  Biso   1.000  H
  N6       1.0000 0.09027  0.46832  0.81722  Biso   1.000  N
  H22      1.0000 0.04130  0.57980  0.92570  Biso   1.000  H
  H23      1.0000 0.09420  0.62280  0.86360  Biso   1.000  H
  H24      1.0000 0.12760  0.60390  0.94750  Biso   1.000  H
  C7       1.0000 0.36851  0.10086  0.31250  Biso   1.000  C
  H25      1.0000 0.37770  0.14110  0.27660  Biso   1.000  H
  N7       1.0000 0.40973  0.03168  0.31722  Biso   1.000  N
  H26      1.0000 0.45870  0.92020  0.42570  Biso   1.000  H
  H27      1.0000 0.40580  0.87720  0.36360  Biso   1.000  H
  H28      1.0000 0.37240  0.89610  0.44750  Biso   1.000  H
  C8       1.0000 0.86851  0.60086  0.81250  Biso   1.000  C
  H29      1.0000 0.87770  0.64110  0.77660  Biso   1.000  H
  N8       1.0000 0.90973  0.53168  0.81722  Biso   1.000  N
  H30      1.0000 0.95870  0.42020  0.92570  Biso   1.000  H
  H31      1.0000 0.90580  0.37720  0.86360  Biso   1.000  H
  H32      1.0000 0.87240  0.39610  0.94750  Biso   1.000  H
  C9       1.0000 0.68750  0.36851  0.89914  Biso   1.000  C
  H33      1.0000 0.72340  0.37770  0.85890  Biso   1.000  H
  N9       1.0000 0.68278  0.40973  0.96832  Biso   1.000  N
  H34      1.0000 0.57430  0.45870  0.07980  Biso   1.000  H
  H35      1.0000 0.63640  0.40580  0.12280  Biso   1.000  H
  H36      1.0000 0.55250  0.37240  0.10390  Biso   1.000  H
  C10      1.0000 0.18750  0.86851  0.39914  Biso   1.000  C
  H37      1.0000 0.22340  0.87770  0.35890  Biso   1.000  H
  N10      1.0000 0.18278  0.90973  0.46832  Biso   1.000  N
  H38      1.0000 0.07430  0.95870  0.57980  Biso   1.000  H
  H39      1.0000 0.13640  0.90580  0.62280  Biso   1.000  H
  H40      1.0000 0.05250  0.87240  0.60390  Biso   1.000  H
  C11      1.0000 0.68750  0.63149  0.10086  Biso   1.000  C
  H41      1.0000 0.72340  0.62230  0.14110  Biso   1.000  H
  N11      1.0000 0.68278  0.59027  0.03168  Biso   1.000  N
  H42      1.0000 0.57430  0.54130  0.92020  Biso   1.000  H
  H43      1.0000 0.63640  0.59420  0.87720  Biso   1.000  H
  H44      1.0000 0.55250  0.62760  0.89610  Biso   1.000  H
  C12      1.0000 0.18750  0.13149  0.60086  Biso   1.000  C
  H45      1.0000 0.22340  0.12230  0.64110  Biso   1.000  H
  N12      1.0000 0.18278  0.09027  0.53168  Biso   1.000  N
  H46      1.0000 0.07430  0.04130  0.42020  Biso   1.000  H
  H47      1.0000 0.13640  0.09420  0.37720  Biso   1.000  H
  H48      1.0000 0.05250  0.12760  0.39610  Biso   1.000  H
  C13      1.0000 0.31250  0.63149  0.89914  Biso   1.000  C
  H49      1.0000 0.27660  0.62230  0.85890  Biso   1.000  H
  N13      1.0000 0.31722  0.59027  0.96832  Biso   1.000  N
  H50      1.0000 0.42570  0.54130  0.07980  Biso   1.000  H
  H51      1.0000 0.36360  0.59420  0.12280  Biso   1.000  H
  H52      1.0000 0.44750  0.62760  0.10390  Biso   1.000  H
  C14      1.0000 0.81250  0.13149  0.39914  Biso   1.000  C
  H53      1.0000 0.77660  0.12230  0.35890  Biso   1.000  H
  N14      1.0000 0.81722  0.09027  0.46832  Biso   1.000  N
  H54      1.0000 0.92570  0.04130  0.57980  Biso   1.000  H
  H55      1.0000 0.86360  0.09420  0.62280  Biso   1.000  H
  H56      1.0000 0.94750  0.12760  0.60390  Biso   1.000  H
  C15      1.0000 0.31250  0.36851  0.10086  Biso   1.000  C
  H57      1.0000 0.27660  0.37770  0.14110  Biso   1.000  H
  N15      1.0000 0.31722  0.40973  0.03168  Biso   1.000  N
  H58      1.0000 0.42570  0.45870  0.92020  Biso   1.000  H
  H59      1.0000 0.36360  0.40580  0.87720  Biso   1.000  H
  H60      1.0000 0.44750  0.37240  0.89610  Biso   1.000  H
  C16      1.0000 0.81250  0.86851  0.60086  Biso   1.000  C
  H61      1.0000 0.77660  0.87770  0.64110  Biso   1.000  H
  N16      1.0000 0.81722  0.90973  0.53168  Biso   1.000  N
  H62      1.0000 0.92570  0.95870  0.42020  Biso   1.000  H
  H63      1.0000 0.86360  0.90580  0.37720  Biso   1.000  H
  H64      1.0000 0.94750  0.87240  0.39610  Biso   1.000  H
  C17      1.0000 0.89914  0.68750  0.36851  Biso   1.000  C
  H65      1.0000 0.85890  0.72340  0.37770  Biso   1.000  H
  N17      1.0000 0.96832  0.68278  0.40973  Biso   1.000  N
  H66      1.0000 0.07980  0.57430  0.45870  Biso   1.000  H
  H67      1.0000 0.12280  0.63640  0.40580  Biso   1.000  H
  H68      1.0000 0.10390  0.55250  0.37240  Biso   1.000  H
  C18      1.0000 0.39914  0.18750  0.86851  Biso   1.000  C
  H69      1.0000 0.35890  0.22340  0.87770  Biso   1.000  H
  N18      1.0000 0.46832  0.18278  0.90973  Biso   1.000  N
  H70      1.0000 0.57980  0.07430  0.95870  Biso   1.000  H
  H71      1.0000 0.62280  0.13640  0.90580  Biso   1.000  H
  H72      1.0000 0.60390  0.05250  0.87240  Biso   1.000  H
  C19      1.0000 0.10086  0.68750  0.63149  Biso   1.000  C
  H73      1.0000 0.14110  0.72340  0.62230  Biso   1.000  H
  N19      1.0000 0.03168  0.68278  0.59027  Biso   1.000  N
  H74      1.0000 0.92020  0.57430  0.54130  Biso   1.000  H
  H75      1.0000 0.87720  0.63640  0.59420  Biso   1.000  H
  H76      1.0000 0.89610  0.55250  0.62760  Biso   1.000  H
  C20      1.0000 0.60086  0.18750  0.13149  Biso   1.000  C
  H77      1.0000 0.64110  0.22340  0.12230  Biso   1.000  H
  N20      1.0000 0.53168  0.18278  0.09027  Biso   1.000  N
  H78      1.0000 0.42020  0.07430  0.04130  Biso   1.000  H
  H79      1.0000 0.37720  0.13640  0.09420  Biso   1.000  H
  H80      1.0000 0.39610  0.05250  0.12760  Biso   1.000  H
  C21      1.0000 0.89914  0.31250  0.63149  Biso   1.000  C
  H81      1.0000 0.85890  0.27660  0.62230  Biso   1.000  H
  N21      1.0000 0.96832  0.31722  0.59027  Biso   1.000  N
  H82      1.0000 0.07980  0.42570  0.54130  Biso   1.000  H
  H83      1.0000 0.12280  0.36360  0.59420  Biso   1.000  H
  H84      1.0000 0.10390  0.44750  0.62760  Biso   1.000  H
  C22      1.0000 0.39914  0.81250  0.13149  Biso   1.000  C
  H85      1.0000 0.35890  0.77660  0.12230  Biso   1.000  H
  N22      1.0000 0.46832  0.81722  0.09027  Biso   1.000  N
  H86      1.0000 0.57980  0.92570  0.04130  Biso   1.000  H
  H87      1.0000 0.62280  0.86360  0.09420  Biso   1.000  H
  H88      1.0000 0.60390  0.94750  0.12760  Biso   1.000  H
  C23      1.0000 0.10086  0.31250  0.36851  Biso   1.000  C
  H89      1.0000 0.14110  0.27660  0.37770  Biso   1.000  H
  N23      1.0000 0.03168  0.31722  0.40973  Biso   1.000  N
  H90      1.0000 0.92020  0.42570  0.45870  Biso   1.000  H
  H91      1.0000 0.87720  0.36360  0.40580  Biso   1.000  H
  H92      1.0000 0.89610  0.44750  0.37240  Biso   1.000  H
  C24      1.0000 0.60086  0.81250  0.86851  Biso   1.000  C
  H93      1.0000 0.64110  0.77660  0.87770  Biso   1.000  H
  N24      1.0000 0.53168  0.81722  0.90973  Biso   1.000  N
  H94      1.0000 0.42020  0.92570  0.95870  Biso   1.000  H
  H95      1.0000 0.37720  0.86360  0.90580  Biso   1.000  H
  H96      1.0000 0.39610  0.94750  0.87240  Biso   1.000  H
  C25      1.0000 0.89914  0.36851  0.68750  Biso   1.000  C
  H97      1.0000 0.85890  0.37770  0.72340  Biso   1.000  H
  N25      1.0000 0.96832  0.40973  0.68278  Biso   1.000  N
  H98      1.0000 0.07980  0.45870  0.57430  Biso   1.000  H
  H99      1.0000 0.12280  0.40580  0.63640  Biso   1.000  H
  H100     1.0000 0.10390  0.37240  0.55250  Biso   1.000  H
  C26      1.0000 0.39914  0.86851  0.18750  Biso   1.000  C
  H101     1.0000 0.35890  0.87770  0.22340  Biso   1.000  H
  N26      1.0000 0.46832  0.90973  0.18278  Biso   1.000  N
  H102     1.0000 0.57980  0.95870  0.07430  Biso   1.000  H
  H103     1.0000 0.62280  0.90580  0.13640  Biso   1.000  H
  H104     1.0000 0.60390  0.87240  0.05250  Biso   1.000  H
  C27      1.0000 0.10086  0.63149  0.68750  Biso   1.000  C
  H105     1.0000 0.14110  0.62230  0.72340  Biso   1.000  H
  N27      1.0000 0.03168  0.59027  0.68278  Biso   1.000  N
  H106     1.0000 0.92020  0.54130  0.57430  Biso   1.000  H
  H107     1.0000 0.87720  0.59420  0.63640  Biso   1.000  H
  H108     1.0000 0.89610  0.62760  0.55250  Biso   1.000  H
  C28      1.0000 0.60086  0.13149  0.18750  Biso   1.000  C
  H109     1.0000 0.64110  0.12230  0.22340  Biso   1.000  H
  N28      1.0000 0.53168  0.09027  0.18278  Biso   1.000  N
  H110     1.0000 0.42020  0.04130  0.07430  Biso   1.000  H
  H111     1.0000 0.37720  0.09420  0.13640  Biso   1.000  H
  H112     1.0000 0.39610  0.12760  0.05250  Biso   1.000  H
  C29      1.0000 0.89914  0.63149  0.31250  Biso   1.000  C
  H113     1.0000 0.85890  0.62230  0.27660  Biso   1.000  H
  N29      1.0000 0.96832  0.59027  0.31722  Biso   1.000  N
  H114     1.0000 0.07980  0.54130  0.42570  Biso   1.000  H
  H115     1.0000 0.12280  0.59420  0.36360  Biso   1.000  H
  H116     1.0000 0.10390  0.62760  0.44750  Biso   1.000  H
  C30      1.0000 0.39914  0.13149  0.81250  Biso   1.000  C
  H117     1.0000 0.35890  0.12230  0.77660  Biso   1.000  H
  N30      1.0000 0.46832  0.09027  0.81722  Biso   1.000  N
  H118     1.0000 0.57980  0.04130  0.92570  Biso   1.000  H
  H119     1.0000 0.62280  0.09420  0.86360  Biso   1.000  H
  H120     1.0000 0.60390  0.12760  0.94750  Biso   1.000  H
  C31      1.0000 0.10086  0.36851  0.31250  Biso   1.000  C
  H121     1.0000 0.14110  0.37770  0.27660  Biso   1.000  H
  N31      1.0000 0.03168  0.40973  0.31722  Biso   1.000  N
  H122     1.0000 0.92020  0.45870  0.42570  Biso   1.000  H
  H123     1.0000 0.87720  0.40580  0.36360  Biso   1.000  H
  H124     1.0000 0.89610  0.37240  0.44750  Biso   1.000  H
  C32      1.0000 0.60086  0.86851  0.81250  Biso   1.000  C
  H125     1.0000 0.64110  0.87770  0.77660  Biso   1.000  H
  N32      1.0000 0.53168  0.90973  0.81722  Biso   1.000  N
  H126     1.0000 0.42020  0.95870  0.92570  Biso   1.000  H
  H127     1.0000 0.37720  0.90580  0.86360  Biso   1.000  H
  H128     1.0000 0.39610  0.87240  0.94750  Biso   1.000  H
  C33      1.0000 0.36851  0.68750  0.89914  Biso   1.000  C
  H129     1.0000 0.37770  0.72340  0.85890  Biso   1.000  H
  N33      1.0000 0.40973  0.68278  0.96832  Biso   1.000  N
  H130     1.0000 0.45870  0.57430  0.07980  Biso   1.000  H
  H131     1.0000 0.40580  0.63640  0.12280  Biso   1.000  H
  H132     1.0000 0.37240  0.55250  0.10390  Biso   1.000  H
  C34      1.0000 0.86851  0.18750  0.39914  Biso   1.000  C
  H133     1.0000 0.87770  0.22340  0.35890  Biso   1.000  H
  N34      1.0000 0.90973  0.18278  0.46832  Biso   1.000  N
  H134     1.0000 0.95870  0.07430  0.57980  Biso   1.000  H
  H135     1.0000 0.90580  0.13640  0.62280  Biso   1.000  H
  H136     1.0000 0.87240  0.05250  0.60390  Biso   1.000  H
  C35      1.0000 0.63149  0.68750  0.10086  Biso   1.000  C
  H137     1.0000 0.62230  0.72340  0.14110  Biso   1.000  H
  N35      1.0000 0.59027  0.68278  0.03168  Biso   1.000  N
  H138     1.0000 0.54130  0.57430  0.92020  Biso   1.000  H
  H139     1.0000 0.59420  0.63640  0.87720  Biso   1.000  H
  H140     1.0000 0.62760  0.55250  0.89610  Biso   1.000  H
  C36      1.0000 0.13149  0.18750  0.60086  Biso   1.000  C
  H141     1.0000 0.12230  0.22340  0.64110  Biso   1.000  H
  N36      1.0000 0.09027  0.18278  0.53168  Biso   1.000  N
  H142     1.0000 0.04130  0.07430  0.42020  Biso   1.000  H
  H143     1.0000 0.09420  0.13640  0.37720  Biso   1.000  H
  H144     1.0000 0.12760  0.05250  0.39610  Biso   1.000  H
  C37      1.0000 0.63149  0.31250  0.89914  Biso   1.000  C
  H145     1.0000 0.62230  0.27660  0.85890  Biso   1.000  H
  N37      1.0000 0.59027  0.31722  0.96832  Biso   1.000  N
  H146     1.0000 0.54130  0.42570  0.07980  Biso   1.000  H
  H147     1.0000 0.59420  0.36360  0.12280  Biso   1.000  H
  H148     1.0000 0.62760  0.44750  0.10390  Biso   1.000  H
  C38      1.0000 0.13149  0.81250  0.39914  Biso   1.000  C
  H149     1.0000 0.12230  0.77660  0.35890  Biso   1.000  H
  N38      1.0000 0.09027  0.81722  0.46832  Biso   1.000  N
  H150     1.0000 0.04130  0.92570  0.57980  Biso   1.000  H
  H151     1.0000 0.09420  0.86360  0.62280  Biso   1.000  H
  H152     1.0000 0.12760  0.94750  0.60390  Biso   1.000  H
  C39      1.0000 0.36851  0.31250  0.10086  Biso   1.000  C
  H153     1.0000 0.37770  0.27660  0.14110  Biso   1.000  H
  N39      1.0000 0.40973  0.31722  0.03168  Biso   1.000  N
  H154     1.0000 0.45870  0.42570  0.92020  Biso   1.000  H
  H155     1.0000 0.40580  0.36360  0.87720  Biso   1.000  H
  H156     1.0000 0.37240  0.44750  0.89610  Biso   1.000  H
  C40      1.0000 0.86851  0.81250  0.60086  Biso   1.000  C
  H157     1.0000 0.87770  0.77660  0.64110  Biso   1.000  H
  N40      1.0000 0.90973  0.81722  0.53168  Biso   1.000  N
  H158     1.0000 0.95870  0.92570  0.42020  Biso   1.000  H
  H159     1.0000 0.90580  0.86360  0.37720  Biso   1.000  H
  H160     1.0000 0.87240  0.94750  0.39610  Biso   1.000  H
  C41      1.0000 0.68750  0.89914  0.36851  Biso   1.000  C
  H161     1.0000 0.72340  0.85890  0.37770  Biso   1.000  H
  N41      1.0000 0.68278  0.96832  0.40973  Biso   1.000  N
  H162     1.0000 0.57430  0.07980  0.45870  Biso   1.000  H
  H163     1.0000 0.63640  0.12280  0.40580  Biso   1.000  H
  H164     1.0000 0.55250  0.10390  0.37240  Biso   1.000  H
  C42      1.0000 0.18750  0.39914  0.86851  Biso   1.000  C
  H165     1.0000 0.22340  0.35890  0.87770  Biso   1.000  H
  N42      1.0000 0.18278  0.46832  0.90973  Biso   1.000  N
  H166     1.0000 0.07430  0.57980  0.95870  Biso   1.000  H
  H167     1.0000 0.13640  0.62280  0.90580  Biso   1.000  H
  H168     1.0000 0.05250  0.60390  0.87240  Biso   1.000  H
  C43      1.0000 0.68750  0.10086  0.63149  Biso   1.000  C
  H169     1.0000 0.72340  0.14110  0.62230  Biso   1.000  H
  N43      1.0000 0.68278  0.03168  0.59027  Biso   1.000  N
  H170     1.0000 0.57430  0.92020  0.54130  Biso   1.000  H
  H171     1.0000 0.63640  0.87720  0.59420  Biso   1.000  H
  H172     1.0000 0.55250  0.89610  0.62760  Biso   1.000  H
  C44      1.0000 0.18750  0.60086  0.13149  Biso   1.000  C
  H173     1.0000 0.22340  0.64110  0.12230  Biso   1.000  H
  N44      1.0000 0.18278  0.53168  0.09027  Biso   1.000  N
  H174     1.0000 0.07430  0.42020  0.04130  Biso   1.000  H
  H175     1.0000 0.13640  0.37720  0.09420  Biso   1.000  H
  H176     1.0000 0.05250  0.39610  0.12760  Biso   1.000  H
  C45      1.0000 0.31250  0.89914  0.63149  Biso   1.000  C
  H177     1.0000 0.27660  0.85890  0.62230  Biso   1.000  H
  N45      1.0000 0.31722  0.96832  0.59027  Biso   1.000  N
  H178     1.0000 0.42570  0.07980  0.54130  Biso   1.000  H
  H179     1.0000 0.36360  0.12280  0.59420  Biso   1.000  H
  H180     1.0000 0.44750  0.10390  0.62760  Biso   1.000  H
  C46      1.0000 0.81250  0.39914  0.13149  Biso   1.000  C
  H181     1.0000 0.77660  0.35890  0.12230  Biso   1.000  H
  N46      1.0000 0.81722  0.46832  0.09027  Biso   1.000  N
  H182     1.0000 0.92570  0.57980  0.04130  Biso   1.000  H
  H183     1.0000 0.86360  0.62280  0.09420  Biso   1.000  H
  H184     1.0000 0.94750  0.60390  0.12760  Biso   1.000  H
  C47      1.0000 0.31250  0.10086  0.36851  Biso   1.000  C
  H185     1.0000 0.27660  0.14110  0.37770  Biso   1.000  H
  N47      1.0000 0.31722  0.03168  0.40973  Biso   1.000  N
  H186     1.0000 0.42570  0.92020  0.45870  Biso   1.000  H
  H187     1.0000 0.36360  0.87720  0.40580  Biso   1.000  H
  H188     1.0000 0.44750  0.89610  0.37240  Biso   1.000  H
  C48      1.0000 0.81250  0.60086  0.86851  Biso   1.000  C
  H189     1.0000 0.77660  0.64110  0.87770  Biso   1.000  H
  N48      1.0000 0.81722  0.53168  0.90973  Biso   1.000  N
  H190     1.0000 0.92570  0.42020  0.95870  Biso   1.000  H
  H191     1.0000 0.86360  0.37720  0.90580  Biso   1.000  H
  H192     1.0000 0.94750  0.39610  0.87240  Biso   1.000  H
  C49      1.0000 0.37705  0.00790  0.62295  Biso   1.000  C
  C50      1.0000 0.40610  0.08550  0.59390  Biso   1.000  C
  C51      1.0000 0.87705  0.50790  0.12295  Biso   1.000  C
  C52      1.0000 0.90610  0.58550  0.09390  Biso   1.000  C
  C53      1.0000 0.62295  0.99210  0.62295  Biso   1.000  C
  C54      1.0000 0.59390  0.91450  0.59390  Biso   1.000  C
  C55      1.0000 0.12295  0.49210  0.12295  Biso   1.000  C
  C56      1.0000 0.09390  0.41450  0.09390  Biso   1.000  C
  C57      1.0000 0.62295  0.00790  0.37705  Biso   1.000  C
  C58      1.0000 0.59390  0.08550  0.40610  Biso   1.000  C
  C59      1.0000 0.12295  0.50790  0.87705  Biso   1.000  C
  C60      1.0000 0.09390  0.58550  0.90610  Biso   1.000  C
  C61      1.0000 0.37705  0.99210  0.37705  Biso   1.000  C
  C62      1.0000 0.40610  0.91450  0.40610  Biso   1.000  C
  C63      1.0000 0.87705  0.49210  0.87705  Biso   1.000  C
  C64      1.0000 0.90610  0.41450  0.90610  Biso   1.000  C
  C65      1.0000 0.62295  0.37705  0.00790  Biso   1.000  C
  C66      1.0000 0.59390  0.40610  0.08550  Biso   1.000  C
  C67      1.0000 0.12295  0.87705  0.50790  Biso   1.000  C
  C68      1.0000 0.09390  0.90610  0.58550  Biso   1.000  C
  C69      1.0000 0.62295  0.62295  0.99210  Biso   1.000  C
  C70      1.0000 0.59390  0.59390  0.91450  Biso   1.000  C
  C71      1.0000 0.12295  0.12295  0.49210  Biso   1.000  C
  C72      1.0000 0.09390  0.09390  0.41450  Biso   1.000  C
  C73      1.0000 0.37705  0.62295  0.00790  Biso   1.000  C
  C74      1.0000 0.40610  0.59390  0.08550  Biso   1.000  C
  C75      1.0000 0.87705  0.12295  0.50790  Biso   1.000  C
  C76      1.0000 0.90610  0.09390  0.58550  Biso   1.000  C
  C77      1.0000 0.37705  0.37705  0.99210  Biso   1.000  C
  C78      1.0000 0.40610  0.40610  0.91450  Biso   1.000  C
  C79      1.0000 0.87705  0.87705  0.49210  Biso   1.000  C
  C80      1.0000 0.90610  0.90610  0.41450  Biso   1.000  C
  C81      1.0000 0.00790  0.62295  0.37705  Biso   1.000  C
  C82      1.0000 0.08550  0.59390  0.40610  Biso   1.000  C
  C83      1.0000 0.50790  0.12295  0.87705  Biso   1.000  C
  C84      1.0000 0.58550  0.09390  0.90610  Biso   1.000  C
  C85      1.0000 0.99210  0.62295  0.62295  Biso   1.000  C
  C86      1.0000 0.91450  0.59390  0.59390  Biso   1.000  C
  C87      1.0000 0.49210  0.12295  0.12295  Biso   1.000  C
  C88      1.0000 0.41450  0.09390  0.09390  Biso   1.000  C
  C89      1.0000 0.00790  0.37705  0.62295  Biso   1.000  C
  C90      1.0000 0.08550  0.40610  0.59390  Biso   1.000  C
  C91      1.0000 0.50790  0.87705  0.12295  Biso   1.000  C
  C92      1.0000 0.58550  0.90610  0.09390  Biso   1.000  C
  C93      1.0000 0.99210  0.37705  0.37705  Biso   1.000  C
  C94      1.0000 0.91450  0.40610  0.40610  Biso   1.000  C
  C95      1.0000 0.49210  0.87705  0.87705  Biso   1.000  C
  C96      1.0000 0.41450  0.90610  0.90610  Biso   1.000  C
  Zn1      1.0000 0.50000  0.00000  0.75000  Biso   1.000  Zn
  Zn2      1.0000 0.50000  0.00000  0.25000  Biso   1.000  Zn
  Zn3      1.0000 0.75000  0.50000  0.00000  Biso   1.000  Zn
  Zn4      1.0000 0.25000  0.50000  0.00000  Biso   1.000  Zn
  Zn5      1.0000 0.00000  0.75000  0.50000  Biso   1.000  Zn
  Zn6      1.0000 0.00000  0.25000  0.50000  Biso   1.000  Zn
  Zn7      1.0000 0.00000  0.50000  0.75000  Biso   1.000  Zn
  Zn8      1.0000 0.00000  0.50000  0.25000  Biso   1.000  Zn
  Zn9      1.0000 0.50000  0.75000  0.00000  Biso   1.000  Zn
  Zn10     1.0000 0.50000  0.25000  0.00000  Biso   1.000  Zn
  Zn11     1.0000 0.75000  0.00000  0.50000  Biso   1.000  Zn
  Zn12     1.0000 0.25000  0.00000  0.50000  Biso   1.000  Zn
