data_image0
_cell_length_a       16.419
_cell_length_b       17.088
_cell_length_c       12.113
_cell_angle_alpha    90
_cell_angle_beta     95.107
_cell_angle_gamma    90

_symmetry_space_group_name_H-M    "P 1"
_symmetry_int_tables_number       1

loop_
  _symmetry_equiv_pos_as_xyz
  'x, y, z'

loop_
  _atom_site_label
  _atom_site_occupancy
  _atom_site_fract_x
  _atom_site_fract_y
  _atom_site_fract_z
  _atom_site_thermal_displace_type
  _atom_site_B_iso_or_equiv
  _atom_site_type_symbol
  Co1      1.0000 0.38328  0.14570  0.06142  Biso   1.000  Co
  N1       1.0000 0.25270  0.14750  0.02930  Biso   1.000  N
  N2       1.0000 0.14330  0.23190  0.96970  Biso   1.000  N
  N3       1.0000 0.51100  0.16460  0.10400  Biso   1.000  N
  N4       1.0000 0.60950  0.16480  0.25970  Biso   1.000  N
  N5       1.0000 0.38690  0.02840  0.10650  Biso   1.000  N
  N6       1.0000 0.40000  0.90370  0.20150  Biso   1.000  N
  N7       1.0000 0.39790  0.87430  0.39800  Biso   1.000  N
  C1       1.0000 0.21990  0.21520  0.99990  Biso   1.000  C
  H1       1.0000 0.24280  0.24140  0.99870  Biso   1.000  H
  C2       1.0000 0.20070  0.08720  0.02750  Biso   1.000  C
  H2       1.0000 0.22030  0.03770  0.04750  Biso   1.000  H
  C3       1.0000 0.11890  0.09700  0.99670  Biso   1.000  C
  H3       1.0000 0.08280  0.05510  0.99580  Biso   1.000  H
  C4       1.0000 0.09200  0.17110  0.96720  Biso   1.000  C
  H4       1.0000 0.03690  0.17900  0.94500  Biso   1.000  H
  C5       1.0000 0.53470  0.16480  0.21170  Biso   1.000  C
  H5       1.0000 0.49160  0.16520  0.26040  Biso   1.000  H
  C6       1.0000 0.66940  0.16360  0.19160  Biso   1.000  C
  H6       1.0000 0.72360  0.16250  0.22120  Biso   1.000  H
  C7       1.0000 0.65180  0.16410  0.07780  Biso   1.000  C
  H7       1.0000 0.69340  0.16350  0.03050  Biso   1.000  H
  C8       1.0000 0.57120  0.16550  0.03650  Biso   1.000  C
  H8       1.0000 0.55820  0.16710  0.96020  Biso   1.000  H
  C9       1.0000 0.39280  0.97180  0.15690  Biso   1.000  C
  C10      1.0000 0.39700  0.89180  0.30640  Biso   1.000  C
  Co2      1.0000 0.88328  0.64570  0.06142  Biso   1.000  Co
  N8       1.0000 0.75270  0.64750  0.02930  Biso   1.000  N
  N9       1.0000 0.64330  0.73190  0.96970  Biso   1.000  N
  N10      1.0000 0.01100  0.66460  0.10400  Biso   1.000  N
  N11      1.0000 0.10950  0.66480  0.25970  Biso   1.000  N
  N12      1.0000 0.88690  0.52840  0.10650  Biso   1.000  N
  N13      1.0000 0.90000  0.40370  0.20150  Biso   1.000  N
  N14      1.0000 0.89790  0.37430  0.39800  Biso   1.000  N
  C11      1.0000 0.71990  0.71520  0.99990  Biso   1.000  C
  H9       1.0000 0.74280  0.74140  0.99870  Biso   1.000  H
  C12      1.0000 0.70070  0.58720  0.02750  Biso   1.000  C
  H10      1.0000 0.72030  0.53770  0.04750  Biso   1.000  H
  C13      1.0000 0.61890  0.59700  0.99670  Biso   1.000  C
  H11      1.0000 0.58280  0.55510  0.99580  Biso   1.000  H
  C14      1.0000 0.59200  0.67110  0.96720  Biso   1.000  C
  H12      1.0000 0.53690  0.67900  0.94500  Biso   1.000  H
  C15      1.0000 0.03470  0.66480  0.21170  Biso   1.000  C
  H13      1.0000 0.99160  0.66520  0.26040  Biso   1.000  H
  C16      1.0000 0.16940  0.66360  0.19160  Biso   1.000  C
  H14      1.0000 0.22360  0.66250  0.22120  Biso   1.000  H
  C17      1.0000 0.15180  0.66410  0.07780  Biso   1.000  C
  H15      1.0000 0.19340  0.66350  0.03050  Biso   1.000  H
  C18      1.0000 0.07120  0.66550  0.03650  Biso   1.000  C
  H16      1.0000 0.05820  0.66710  0.96020  Biso   1.000  H
  C19      1.0000 0.89280  0.47180  0.15690  Biso   1.000  C
  C20      1.0000 0.89700  0.39180  0.30640  Biso   1.000  C
  Co3      1.0000 0.61672  0.14570  0.43858  Biso   1.000  Co
  N15      1.0000 0.74730  0.14750  0.47070  Biso   1.000  N
  N16      1.0000 0.85670  0.23190  0.53030  Biso   1.000  N
  N17      1.0000 0.48900  0.16460  0.39600  Biso   1.000  N
  N18      1.0000 0.39050  0.16480  0.24030  Biso   1.000  N
  N19      1.0000 0.61310  0.02840  0.39350  Biso   1.000  N
  N20      1.0000 0.60000  0.90370  0.29850  Biso   1.000  N
  N21      1.0000 0.60210  0.87430  0.10200  Biso   1.000  N
  C21      1.0000 0.78010  0.21520  0.50010  Biso   1.000  C
  H17      1.0000 0.75720  0.24140  0.50130  Biso   1.000  H
  C22      1.0000 0.79930  0.08720  0.47250  Biso   1.000  C
  H18      1.0000 0.77970  0.03770  0.45250  Biso   1.000  H
  C23      1.0000 0.88110  0.09700  0.50330  Biso   1.000  C
  H19      1.0000 0.91720  0.05510  0.50420  Biso   1.000  H
  C24      1.0000 0.90800  0.17110  0.53280  Biso   1.000  C
  H20      1.0000 0.96310  0.17900  0.55500  Biso   1.000  H
  C25      1.0000 0.46530  0.16480  0.28830  Biso   1.000  C
  H21      1.0000 0.50840  0.16520  0.23960  Biso   1.000  H
  C26      1.0000 0.33060  0.16360  0.30840  Biso   1.000  C
  H22      1.0000 0.27640  0.16250  0.27880  Biso   1.000  H
  C27      1.0000 0.34820  0.16410  0.42220  Biso   1.000  C
  H23      1.0000 0.30660  0.16350  0.46950  Biso   1.000  H
  C28      1.0000 0.42880  0.16550  0.46350  Biso   1.000  C
  H24      1.0000 0.44180  0.16710  0.53980  Biso   1.000  H
  C29      1.0000 0.60720  0.97180  0.34310  Biso   1.000  C
  C30      1.0000 0.60300  0.89180  0.19360  Biso   1.000  C
  Co4      1.0000 0.11672  0.64570  0.43858  Biso   1.000  Co
  N22      1.0000 0.24730  0.64750  0.47070  Biso   1.000  N
  N23      1.0000 0.35670  0.73190  0.53030  Biso   1.000  N
  N24      1.0000 0.98900  0.66460  0.39600  Biso   1.000  N
  N25      1.0000 0.89050  0.66480  0.24030  Biso   1.000  N
  N26      1.0000 0.11310  0.52840  0.39350  Biso   1.000  N
  N27      1.0000 0.10000  0.40370  0.29850  Biso   1.000  N
  N28      1.0000 0.10210  0.37430  0.10200  Biso   1.000  N
  C31      1.0000 0.28010  0.71520  0.50010  Biso   1.000  C
  H25      1.0000 0.25720  0.74140  0.50130  Biso   1.000  H
  C32      1.0000 0.29930  0.58720  0.47250  Biso   1.000  C
  H26      1.0000 0.27970  0.53770  0.45250  Biso   1.000  H
  C33      1.0000 0.38110  0.59700  0.50330  Biso   1.000  C
  H27      1.0000 0.41720  0.55510  0.50420  Biso   1.000  H
  C34      1.0000 0.40800  0.67110  0.53280  Biso   1.000  C
  H28      1.0000 0.46310  0.67900  0.55500  Biso   1.000  H
  C35      1.0000 0.96530  0.66480  0.28830  Biso   1.000  C
  H29      1.0000 0.00840  0.66520  0.23960  Biso   1.000  H
  C36      1.0000 0.83060  0.66360  0.30840  Biso   1.000  C
  H30      1.0000 0.77640  0.66250  0.27880  Biso   1.000  H
  C37      1.0000 0.84820  0.66410  0.42220  Biso   1.000  C
  H31      1.0000 0.80660  0.66350  0.46950  Biso   1.000  H
  C38      1.0000 0.92880  0.66550  0.46350  Biso   1.000  C
  H32      1.0000 0.94180  0.66710  0.53980  Biso   1.000  H
  C39      1.0000 0.10720  0.47180  0.34310  Biso   1.000  C
  C40      1.0000 0.10300  0.39180  0.19360  Biso   1.000  C
  Co5      1.0000 0.61672  0.85430  0.93858  Biso   1.000  Co
  N29      1.0000 0.74730  0.85250  0.97070  Biso   1.000  N
  N30      1.0000 0.85670  0.76810  0.03030  Biso   1.000  N
  N31      1.0000 0.48900  0.83540  0.89600  Biso   1.000  N
  N32      1.0000 0.39050  0.83520  0.74030  Biso   1.000  N
  N33      1.0000 0.61310  0.97160  0.89350  Biso   1.000  N
  N34      1.0000 0.60000  0.09630  0.79850  Biso   1.000  N
  N35      1.0000 0.60210  0.12570  0.60200  Biso   1.000  N
  C41      1.0000 0.78010  0.78480  0.00010  Biso   1.000  C
  H33      1.0000 0.75720  0.75860  0.00130  Biso   1.000  H
  C42      1.0000 0.79930  0.91280  0.97250  Biso   1.000  C
  H34      1.0000 0.77970  0.96230  0.95250  Biso   1.000  H
  C43      1.0000 0.88110  0.90300  0.00330  Biso   1.000  C
  H35      1.0000 0.91720  0.94490  0.00420  Biso   1.000  H
  C44      1.0000 0.90800  0.82890  0.03280  Biso   1.000  C
  H36      1.0000 0.96310  0.82100  0.05500  Biso   1.000  H
  C45      1.0000 0.46530  0.83520  0.78830  Biso   1.000  C
  H37      1.0000 0.50840  0.83480  0.73960  Biso   1.000  H
  C46      1.0000 0.33060  0.83640  0.80840  Biso   1.000  C
  H38      1.0000 0.27640  0.83750  0.77880  Biso   1.000  H
  C47      1.0000 0.34820  0.83590  0.92220  Biso   1.000  C
  H39      1.0000 0.30660  0.83650  0.96950  Biso   1.000  H
  C48      1.0000 0.42880  0.83450  0.96350  Biso   1.000  C
  H40      1.0000 0.44180  0.83290  0.03980  Biso   1.000  H
  C49      1.0000 0.60720  0.02820  0.84310  Biso   1.000  C
  C50      1.0000 0.60300  0.10820  0.69360  Biso   1.000  C
  Co6      1.0000 0.11672  0.35430  0.93858  Biso   1.000  Co
  N36      1.0000 0.24730  0.35250  0.97070  Biso   1.000  N
  N37      1.0000 0.35670  0.26810  0.03030  Biso   1.000  N
  N38      1.0000 0.98900  0.33540  0.89600  Biso   1.000  N
  N39      1.0000 0.89050  0.33520  0.74030  Biso   1.000  N
  N40      1.0000 0.11310  0.47160  0.89350  Biso   1.000  N
  N41      1.0000 0.10000  0.59630  0.79850  Biso   1.000  N
  N42      1.0000 0.10210  0.62570  0.60200  Biso   1.000  N
  C51      1.0000 0.28010  0.28480  0.00010  Biso   1.000  C
  H41      1.0000 0.25720  0.25860  0.00130  Biso   1.000  H
  C52      1.0000 0.29930  0.41280  0.97250  Biso   1.000  C
  H42      1.0000 0.27970  0.46230  0.95250  Biso   1.000  H
  C53      1.0000 0.38110  0.40300  0.00330  Biso   1.000  C
  H43      1.0000 0.41720  0.44490  0.00420  Biso   1.000  H
  C54      1.0000 0.40800  0.32890  0.03280  Biso   1.000  C
  H44      1.0000 0.46310  0.32100  0.05500  Biso   1.000  H
  C55      1.0000 0.96530  0.33520  0.78830  Biso   1.000  C
  H45      1.0000 0.00840  0.33480  0.73960  Biso   1.000  H
  C56      1.0000 0.83060  0.33640  0.80840  Biso   1.000  C
  H46      1.0000 0.77640  0.33750  0.77880  Biso   1.000  H
  C57      1.0000 0.84820  0.33590  0.92220  Biso   1.000  C
  H47      1.0000 0.80660  0.33650  0.96950  Biso   1.000  H
  C58      1.0000 0.92880  0.33450  0.96350  Biso   1.000  C
  H48      1.0000 0.94180  0.33290  0.03980  Biso   1.000  H
  C59      1.0000 0.10720  0.52820  0.84310  Biso   1.000  C
  C60      1.0000 0.10300  0.60820  0.69360  Biso   1.000  C
  Co7      1.0000 0.38328  0.85430  0.56142  Biso   1.000  Co
  N43      1.0000 0.25270  0.85250  0.52930  Biso   1.000  N
  N44      1.0000 0.14330  0.76810  0.46970  Biso   1.000  N
  N45      1.0000 0.51100  0.83540  0.60400  Biso   1.000  N
  N46      1.0000 0.60950  0.83520  0.75970  Biso   1.000  N
  N47      1.0000 0.38690  0.97160  0.60650  Biso   1.000  N
  N48      1.0000 0.40000  0.09630  0.70150  Biso   1.000  N
  N49      1.0000 0.39790  0.12570  0.89800  Biso   1.000  N
  C61      1.0000 0.21990  0.78480  0.49990  Biso   1.000  C
  H49      1.0000 0.24280  0.75860  0.49870  Biso   1.000  H
  C62      1.0000 0.20070  0.91280  0.52750  Biso   1.000  C
  H50      1.0000 0.22030  0.96230  0.54750  Biso   1.000  H
  C63      1.0000 0.11890  0.90300  0.49670  Biso   1.000  C
  H51      1.0000 0.08280  0.94490  0.49580  Biso   1.000  H
  C64      1.0000 0.09200  0.82890  0.46720  Biso   1.000  C
  H52      1.0000 0.03690  0.82100  0.44500  Biso   1.000  H
  C65      1.0000 0.53470  0.83520  0.71170  Biso   1.000  C
  H53      1.0000 0.49160  0.83480  0.76040  Biso   1.000  H
  C66      1.0000 0.66940  0.83640  0.69160  Biso   1.000  C
  H54      1.0000 0.72360  0.83750  0.72120  Biso   1.000  H
  C67      1.0000 0.65180  0.83590  0.57780  Biso   1.000  C
  H55      1.0000 0.69340  0.83650  0.53050  Biso   1.000  H
  C68      1.0000 0.57120  0.83450  0.53650  Biso   1.000  C
  H56      1.0000 0.55820  0.83290  0.46020  Biso   1.000  H
  C69      1.0000 0.39280  0.02820  0.65690  Biso   1.000  C
  C70      1.0000 0.39700  0.10820  0.80640  Biso   1.000  C
  Co8      1.0000 0.88328  0.35430  0.56142  Biso   1.000  Co
  N50      1.0000 0.75270  0.35250  0.52930  Biso   1.000  N
  N51      1.0000 0.64330  0.26810  0.46970  Biso   1.000  N
  N52      1.0000 0.01100  0.33540  0.60400  Biso   1.000  N
  N53      1.0000 0.10950  0.33520  0.75970  Biso   1.000  N
  N54      1.0000 0.88690  0.47160  0.60650  Biso   1.000  N
  N55      1.0000 0.90000  0.59630  0.70150  Biso   1.000  N
  N56      1.0000 0.89790  0.62570  0.89800  Biso   1.000  N
  C71      1.0000 0.71990  0.28480  0.49990  Biso   1.000  C
  H57      1.0000 0.74280  0.25860  0.49870  Biso   1.000  H
  C72      1.0000 0.70070  0.41280  0.52750  Biso   1.000  C
  H58      1.0000 0.72030  0.46230  0.54750  Biso   1.000  H
  C73      1.0000 0.61890  0.40300  0.49670  Biso   1.000  C
  H59      1.0000 0.58280  0.44490  0.49580  Biso   1.000  H
  C74      1.0000 0.59200  0.32890  0.46720  Biso   1.000  C
  H60      1.0000 0.53690  0.32100  0.44500  Biso   1.000  H
  C75      1.0000 0.03470  0.33520  0.71170  Biso   1.000  C
  H61      1.0000 0.99160  0.33480  0.76040  Biso   1.000  H
  C76      1.0000 0.16940  0.33640  0.69160  Biso   1.000  C
  H62      1.0000 0.22360  0.33750  0.72120  Biso   1.000  H
  C77      1.0000 0.15180  0.33590  0.57780  Biso   1.000  C
  H63      1.0000 0.19340  0.33650  0.53050  Biso   1.000  H
  C78      1.0000 0.07120  0.33450  0.53650  Biso   1.000  C
  H64      1.0000 0.05820  0.33290  0.46020  Biso   1.000  H
  C79      1.0000 0.89280  0.52820  0.65690  Biso   1.000  C
  C80      1.0000 0.89700  0.60820  0.80640  Biso   1.000  C
