data_image0
_cell_length_a       15.9295
_cell_length_b       15.9295
_cell_length_c       19.72
_cell_angle_alpha    90
_cell_angle_beta     90
_cell_angle_gamma    120

_symmetry_space_group_name_H-M    "P 1"
_symmetry_int_tables_number       1

loop_
  _symmetry_equiv_pos_as_xyz
  'x, y, z'

loop_
  _atom_site_label
  _atom_site_occupancy
  _atom_site_fract_x
  _atom_site_fract_y
  _atom_site_fract_z
  _atom_site_thermal_displace_type
  _atom_site_B_iso_or_equiv
  _atom_site_type_symbol
  O1       1.0000 0.49110  0.83940  0.39110  Biso   1.000  O
  N1       1.0000 0.63420  0.18020  0.74060  Biso   1.000  N
  C1       1.0000 0.54000  0.93640  0.51380  Biso   1.000  C
  C2       1.0000 0.56980  0.99260  0.57120  Biso   1.000  C
  H1       1.0000 0.57130  0.90130  0.50100  Biso   1.000  H
  H2       1.0000 0.62250  0.99800  0.59720  Biso   1.000  H
  C3       1.0000 0.63360  0.13240  0.68660  Biso   1.000  C
  H3       1.0000 0.68580  0.12320  0.67320  Biso   1.000  H
  C4       1.0000 0.58870  0.04040  0.54930  Biso   1.000  C
  H4       1.0000 0.65560  0.08060  0.55910  Biso   1.000  H
  C5       1.0000 0.56100  0.98120  0.49320  Biso   1.000  C
  H5       1.0000 0.60840  0.97560  0.46740  Biso   1.000  H
  O2       1.0000 0.16060  0.65170  0.39110  Biso   1.000  O
  N2       1.0000 0.81980  0.45400  0.74060  Biso   1.000  N
  C6       1.0000 0.06360  0.60360  0.51380  Biso   1.000  C
  C7       1.0000 0.00740  0.57720  0.57120  Biso   1.000  C
  H6       1.0000 0.09870  0.67000  0.50100  Biso   1.000  H
  H7       1.0000 0.00200  0.62450  0.59720  Biso   1.000  H
  C8       1.0000 0.86760  0.50120  0.68660  Biso   1.000  C
  H8       1.0000 0.87680  0.56260  0.67320  Biso   1.000  H
  C9       1.0000 0.95960  0.54830  0.54930  Biso   1.000  C
  H9       1.0000 0.91940  0.57500  0.55910  Biso   1.000  H
  C10      1.0000 0.01880  0.57980  0.49320  Biso   1.000  C
  H10      1.0000 0.02440  0.63280  0.46740  Biso   1.000  H
  O3       1.0000 0.34830  0.50890  0.39110  Biso   1.000  O
  N3       1.0000 0.54600  0.36580  0.74060  Biso   1.000  N
  C11      1.0000 0.39640  0.46000  0.51380  Biso   1.000  C
  C12      1.0000 0.42280  0.43020  0.57120  Biso   1.000  C
  H11      1.0000 0.33000  0.42870  0.50100  Biso   1.000  H
  H12      1.0000 0.37550  0.37750  0.59720  Biso   1.000  H
  C13      1.0000 0.49880  0.36640  0.68660  Biso   1.000  C
  H13      1.0000 0.43740  0.31420  0.67320  Biso   1.000  H
  C14      1.0000 0.45170  0.41130  0.54930  Biso   1.000  C
  H14      1.0000 0.42500  0.34440  0.55910  Biso   1.000  H
  C15      1.0000 0.42020  0.43900  0.49320  Biso   1.000  C
  H15      1.0000 0.36720  0.39160  0.46740  Biso   1.000  H
  O4       1.0000 0.50890  0.16060  0.89110  Biso   1.000  O
  N4       1.0000 0.36580  0.81980  0.24060  Biso   1.000  N
  C16      1.0000 0.46000  0.06360  0.01380  Biso   1.000  C
  C17      1.0000 0.43020  0.00740  0.07120  Biso   1.000  C
  H16      1.0000 0.42870  0.09870  0.00100  Biso   1.000  H
  H17      1.0000 0.37750  0.00200  0.09720  Biso   1.000  H
  C18      1.0000 0.36640  0.86760  0.18660  Biso   1.000  C
  H18      1.0000 0.31420  0.87680  0.17320  Biso   1.000  H
  C19      1.0000 0.41130  0.95960  0.04930  Biso   1.000  C
  H19      1.0000 0.34440  0.91940  0.05910  Biso   1.000  H
  C20      1.0000 0.43900  0.01880  0.99320  Biso   1.000  C
  H20      1.0000 0.39160  0.02440  0.96740  Biso   1.000  H
  O5       1.0000 0.83940  0.34830  0.89110  Biso   1.000  O
  N5       1.0000 0.18020  0.54600  0.24060  Biso   1.000  N
  C21      1.0000 0.93640  0.39640  0.01380  Biso   1.000  C
  C22      1.0000 0.99260  0.42280  0.07120  Biso   1.000  C
  H21      1.0000 0.90130  0.33000  0.00100  Biso   1.000  H
  H22      1.0000 0.99800  0.37550  0.09720  Biso   1.000  H
  C23      1.0000 0.13240  0.49880  0.18660  Biso   1.000  C
  H23      1.0000 0.12320  0.43740  0.17320  Biso   1.000  H
  C24      1.0000 0.04040  0.45170  0.04930  Biso   1.000  C
  H24      1.0000 0.08060  0.42500  0.05910  Biso   1.000  H
  C25      1.0000 0.98120  0.42020  0.99320  Biso   1.000  C
  H25      1.0000 0.97560  0.36720  0.96740  Biso   1.000  H
  O6       1.0000 0.65170  0.49110  0.89110  Biso   1.000  O
  N6       1.0000 0.45400  0.63420  0.24060  Biso   1.000  N
  C26      1.0000 0.60360  0.54000  0.01380  Biso   1.000  C
  C27      1.0000 0.57720  0.56980  0.07120  Biso   1.000  C
  H26      1.0000 0.67000  0.57130  0.00100  Biso   1.000  H
  H27      1.0000 0.62450  0.62250  0.09720  Biso   1.000  H
  C28      1.0000 0.50120  0.63360  0.18660  Biso   1.000  C
  H28      1.0000 0.56260  0.68580  0.17320  Biso   1.000  H
  C29      1.0000 0.54830  0.58870  0.04930  Biso   1.000  C
  H29      1.0000 0.57500  0.65560  0.05910  Biso   1.000  H
  C30      1.0000 0.57980  0.56100  0.99320  Biso   1.000  C
  H30      1.0000 0.63280  0.60840  0.96740  Biso   1.000  H
  O7       1.0000 0.16060  0.50890  0.39110  Biso   1.000  O
  N7       1.0000 0.81980  0.36580  0.74060  Biso   1.000  N
  C31      1.0000 0.06360  0.46000  0.51380  Biso   1.000  C
  C32      1.0000 0.00740  0.43020  0.57120  Biso   1.000  C
  H31      1.0000 0.09870  0.42870  0.50100  Biso   1.000  H
  H32      1.0000 0.00200  0.37750  0.59720  Biso   1.000  H
  C33      1.0000 0.86760  0.36640  0.68660  Biso   1.000  C
  H33      1.0000 0.87680  0.31420  0.67320  Biso   1.000  H
  C34      1.0000 0.95960  0.41130  0.54930  Biso   1.000  C
  H34      1.0000 0.91940  0.34440  0.55910  Biso   1.000  H
  C35      1.0000 0.01880  0.43900  0.49320  Biso   1.000  C
  H35      1.0000 0.02440  0.39160  0.46740  Biso   1.000  H
  O8       1.0000 0.34830  0.83940  0.39110  Biso   1.000  O
  N8       1.0000 0.54600  0.18020  0.74060  Biso   1.000  N
  C36      1.0000 0.39640  0.93640  0.51380  Biso   1.000  C
  C37      1.0000 0.42280  0.99260  0.57120  Biso   1.000  C
  H36      1.0000 0.33000  0.90130  0.50100  Biso   1.000  H
  H37      1.0000 0.37550  0.99800  0.59720  Biso   1.000  H
  C38      1.0000 0.49880  0.13240  0.68660  Biso   1.000  C
  H38      1.0000 0.43740  0.12320  0.67320  Biso   1.000  H
  C39      1.0000 0.45170  0.04040  0.54930  Biso   1.000  C
  H39      1.0000 0.42500  0.08060  0.55910  Biso   1.000  H
  C40      1.0000 0.42020  0.98120  0.49320  Biso   1.000  C
  H40      1.0000 0.36720  0.97560  0.46740  Biso   1.000  H
  O9       1.0000 0.49110  0.65170  0.39110  Biso   1.000  O
  N9       1.0000 0.63420  0.45400  0.74060  Biso   1.000  N
  C41      1.0000 0.54000  0.60360  0.51380  Biso   1.000  C
  C42      1.0000 0.56980  0.57720  0.57120  Biso   1.000  C
  H41      1.0000 0.57130  0.67000  0.50100  Biso   1.000  H
  H42      1.0000 0.62250  0.62450  0.59720  Biso   1.000  H
  C43      1.0000 0.63360  0.50120  0.68660  Biso   1.000  C
  H43      1.0000 0.68580  0.56260  0.67320  Biso   1.000  H
  C44      1.0000 0.58870  0.54830  0.54930  Biso   1.000  C
  H44      1.0000 0.65560  0.57500  0.55910  Biso   1.000  H
  C45      1.0000 0.56100  0.57980  0.49320  Biso   1.000  C
  H45      1.0000 0.60840  0.63280  0.46740  Biso   1.000  H
  O10      1.0000 0.83940  0.49110  0.89110  Biso   1.000  O
  N10      1.0000 0.18020  0.63420  0.24060  Biso   1.000  N
  C46      1.0000 0.93640  0.54000  0.01380  Biso   1.000  C
  C47      1.0000 0.99260  0.56980  0.07120  Biso   1.000  C
  H46      1.0000 0.90130  0.57130  0.00100  Biso   1.000  H
  H47      1.0000 0.99800  0.62250  0.09720  Biso   1.000  H
  C48      1.0000 0.13240  0.63360  0.18660  Biso   1.000  C
  H48      1.0000 0.12320  0.68580  0.17320  Biso   1.000  H
  C49      1.0000 0.04040  0.58870  0.04930  Biso   1.000  C
  H49      1.0000 0.08060  0.65560  0.05910  Biso   1.000  H
  C50      1.0000 0.98120  0.56100  0.99320  Biso   1.000  C
  H50      1.0000 0.97560  0.60840  0.96740  Biso   1.000  H
  O11      1.0000 0.65170  0.16060  0.89110  Biso   1.000  O
  N11      1.0000 0.45400  0.81980  0.24060  Biso   1.000  N
  C51      1.0000 0.60360  0.06360  0.01380  Biso   1.000  C
  C52      1.0000 0.57720  0.00740  0.07120  Biso   1.000  C
  H51      1.0000 0.67000  0.09870  0.00100  Biso   1.000  H
  H52      1.0000 0.62450  0.00200  0.09720  Biso   1.000  H
  C53      1.0000 0.50120  0.86760  0.18660  Biso   1.000  C
  H53      1.0000 0.56260  0.87680  0.17320  Biso   1.000  H
  C54      1.0000 0.54830  0.95960  0.04930  Biso   1.000  C
  H54      1.0000 0.57500  0.91940  0.05910  Biso   1.000  H
  C55      1.0000 0.57980  0.01880  0.99320  Biso   1.000  C
  H55      1.0000 0.63280  0.02440  0.96740  Biso   1.000  H
  O12      1.0000 0.50890  0.34830  0.89110  Biso   1.000  O
  N12      1.0000 0.36580  0.54600  0.24060  Biso   1.000  N
  C56      1.0000 0.46000  0.39640  0.01380  Biso   1.000  C
  C57      1.0000 0.43020  0.42280  0.07120  Biso   1.000  C
  H56      1.0000 0.42870  0.33000  0.00100  Biso   1.000  H
  H57      1.0000 0.37750  0.37550  0.09720  Biso   1.000  H
  C58      1.0000 0.36640  0.49880  0.18660  Biso   1.000  C
  H58      1.0000 0.31420  0.43740  0.17320  Biso   1.000  H
  C59      1.0000 0.41130  0.45170  0.04930  Biso   1.000  C
  H59      1.0000 0.34440  0.42500  0.05910  Biso   1.000  H
  C60      1.0000 0.43900  0.42020  0.99320  Biso   1.000  C
  H60      1.0000 0.39160  0.36720  0.96740  Biso   1.000  H
  Co1      1.0000 0.47672  0.73836  0.31710  Biso   1.000  Co
  Co2      1.0000 0.26164  0.73836  0.31710  Biso   1.000  Co
  Co3      1.0000 0.26164  0.52328  0.31710  Biso   1.000  Co
  Co4      1.0000 0.52328  0.26164  0.81710  Biso   1.000  Co
  Co5      1.0000 0.73836  0.26164  0.81710  Biso   1.000  Co
  Co6      1.0000 0.73836  0.47672  0.81710  Biso   1.000  Co
  O13      1.0000 0.33333  0.66667  0.33840  Biso   1.000  O
  O14      1.0000 0.66667  0.33333  0.83840  Biso   1.000  O
  C61      1.0000 0.43185  0.86370  0.41290  Biso   1.000  C
  C62      1.0000 0.46495  0.92990  0.47420  Biso   1.000  C
  C63      1.0000 0.52125  0.04250  0.59120  Biso   1.000  C
  N13      1.0000 0.54870  0.09740  0.65190  Biso   1.000  N
  C64      1.0000 0.13630  0.56815  0.41290  Biso   1.000  C
  C65      1.0000 0.07010  0.53505  0.47420  Biso   1.000  C
  C66      1.0000 0.95750  0.47875  0.59120  Biso   1.000  C
  N14      1.0000 0.90260  0.45130  0.65190  Biso   1.000  N
  C67      1.0000 0.43185  0.56815  0.41290  Biso   1.000  C
  C68      1.0000 0.46495  0.53505  0.47420  Biso   1.000  C
  C69      1.0000 0.52125  0.47875  0.59120  Biso   1.000  C
  N15      1.0000 0.54870  0.45130  0.65190  Biso   1.000  N
  C70      1.0000 0.56815  0.13630  0.91290  Biso   1.000  C
  C71      1.0000 0.53505  0.07010  0.97420  Biso   1.000  C
  C72      1.0000 0.47875  0.95750  0.09120  Biso   1.000  C
  N16      1.0000 0.45130  0.90260  0.15190  Biso   1.000  N
  C73      1.0000 0.86370  0.43185  0.91290  Biso   1.000  C
  C74      1.0000 0.92990  0.46495  0.97420  Biso   1.000  C
  C75      1.0000 0.04250  0.52125  0.09120  Biso   1.000  C
  N17      1.0000 0.09740  0.54870  0.15190  Biso   1.000  N
  C76      1.0000 0.56815  0.43185  0.91290  Biso   1.000  C
  C77      1.0000 0.53505  0.46495  0.97420  Biso   1.000  C
  C78      1.0000 0.47875  0.52125  0.09120  Biso   1.000  C
  N18      1.0000 0.45130  0.54870  0.15190  Biso   1.000  N
