data_image0
_cell_length_a       14.271
_cell_length_b       14.432
_cell_length_c       22.549
_cell_angle_alpha    90
_cell_angle_beta     99.86
_cell_angle_gamma    90

_symmetry_space_group_name_H-M    "P 1"
_symmetry_int_tables_number       1

loop_
  _symmetry_equiv_pos_as_xyz
  'x, y, z'

loop_
  _atom_site_label
  _atom_site_occupancy
  _atom_site_fract_x
  _atom_site_fract_y
  _atom_site_fract_z
  _atom_site_thermal_displace_type
  _atom_site_B_iso_or_equiv
  _atom_site_type_symbol
  Cd1      1.0000 0.24488  0.25411  0.25854  Biso   1.000  Cd
  Cd2      1.0000 0.31621  0.37472  0.13894  Biso   1.000  Cd
  C1       1.0000 0.86710  0.63410  0.19727  Biso   1.000  C
  C2       1.0000 0.93100  0.57250  0.16812  Biso   1.000  C
  C3       1.0000 0.99710  0.51450  0.20175  Biso   1.000  C
  H1       1.0000 0.00290  0.51310  0.24350  Biso   1.000  H
  C4       1.0000 0.05440  0.45870  0.17307  Biso   1.000  C
  C5       1.0000 0.04820  0.46370  0.11038  Biso   1.000  C
  H2       1.0000 0.08850  0.42810  0.09130  Biso   1.000  H
  C6       1.0000 0.98230  0.52130  0.07732  Biso   1.000  C
  C7       1.0000 0.92320  0.57570  0.10586  Biso   1.000  C
  H3       1.0000 0.87850  0.61430  0.08330  Biso   1.000  H
  C8       1.0000 0.12360  0.39300  0.20837  Biso   1.000  C
  C9       1.0000 0.98250  0.54870  0.01180  Biso   1.000  C
  H4       1.0000 0.90480  0.51080  0.99240  Biso   1.000  H
  H5       1.0000 0.97020  0.59920  0.99920  Biso   1.000  H
  C10      1.0000 0.39500  0.40300  0.28642  Biso   1.000  C
  C11      1.0000 0.45990  0.46820  0.32583  Biso   1.000  C
  C12      1.0000 0.46440  0.46670  0.38819  Biso   1.000  C
  H6       1.0000 0.42900  0.42340  0.40560  Biso   1.000  H
  C13      1.0000 0.52140  0.52950  0.42413  Biso   1.000  C
  C14      1.0000 0.57630  0.59200  0.39900  Biso   1.000  C
  H7       1.0000 0.61510  0.63380  0.42330  Biso   1.000  H
  C15      1.0000 0.57340  0.59210  0.33734  Biso   1.000  C
  C16      1.0000 0.51550  0.53100  0.30074  Biso   1.000  C
  H8       1.0000 0.51390  0.53190  0.25930  Biso   1.000  H
  C17      1.0000 0.63550  0.65810  0.30990  Biso   1.000  C
  C18      1.0000 0.53140  0.54710  0.49120  Biso   1.000  C
  H9       1.0000 0.59710  0.54000  0.51070  Biso   1.000  H
  H10      1.0000 0.51050  0.60930  0.49880  Biso   1.000  H
  O1       1.0000 0.87810  0.63790  0.25392  Biso   1.000  O
  O2       1.0000 0.80605  0.68110  0.16386  Biso   1.000  O
  O3       1.0000 0.12190  0.37870  0.26221  Biso   1.000  O
  O4       1.0000 0.18024  0.34882  0.17993  Biso   1.000  O
  O5       1.0000 0.34960  0.34630  0.31252  Biso   1.000  O
  O6       1.0000 0.39190  0.40970  0.23121  Biso   1.000  O
  O7       1.0000 0.64160  0.64920  0.25610  Biso   1.000  O
  O8       1.0000 0.67880  0.71960  0.34420  Biso   1.000  O
  O9       1.0000 0.52660  0.51940  0.48720  Biso   1.000  O
  O10      1.0000 0.96380  0.51660  0.01530  Biso   1.000  O
  Cd3      1.0000 0.75512  0.75411  0.24146  Biso   1.000  Cd
  Cd4      1.0000 0.68379  0.87472  0.36106  Biso   1.000  Cd
  C19      1.0000 0.13290  0.13410  0.30273  Biso   1.000  C
  C20      1.0000 0.06900  0.07250  0.33188  Biso   1.000  C
  C21      1.0000 0.00290  0.01450  0.29825  Biso   1.000  C
  H11      1.0000 0.99710  0.01310  0.25650  Biso   1.000  H
  C22      1.0000 0.94560  0.95870  0.32693  Biso   1.000  C
  C23      1.0000 0.95180  0.96370  0.38962  Biso   1.000  C
  H12      1.0000 0.91150  0.92810  0.40870  Biso   1.000  H
  C24      1.0000 0.01770  0.02130  0.42268  Biso   1.000  C
  C25      1.0000 0.07680  0.07570  0.39414  Biso   1.000  C
  H13      1.0000 0.12150  0.11430  0.41670  Biso   1.000  H
  C26      1.0000 0.87640  0.89300  0.29163  Biso   1.000  C
  C27      1.0000 0.01750  0.04870  0.48820  Biso   1.000  C
  H14      1.0000 0.09520  0.01080  0.50760  Biso   1.000  H
  H15      1.0000 0.02980  0.09920  0.50080  Biso   1.000  H
  C28      1.0000 0.60500  0.90300  0.21358  Biso   1.000  C
  C29      1.0000 0.54010  0.96820  0.17417  Biso   1.000  C
  C30      1.0000 0.53560  0.96670  0.11181  Biso   1.000  C
  H16      1.0000 0.57100  0.92340  0.09440  Biso   1.000  H
  C31      1.0000 0.47860  0.02950  0.07587  Biso   1.000  C
  C32      1.0000 0.42370  0.09200  0.10100  Biso   1.000  C
  H17      1.0000 0.38490  0.13380  0.07670  Biso   1.000  H
  C33      1.0000 0.42660  0.09210  0.16266  Biso   1.000  C
  C34      1.0000 0.48450  0.03100  0.19926  Biso   1.000  C
  H18      1.0000 0.48610  0.03190  0.24070  Biso   1.000  H
  C35      1.0000 0.36450  0.15810  0.19010  Biso   1.000  C
  C36      1.0000 0.46860  0.04710  0.00880  Biso   1.000  C
  H19      1.0000 0.40290  0.04000  0.98930  Biso   1.000  H
  H20      1.0000 0.48950  0.10930  0.00120  Biso   1.000  H
  O11      1.0000 0.12190  0.13790  0.24608  Biso   1.000  O
  O12      1.0000 0.19395  0.18110  0.33614  Biso   1.000  O
  O13      1.0000 0.87810  0.87870  0.23779  Biso   1.000  O
  O14      1.0000 0.81976  0.84882  0.32007  Biso   1.000  O
  O15      1.0000 0.65040  0.84630  0.18748  Biso   1.000  O
  O16      1.0000 0.60810  0.90970  0.26879  Biso   1.000  O
  O17      1.0000 0.35840  0.14920  0.24390  Biso   1.000  O
  O18      1.0000 0.32120  0.21960  0.15580  Biso   1.000  O
  O19      1.0000 0.47340  0.01940  0.01280  Biso   1.000  O
  O20      1.0000 0.03620  0.01660  0.48470  Biso   1.000  O
  Cd5      1.0000 0.75512  0.74589  0.74146  Biso   1.000  Cd
  Cd6      1.0000 0.68379  0.62528  0.86106  Biso   1.000  Cd
  C37      1.0000 0.13290  0.36590  0.80273  Biso   1.000  C
  C38      1.0000 0.06900  0.42750  0.83188  Biso   1.000  C
  C39      1.0000 0.00290  0.48550  0.79825  Biso   1.000  C
  H21      1.0000 0.99710  0.48690  0.75650  Biso   1.000  H
  C40      1.0000 0.94560  0.54130  0.82693  Biso   1.000  C
  C41      1.0000 0.95180  0.53630  0.88962  Biso   1.000  C
  H22      1.0000 0.91150  0.57190  0.90870  Biso   1.000  H
  C42      1.0000 0.01770  0.47870  0.92268  Biso   1.000  C
  C43      1.0000 0.07680  0.42430  0.89414  Biso   1.000  C
  H23      1.0000 0.12150  0.38570  0.91670  Biso   1.000  H
  C44      1.0000 0.87640  0.60700  0.79163  Biso   1.000  C
  C45      1.0000 0.01750  0.45130  0.98820  Biso   1.000  C
  H24      1.0000 0.09520  0.48920  0.00760  Biso   1.000  H
  H25      1.0000 0.02980  0.40080  0.00080  Biso   1.000  H
  C46      1.0000 0.60500  0.59700  0.71358  Biso   1.000  C
  C47      1.0000 0.54010  0.53180  0.67417  Biso   1.000  C
  C48      1.0000 0.53560  0.53330  0.61181  Biso   1.000  C
  H26      1.0000 0.57100  0.57660  0.59440  Biso   1.000  H
  C49      1.0000 0.47860  0.47050  0.57587  Biso   1.000  C
  C50      1.0000 0.42370  0.40800  0.60100  Biso   1.000  C
  H27      1.0000 0.38490  0.36620  0.57670  Biso   1.000  H
  C51      1.0000 0.42660  0.40790  0.66266  Biso   1.000  C
  C52      1.0000 0.48450  0.46900  0.69926  Biso   1.000  C
  H28      1.0000 0.48610  0.46810  0.74070  Biso   1.000  H
  C53      1.0000 0.36450  0.34190  0.69010  Biso   1.000  C
  C54      1.0000 0.46860  0.45290  0.50880  Biso   1.000  C
  H29      1.0000 0.40290  0.46000  0.48930  Biso   1.000  H
  H30      1.0000 0.48950  0.39070  0.50120  Biso   1.000  H
  O21      1.0000 0.12190  0.36210  0.74608  Biso   1.000  O
  O22      1.0000 0.19395  0.31890  0.83614  Biso   1.000  O
  O23      1.0000 0.87810  0.62130  0.73779  Biso   1.000  O
  O24      1.0000 0.81976  0.65118  0.82007  Biso   1.000  O
  O25      1.0000 0.65040  0.65370  0.68748  Biso   1.000  O
  O26      1.0000 0.60810  0.59030  0.76879  Biso   1.000  O
  O27      1.0000 0.35840  0.35080  0.74390  Biso   1.000  O
  O28      1.0000 0.32120  0.28040  0.65580  Biso   1.000  O
  O29      1.0000 0.47340  0.48060  0.51280  Biso   1.000  O
  O30      1.0000 0.03620  0.48340  0.98470  Biso   1.000  O
  Cd7      1.0000 0.24488  0.24589  0.75854  Biso   1.000  Cd
  Cd8      1.0000 0.31621  0.12528  0.63894  Biso   1.000  Cd
  C55      1.0000 0.86710  0.86590  0.69727  Biso   1.000  C
  C56      1.0000 0.93100  0.92750  0.66812  Biso   1.000  C
  C57      1.0000 0.99710  0.98550  0.70175  Biso   1.000  C
  H31      1.0000 0.00290  0.98690  0.74350  Biso   1.000  H
  C58      1.0000 0.05440  0.04130  0.67307  Biso   1.000  C
  C59      1.0000 0.04820  0.03630  0.61038  Biso   1.000  C
  H32      1.0000 0.08850  0.07190  0.59130  Biso   1.000  H
  C60      1.0000 0.98230  0.97870  0.57732  Biso   1.000  C
  C61      1.0000 0.92320  0.92430  0.60586  Biso   1.000  C
  H33      1.0000 0.87850  0.88570  0.58330  Biso   1.000  H
  C62      1.0000 0.12360  0.10700  0.70837  Biso   1.000  C
  C63      1.0000 0.98250  0.95130  0.51180  Biso   1.000  C
  H34      1.0000 0.90480  0.98920  0.49240  Biso   1.000  H
  H35      1.0000 0.97020  0.90080  0.49920  Biso   1.000  H
  C64      1.0000 0.39500  0.09700  0.78642  Biso   1.000  C
  C65      1.0000 0.45990  0.03180  0.82583  Biso   1.000  C
  C66      1.0000 0.46440  0.03330  0.88819  Biso   1.000  C
  H36      1.0000 0.42900  0.07660  0.90560  Biso   1.000  H
  C67      1.0000 0.52140  0.97050  0.92413  Biso   1.000  C
  C68      1.0000 0.57630  0.90800  0.89900  Biso   1.000  C
  H37      1.0000 0.61510  0.86620  0.92330  Biso   1.000  H
  C69      1.0000 0.57340  0.90790  0.83734  Biso   1.000  C
  C70      1.0000 0.51550  0.96900  0.80074  Biso   1.000  C
  H38      1.0000 0.51390  0.96810  0.75930  Biso   1.000  H
  C71      1.0000 0.63550  0.84190  0.80990  Biso   1.000  C
  C72      1.0000 0.53140  0.95290  0.99120  Biso   1.000  C
  H39      1.0000 0.59710  0.96000  0.01070  Biso   1.000  H
  H40      1.0000 0.51050  0.89070  0.99880  Biso   1.000  H
  O31      1.0000 0.87810  0.86210  0.75392  Biso   1.000  O
  O32      1.0000 0.80605  0.81890  0.66386  Biso   1.000  O
  O33      1.0000 0.12190  0.12130  0.76221  Biso   1.000  O
  O34      1.0000 0.18024  0.15118  0.67993  Biso   1.000  O
  O35      1.0000 0.34960  0.15370  0.81252  Biso   1.000  O
  O36      1.0000 0.39190  0.09030  0.73121  Biso   1.000  O
  O37      1.0000 0.64160  0.85080  0.75610  Biso   1.000  O
  O38      1.0000 0.67880  0.78040  0.84420  Biso   1.000  O
  O39      1.0000 0.52660  0.98060  0.98720  Biso   1.000  O
  O40      1.0000 0.96380  0.98340  0.51530  Biso   1.000  O
