data_image0
_cell_length_a       9.942
_cell_length_b       10.426
_cell_length_c       12.77
_cell_angle_alpha    109.996
_cell_angle_beta     107.303
_cell_angle_gamma    92.141

_symmetry_space_group_name_H-M    "P 1"
_symmetry_int_tables_number       1

loop_
  _symmetry_equiv_pos_as_xyz
  'x, y, z'

loop_
  _atom_site_label
  _atom_site_occupancy
  _atom_site_fract_x
  _atom_site_fract_y
  _atom_site_fract_z
  _atom_site_thermal_displace_type
  _atom_site_B_iso_or_equiv
  _atom_site_type_symbol
  Cd1      1.0000 0.57202  0.81567  0.23648  Biso   1.000  Cd
  C1       1.0000 0.78770  0.75800  0.13180  Biso   1.000  C
  C2       1.0000 0.88330  0.71000  0.06020  Biso   1.000  C
  C3       1.0000 0.02920  0.73720  0.11400  Biso   1.000  C
  H1       1.0000 0.06870  0.78780  0.19470  Biso   1.000  H
  C4       1.0000 0.11790  0.68830  0.04650  Biso   1.000  C
  C5       1.0000 0.05780  0.61440  0.92660  Biso   1.000  C
  H2       1.0000 0.11640  0.58080  0.88180  Biso   1.000  H
  C6       1.0000 0.91170  0.59010  0.87270  Biso   1.000  C
  C7       1.0000 0.82300  0.63670  0.93890  Biso   1.000  C
  H3       1.0000 0.72450  0.61930  0.90290  Biso   1.000  H
  C8       1.0000 0.27740  0.71200  0.10220  Biso   1.000  C
  C9       1.0000 0.71030  0.52120  0.69370  Biso   1.000  C
  H4       1.0000 0.67060  0.60650  0.71200  Biso   1.000  H
  H5       1.0000 0.66500  0.45740  0.71800  Biso   1.000  H
  C10      1.0000 0.69360  0.45610  0.55910  Biso   1.000  C
  C11      1.0000 0.67400  0.31350  0.50960  Biso   1.000  C
  H6       1.0000 0.69080  0.26210  0.55780  Biso   1.000  H
  C12      1.0000 0.62900  0.24670  0.38680  Biso   1.000  C
  C13      1.0000 0.60650  0.32380  0.31430  Biso   1.000  C
  H7       1.0000 0.57710  0.27960  0.23260  Biso   1.000  H
  C14      1.0000 0.62870  0.46970  0.36600  Biso   1.000  C
  C15      1.0000 0.67160  0.53420  0.48740  Biso   1.000  C
  H8       1.0000 0.68600  0.63010  0.52150  Biso   1.000  H
  C16      1.0000 0.60920  0.09170  0.33260  Biso   1.000  C
  C17      1.0000 0.60150  0.55170  0.28670  Biso   1.000  C
  O1       1.0000 0.83560  0.84220  0.23610  Biso   1.000  O
  O2       1.0000 0.65450  0.70580  0.08560  Biso   1.000  O
  O3       1.0000 0.33380  0.79140  0.21210  Biso   1.000  O
  O4       1.0000 0.35100  0.65860  0.04000  Biso   1.000  O
  O5       1.0000 0.86460  0.54610  0.74910  Biso   1.000  O
  O6       1.0000 0.63500  0.02370  0.39870  Biso   1.000  O
  O7       1.0000 0.56360  0.03350  0.22170  Biso   1.000  O
  O8       1.0000 0.54450  0.48690  0.17820  Biso   1.000  O
  O9       1.0000 0.63330  0.68130  0.33730  Biso   1.000  O
  C18      1.0000 0.84330  0.47400  0.74910  Biso   1.000  C
  H9       1.0000 0.91410  0.42000  0.72580  Biso   1.000  H
  H10      1.0000 0.76730  0.41290  0.74920  Biso   1.000  H
  O10      1.0000 0.79070  0.54210  0.67460  Biso   1.000  O
  Cd2      1.0000 0.42798  0.18433  0.76352  Biso   1.000  Cd
  C19      1.0000 0.21230  0.24200  0.86820  Biso   1.000  C
  C20      1.0000 0.11670  0.29000  0.93980  Biso   1.000  C
  C21      1.0000 0.97080  0.26280  0.88600  Biso   1.000  C
  H11      1.0000 0.93130  0.21220  0.80530  Biso   1.000  H
  C22      1.0000 0.88210  0.31170  0.95350  Biso   1.000  C
  C23      1.0000 0.94220  0.38560  0.07340  Biso   1.000  C
  H12      1.0000 0.88360  0.41920  0.11820  Biso   1.000  H
  C24      1.0000 0.08830  0.40990  0.12730  Biso   1.000  C
  C25      1.0000 0.17700  0.36330  0.06110  Biso   1.000  C
  H13      1.0000 0.27550  0.38070  0.09710  Biso   1.000  H
  C26      1.0000 0.72260  0.28800  0.89780  Biso   1.000  C
  C27      1.0000 0.28970  0.47880  0.30630  Biso   1.000  C
  H14      1.0000 0.32940  0.39350  0.28800  Biso   1.000  H
  H15      1.0000 0.33500  0.54260  0.28200  Biso   1.000  H
  C28      1.0000 0.30640  0.54390  0.44090  Biso   1.000  C
  C29      1.0000 0.32600  0.68650  0.49040  Biso   1.000  C
  H16      1.0000 0.30920  0.73790  0.44220  Biso   1.000  H
  C30      1.0000 0.37100  0.75330  0.61320  Biso   1.000  C
  C31      1.0000 0.39350  0.67620  0.68570  Biso   1.000  C
  H17      1.0000 0.42290  0.72040  0.76740  Biso   1.000  H
  C32      1.0000 0.37130  0.53030  0.63400  Biso   1.000  C
  C33      1.0000 0.32840  0.46580  0.51260  Biso   1.000  C
  H18      1.0000 0.31400  0.36990  0.47850  Biso   1.000  H
  C34      1.0000 0.39080  0.90830  0.66740  Biso   1.000  C
  C35      1.0000 0.39850  0.44830  0.71330  Biso   1.000  C
  O11      1.0000 0.16440  0.15780  0.76390  Biso   1.000  O
  O12      1.0000 0.34550  0.29420  0.91440  Biso   1.000  O
  O13      1.0000 0.66620  0.20860  0.78790  Biso   1.000  O
  O14      1.0000 0.64900  0.34140  0.96000  Biso   1.000  O
  O15      1.0000 0.13540  0.45390  0.25090  Biso   1.000  O
  O16      1.0000 0.36500  0.97630  0.60130  Biso   1.000  O
  O17      1.0000 0.43640  0.96650  0.77830  Biso   1.000  O
  O18      1.0000 0.45550  0.51310  0.82180  Biso   1.000  O
  O19      1.0000 0.36670  0.31870  0.66270  Biso   1.000  O
  C36      1.0000 0.15670  0.52600  0.25090  Biso   1.000  C
  H19      1.0000 0.08590  0.58000  0.27420  Biso   1.000  H
  H20      1.0000 0.23270  0.58710  0.25080  Biso   1.000  H
  O20      1.0000 0.20930  0.45790  0.32540  Biso   1.000  O
  Cd3      1.0000 0.50000  0.50000  0.00000  Biso   1.000  Cd
