data_image0
_cell_length_a       16.829
_cell_length_b       14.358
_cell_length_c       11.977
_cell_angle_alpha    90
_cell_angle_beta     118.15
_cell_angle_gamma    90

_symmetry_space_group_name_H-M    "P 1"
_symmetry_int_tables_number       1

loop_
  _symmetry_equiv_pos_as_xyz
  'x, y, z'

loop_
  _atom_site_label
  _atom_site_occupancy
  _atom_site_fract_x
  _atom_site_fract_y
  _atom_site_fract_z
  _atom_site_thermal_displace_type
  _atom_site_B_iso_or_equiv
  _atom_site_type_symbol
  Mg1      1.0000 0.09742  0.17680  0.90281  Biso   1.000  Mg
  C1       1.0000 0.41943  0.79240  0.81640  Biso   1.000  C
  C2       1.0000 0.39392  0.86510  0.88550  Biso   1.000  C
  C3       1.0000 0.31118  0.91170  0.83110  Biso   1.000  C
  H1       1.0000 0.26840  0.89910  0.74800  Biso   1.000  H
  C4       1.0000 0.29331  0.97693  0.90180  Biso   1.000  C
  C5       1.0000 0.35764  0.99690  0.02630  Biso   1.000  C
  H2       1.0000 0.34570  0.04120  0.07310  Biso   1.000  H
  C6       1.0000 0.44000  0.94990  0.07990  Biso   1.000  C
  C7       1.0000 0.45685  0.88460  0.00910  Biso   1.000  C
  H3       1.0000 0.51160  0.85320  0.04520  Biso   1.000  H
  C8       1.0000 0.20363  0.02616  0.84920  Biso   1.000  C
  C9       1.0000 0.51430  0.99180  0.20530  Biso   1.000  C
  H4       1.0000 0.57410  0.98100  0.21470  Biso   1.000  H
  H5       1.0000 0.50560  0.05800  0.21120  Biso   1.000  H
  O1       1.0000 0.49527  0.75735  0.87980  Biso   1.000  O
  O2       1.0000 0.36655  0.77172  0.70396  Biso   1.000  O
  O3       1.0000 0.14021  0.00020  0.74690  Biso   1.000  O
  O4       1.0000 0.19804  0.09178  0.91540  Biso   1.000  O
  H6       1.0000 0.03410  0.04930  0.73920  Biso   1.000  H
  O5       1.0000 0.50000  0.94141  0.20721  Biso   1.000  O
  Mg2      1.0000 0.59742  0.67680  0.90281  Biso   1.000  Mg
  C10      1.0000 0.91943  0.29240  0.81640  Biso   1.000  C
  C11      1.0000 0.89392  0.36510  0.88550  Biso   1.000  C
  C12      1.0000 0.81118  0.41170  0.83110  Biso   1.000  C
  H7       1.0000 0.76840  0.39910  0.74800  Biso   1.000  H
  C13      1.0000 0.79331  0.47693  0.90180  Biso   1.000  C
  C14      1.0000 0.85764  0.49690  0.02630  Biso   1.000  C
  H8       1.0000 0.84570  0.54120  0.07310  Biso   1.000  H
  C15      1.0000 0.94000  0.44990  0.07990  Biso   1.000  C
  C16      1.0000 0.95685  0.38460  0.00910  Biso   1.000  C
  H9       1.0000 0.01160  0.35320  0.04520  Biso   1.000  H
  C17      1.0000 0.70363  0.52616  0.84920  Biso   1.000  C
  C18      1.0000 0.01430  0.49180  0.20530  Biso   1.000  C
  H10      1.0000 0.07410  0.48100  0.21470  Biso   1.000  H
  H11      1.0000 0.00560  0.55800  0.21120  Biso   1.000  H
  O6       1.0000 0.99527  0.25735  0.87980  Biso   1.000  O
  O7       1.0000 0.86655  0.27172  0.70396  Biso   1.000  O
  O8       1.0000 0.64021  0.50020  0.74690  Biso   1.000  O
  O9       1.0000 0.69804  0.59178  0.91540  Biso   1.000  O
  H12      1.0000 0.53410  0.54930  0.73920  Biso   1.000  H
  O10      1.0000 0.00000  0.44141  0.20721  Biso   1.000  O
  Mg3      1.0000 0.90258  0.17680  0.59719  Biso   1.000  Mg
  C19      1.0000 0.58057  0.79240  0.68360  Biso   1.000  C
  C20      1.0000 0.60608  0.86510  0.61450  Biso   1.000  C
  C21      1.0000 0.68882  0.91170  0.66890  Biso   1.000  C
  H13      1.0000 0.73160  0.89910  0.75200  Biso   1.000  H
  C22      1.0000 0.70669  0.97693  0.59820  Biso   1.000  C
  C23      1.0000 0.64236  0.99690  0.47370  Biso   1.000  C
  H14      1.0000 0.65430  0.04120  0.42690  Biso   1.000  H
  C24      1.0000 0.56000  0.94990  0.42010  Biso   1.000  C
  C25      1.0000 0.54315  0.88460  0.49090  Biso   1.000  C
  H15      1.0000 0.48840  0.85320  0.45480  Biso   1.000  H
  C26      1.0000 0.79637  0.02616  0.65080  Biso   1.000  C
  C27      1.0000 0.48570  0.99180  0.29470  Biso   1.000  C
  H16      1.0000 0.42590  0.98100  0.28530  Biso   1.000  H
  H17      1.0000 0.49440  0.05800  0.28880  Biso   1.000  H
  O11      1.0000 0.50473  0.75735  0.62020  Biso   1.000  O
  O12      1.0000 0.63345  0.77172  0.79604  Biso   1.000  O
  O13      1.0000 0.85979  0.00020  0.75310  Biso   1.000  O
  O14      1.0000 0.80196  0.09178  0.58460  Biso   1.000  O
  H18      1.0000 0.96590  0.04930  0.76080  Biso   1.000  H
  O15      1.0000 0.50000  0.94141  0.29279  Biso   1.000  O
  Mg4      1.0000 0.40258  0.67680  0.59719  Biso   1.000  Mg
  C28      1.0000 0.08057  0.29240  0.68360  Biso   1.000  C
  C29      1.0000 0.10608  0.36510  0.61450  Biso   1.000  C
  C30      1.0000 0.18882  0.41170  0.66890  Biso   1.000  C
  H19      1.0000 0.23160  0.39910  0.75200  Biso   1.000  H
  C31      1.0000 0.20669  0.47693  0.59820  Biso   1.000  C
  C32      1.0000 0.14236  0.49690  0.47370  Biso   1.000  C
  H20      1.0000 0.15430  0.54120  0.42690  Biso   1.000  H
  C33      1.0000 0.06000  0.44990  0.42010  Biso   1.000  C
  C34      1.0000 0.04315  0.38460  0.49090  Biso   1.000  C
  H21      1.0000 0.98840  0.35320  0.45480  Biso   1.000  H
  C35      1.0000 0.29637  0.52616  0.65080  Biso   1.000  C
  C36      1.0000 0.98570  0.49180  0.29470  Biso   1.000  C
  H22      1.0000 0.92590  0.48100  0.28530  Biso   1.000  H
  H23      1.0000 0.99440  0.55800  0.28880  Biso   1.000  H
  O16      1.0000 0.00473  0.25735  0.62020  Biso   1.000  O
  O17      1.0000 0.13345  0.27172  0.79604  Biso   1.000  O
  O18      1.0000 0.35979  0.50020  0.75310  Biso   1.000  O
  O19      1.0000 0.30196  0.59178  0.58460  Biso   1.000  O
  H24      1.0000 0.46590  0.54930  0.76080  Biso   1.000  H
  O20      1.0000 0.00000  0.44141  0.29279  Biso   1.000  O
  O21      1.0000 0.00000  0.08758  0.75000  Biso   1.000  O
  O22      1.0000 0.50000  0.58758  0.75000  Biso   1.000  O
  Mg5      1.0000 0.90258  0.82320  0.09719  Biso   1.000  Mg
  C37      1.0000 0.58057  0.20760  0.18360  Biso   1.000  C
  C38      1.0000 0.60608  0.13490  0.11450  Biso   1.000  C
  C39      1.0000 0.68882  0.08830  0.16890  Biso   1.000  C
  H25      1.0000 0.73160  0.10090  0.25200  Biso   1.000  H
  C40      1.0000 0.70669  0.02307  0.09820  Biso   1.000  C
  C41      1.0000 0.64236  0.00310  0.97370  Biso   1.000  C
  H26      1.0000 0.65430  0.95880  0.92690  Biso   1.000  H
  C42      1.0000 0.56000  0.05010  0.92010  Biso   1.000  C
  C43      1.0000 0.54315  0.11540  0.99090  Biso   1.000  C
  H27      1.0000 0.48840  0.14680  0.95480  Biso   1.000  H
  C44      1.0000 0.79637  0.97384  0.15080  Biso   1.000  C
  C45      1.0000 0.48570  0.00820  0.79470  Biso   1.000  C
  H28      1.0000 0.42590  0.01900  0.78530  Biso   1.000  H
  H29      1.0000 0.49440  0.94200  0.78880  Biso   1.000  H
  O23      1.0000 0.50473  0.24265  0.12020  Biso   1.000  O
  O24      1.0000 0.63345  0.22828  0.29604  Biso   1.000  O
  O25      1.0000 0.85979  0.99980  0.25310  Biso   1.000  O
  O26      1.0000 0.80196  0.90822  0.08460  Biso   1.000  O
  H30      1.0000 0.96590  0.95070  0.26080  Biso   1.000  H
  O27      1.0000 0.50000  0.05859  0.79279  Biso   1.000  O
  Mg6      1.0000 0.40258  0.32320  0.09719  Biso   1.000  Mg
  C46      1.0000 0.08057  0.70760  0.18360  Biso   1.000  C
  C47      1.0000 0.10608  0.63490  0.11450  Biso   1.000  C
  C48      1.0000 0.18882  0.58830  0.16890  Biso   1.000  C
  H31      1.0000 0.23160  0.60090  0.25200  Biso   1.000  H
  C49      1.0000 0.20669  0.52307  0.09820  Biso   1.000  C
  C50      1.0000 0.14236  0.50310  0.97370  Biso   1.000  C
  H32      1.0000 0.15430  0.45880  0.92690  Biso   1.000  H
  C51      1.0000 0.06000  0.55010  0.92010  Biso   1.000  C
  C52      1.0000 0.04315  0.61540  0.99090  Biso   1.000  C
  H33      1.0000 0.98840  0.64680  0.95480  Biso   1.000  H
  C53      1.0000 0.29637  0.47384  0.15080  Biso   1.000  C
  C54      1.0000 0.98570  0.50820  0.79470  Biso   1.000  C
  H34      1.0000 0.92590  0.51900  0.78530  Biso   1.000  H
  H35      1.0000 0.99440  0.44200  0.78880  Biso   1.000  H
  O28      1.0000 0.00473  0.74265  0.12020  Biso   1.000  O
  O29      1.0000 0.13345  0.72828  0.29604  Biso   1.000  O
  O30      1.0000 0.35979  0.49980  0.25310  Biso   1.000  O
  O31      1.0000 0.30196  0.40822  0.08460  Biso   1.000  O
  H36      1.0000 0.46590  0.45070  0.26080  Biso   1.000  H
  O32      1.0000 0.00000  0.55859  0.79279  Biso   1.000  O
  Mg7      1.0000 0.09742  0.82320  0.40281  Biso   1.000  Mg
  C55      1.0000 0.41943  0.20760  0.31640  Biso   1.000  C
  C56      1.0000 0.39392  0.13490  0.38550  Biso   1.000  C
  C57      1.0000 0.31118  0.08830  0.33110  Biso   1.000  C
  H37      1.0000 0.26840  0.10090  0.24800  Biso   1.000  H
  C58      1.0000 0.29331  0.02307  0.40180  Biso   1.000  C
  C59      1.0000 0.35764  0.00310  0.52630  Biso   1.000  C
  H38      1.0000 0.34570  0.95880  0.57310  Biso   1.000  H
  C60      1.0000 0.44000  0.05010  0.57990  Biso   1.000  C
  C61      1.0000 0.45685  0.11540  0.50910  Biso   1.000  C
  H39      1.0000 0.51160  0.14680  0.54520  Biso   1.000  H
  C62      1.0000 0.20363  0.97384  0.34920  Biso   1.000  C
  C63      1.0000 0.51430  0.00820  0.70530  Biso   1.000  C
  H40      1.0000 0.57410  0.01900  0.71470  Biso   1.000  H
  H41      1.0000 0.50560  0.94200  0.71120  Biso   1.000  H
  O33      1.0000 0.49527  0.24265  0.37980  Biso   1.000  O
  O34      1.0000 0.36655  0.22828  0.20396  Biso   1.000  O
  O35      1.0000 0.14021  0.99980  0.24690  Biso   1.000  O
  O36      1.0000 0.19804  0.90822  0.41540  Biso   1.000  O
  H42      1.0000 0.03410  0.95070  0.23920  Biso   1.000  H
  O37      1.0000 0.50000  0.05859  0.70721  Biso   1.000  O
  Mg8      1.0000 0.59742  0.32320  0.40281  Biso   1.000  Mg
  C64      1.0000 0.91943  0.70760  0.31640  Biso   1.000  C
  C65      1.0000 0.89392  0.63490  0.38550  Biso   1.000  C
  C66      1.0000 0.81118  0.58830  0.33110  Biso   1.000  C
  H43      1.0000 0.76840  0.60090  0.24800  Biso   1.000  H
  C67      1.0000 0.79331  0.52307  0.40180  Biso   1.000  C
  C68      1.0000 0.85764  0.50310  0.52630  Biso   1.000  C
  H44      1.0000 0.84570  0.45880  0.57310  Biso   1.000  H
  C69      1.0000 0.94000  0.55010  0.57990  Biso   1.000  C
  C70      1.0000 0.95685  0.61540  0.50910  Biso   1.000  C
  H45      1.0000 0.01160  0.64680  0.54520  Biso   1.000  H
  C71      1.0000 0.70363  0.47384  0.34920  Biso   1.000  C
  C72      1.0000 0.01430  0.50820  0.70530  Biso   1.000  C
  H46      1.0000 0.07410  0.51900  0.71470  Biso   1.000  H
  H47      1.0000 0.00560  0.44200  0.71120  Biso   1.000  H
  O38      1.0000 0.99527  0.74265  0.37980  Biso   1.000  O
  O39      1.0000 0.86655  0.72828  0.20396  Biso   1.000  O
  O40      1.0000 0.64021  0.49980  0.24690  Biso   1.000  O
  O41      1.0000 0.69804  0.40822  0.41540  Biso   1.000  O
  H48      1.0000 0.53410  0.45070  0.23920  Biso   1.000  H
  O42      1.0000 0.00000  0.55859  0.70721  Biso   1.000  O
  O43      1.0000 0.00000  0.91242  0.25000  Biso   1.000  O
  O44      1.0000 0.50000  0.41242  0.25000  Biso   1.000  O
