data_image0
_cell_length_a       18.978
_cell_length_b       18.978
_cell_length_c       22.916
_cell_angle_alpha    90
_cell_angle_beta     90
_cell_angle_gamma    120

_symmetry_space_group_name_H-M    "P 1"
_symmetry_int_tables_number       1

loop_
  _symmetry_equiv_pos_as_xyz
  'x, y, z'

loop_
  _atom_site_label
  _atom_site_occupancy
  _atom_site_fract_x
  _atom_site_fract_y
  _atom_site_fract_z
  _atom_site_thermal_displace_type
  _atom_site_B_iso_or_equiv
  _atom_site_type_symbol
  Mn1      1.0000 0.61450  0.01850  0.00581  Biso   1.000  Mn
  Mn2      1.0000 0.53490  0.15670  0.98029  Biso   1.000  Mn
  Mn3      1.0000 0.58000  0.28020  0.22164  Biso   1.000  Mn
  Mn4      1.0000 0.24940  0.86840  0.84020  Biso   1.000  Mn
  Mn5      1.0000 0.60350  0.68400  0.13330  Biso   1.000  Mn
  O1       1.0000 0.19700  0.92400  0.81500  Biso   1.000  O
  O2       1.0000 0.28900  0.90800  0.74800  Biso   1.000  O
  O3       1.0000 0.55600  0.74100  0.07200  Biso   1.000  O
  O4       1.0000 0.62110  0.97160  0.09640  Biso   1.000  O
  O5       1.0000 0.61080  0.11050  0.94250  Biso   1.000  O
  O6       1.0000 0.52020  0.04500  0.03240  Biso   1.000  O
  O7       1.0000 0.62660  0.29970  0.13340  Biso   1.000  O
  O8       1.0000 0.60570  0.27200  0.92880  Biso   1.000  O
  O9       1.0000 0.72490  0.13000  0.02860  Biso   1.000  O
  O10      1.0000 0.46060  0.97040  0.10960  Biso   1.000  O
  O11      1.0000 0.46470  0.11290  0.89830  Biso   1.000  O
  O12      1.0000 0.50770  0.89010  0.00010  Biso   1.000  O
  O13      1.0000 0.66790  0.17500  0.86100  Biso   1.000  O
  O14      1.0000 0.59550  0.37420  0.89060  Biso   1.000  O
  O15      1.0000 0.39800  0.82330  0.94540  Biso   1.000  O
  O16      1.0000 0.59380  0.20730  0.06370  Biso   1.000  O
  O17      1.0000 0.36700  0.99800  0.85760  Biso   1.000  O
  O18      1.0000 0.24300  0.32400  0.47800  Biso   1.000  O
  O19      1.0000 0.84900  0.18300  0.06500  Biso   1.000  O
  O20      1.0000 0.62200  0.85900  0.13800  Biso   1.000  O
  N1       1.0000 0.60590  0.97160  0.91000  Biso   1.000  N
  N2       1.0000 0.71540  0.98420  0.00340  Biso   1.000  N
  N3       1.0000 0.39760  0.07150  0.00490  Biso   1.000  N
  N4       1.0000 0.49060  0.24600  0.00960  Biso   1.000  N
  C1       1.0000 0.64600  0.92100  0.90760  Biso   1.000  C
  C2       1.0000 0.46340  0.01390  0.06790  Biso   1.000  C
  C3       1.0000 0.64300  0.04200  0.87000  Biso   1.000  C
  C4       1.0000 0.64700  0.92200  0.09880  Biso   1.000  C
  C5       1.0000 0.52000  0.92400  0.89950  Biso   1.000  C
  C6       1.0000 0.59200  0.26600  0.08630  Biso   1.000  C
  C7       1.0000 0.40600  0.20000  0.03680  Biso   1.000  C
  C8       1.0000 0.55000  0.30300  0.05220  Biso   1.000  C
  C9       1.0000 0.47100  0.87600  0.95390  Biso   1.000  C
  C10      1.0000 0.49300  0.28600  0.95630  Biso   1.000  C
  C11      1.0000 0.68700  0.91600  0.04210  Biso   1.000  C
  C12      1.0000 0.72600  0.96400  0.94070  Biso   1.000  C
  C13      1.0000 0.39700  0.03000  0.06150  Biso   1.000  C
  C14      1.0000 0.78700  0.13100  0.04100  Biso   1.000  C
  C15      1.0000 0.65600  0.89900  0.84440  Biso   1.000  C
  C16      1.0000 0.40600  0.04900  0.89890  Biso   1.000  C
  C17      1.0000 0.57100  0.31400  0.92280  Biso   1.000  C
  C18      1.0000 0.35500  0.11900  0.00820  Biso   1.000  C
  C19      1.0000 0.64110  0.11470  0.89290  Biso   1.000  C
  C20      1.0000 0.27200  0.07600  0.03360  Biso   1.000  C
  C21      1.0000 0.28300  0.20600  0.06740  Biso   1.000  C
  C22      1.0000 0.36400  0.00800  0.95920  Biso   1.000  C
  C23      1.0000 0.22900  0.12200  0.03600  Biso   1.000  C
  C24      1.0000 0.36200  0.24800  0.03800  Biso   1.000  C
  C25      1.0000 0.79200  0.05200  0.02700  Biso   1.000  C
  C26      1.0000 0.70100  0.85200  0.84290  Biso   1.000  C
  C27      1.0000 0.77100  0.91600  0.93820  Biso   1.000  C
  C28      1.0000 0.78100  0.90000  0.87200  Biso   1.000  C
  H1       1.0000 0.61100  0.87100  0.92700  Biso   1.000  H
  H2       1.0000 0.69900  0.05600  0.86400  Biso   1.000  H
  H3       1.0000 0.61400  0.02600  0.83400  Biso   1.000  H
  H4       1.0000 0.50000  0.96000  0.88800  Biso   1.000  H
  H5       1.0000 0.51100  0.88600  0.86900  Biso   1.000  H
  H6       1.0000 0.41600  0.19200  0.07700  Biso   1.000  H
  H7       1.0000 0.59100  0.34900  0.03100  Biso   1.000  H
  H8       1.0000 0.52200  0.32000  0.08000  Biso   1.000  H
  H9       1.0000 0.44800  0.24900  0.93200  Biso   1.000  H
  H10      1.0000 0.48800  0.33400  0.96600  Biso   1.000  H
  H11      1.0000 0.64800  0.86900  0.02100  Biso   1.000  H
  H12      1.0000 0.73300  0.91000  0.05300  Biso   1.000  H
  H13      1.0000 0.76000  0.01500  0.92100  Biso   1.000  H
  H14      1.0000 0.34600  0.97900  0.06400  Biso   1.000  H
  H15      1.0000 0.40100  0.06600  0.09400  Biso   1.000  H
  H16      1.0000 0.68600  0.94800  0.82200  Biso   1.000  H
  H17      1.0000 0.60300  0.86600  0.82800  Biso   1.000  H
  H18      1.0000 0.34600  0.12700  0.96800  Biso   1.000  H
  H19      1.0000 0.27800  0.06300  0.07400  Biso   1.000  H
  H20      1.0000 0.24100  0.02700  0.01200  Biso   1.000  H
  H21      1.0000 0.29000  0.19300  0.10800  Biso   1.000  H
  H22      1.0000 0.25700  0.23900  0.06600  Biso   1.000  H
  H23      1.0000 0.37600  0.96500  0.96900  Biso   1.000  H
  H24      1.0000 0.30600  0.98600  0.95700  Biso   1.000  H
  H25      1.0000 0.21700  0.13100  0.99600  Biso   1.000  H
  H26      1.0000 0.17800  0.09000  0.05700  Biso   1.000  H
  H27      1.0000 0.35300  0.25800  0.99800  Biso   1.000  H
  H28      1.0000 0.39500  0.29800  0.05900  Biso   1.000  H
  H29      1.0000 0.80500  0.03400  0.06300  Biso   1.000  H
  H30      1.0000 0.83400  0.06500  0.99900  Biso   1.000  H
  H31      1.0000 0.70900  0.84100  0.80300  Biso   1.000  H
  H32      1.0000 0.66900  0.80000  0.86300  Biso   1.000  H
  H33      1.0000 0.82400  0.94800  0.95700  Biso   1.000  H
  H34      1.0000 0.74100  0.86500  0.95900  Biso   1.000  H
  H35      1.0000 0.81000  0.87000  0.87000  Biso   1.000  H
  H36      1.0000 0.81200  0.95100  0.85100  Biso   1.000  H
  Mn6      1.0000 0.98150  0.59600  0.67248  Biso   1.000  Mn
  Mn7      1.0000 0.84330  0.37820  0.64696  Biso   1.000  Mn
  Mn8      1.0000 0.71980  0.29980  0.88831  Biso   1.000  Mn
  Mn9      1.0000 0.13160  0.38100  0.50687  Biso   1.000  Mn
  Mn10     1.0000 0.31600  0.91950  0.79997  Biso   1.000  Mn
  O21      1.0000 0.07600  0.27300  0.48167  Biso   1.000  O
  O22      1.0000 0.09200  0.38100  0.41467  Biso   1.000  O
  O23      1.0000 0.25900  0.81500  0.73867  Biso   1.000  O
  O24      1.0000 0.02840  0.64950  0.76307  Biso   1.000  O
  O25      1.0000 0.88950  0.50030  0.60917  Biso   1.000  O
  O26      1.0000 0.95500  0.47520  0.69907  Biso   1.000  O
  O27      1.0000 0.70030  0.32690  0.80007  Biso   1.000  O
  O28      1.0000 0.72800  0.33370  0.59547  Biso   1.000  O
  O29      1.0000 0.87000  0.59490  0.69527  Biso   1.000  O
  O30      1.0000 0.02960  0.49020  0.77627  Biso   1.000  O
  O31      1.0000 0.88710  0.35180  0.56497  Biso   1.000  O
  O32      1.0000 0.10990  0.61760  0.66677  Biso   1.000  O
  O33      1.0000 0.82500  0.49290  0.52767  Biso   1.000  O
  O34      1.0000 0.62580  0.22130  0.55727  Biso   1.000  O
  O35      1.0000 0.17670  0.57470  0.61207  Biso   1.000  O
  O36      1.0000 0.79270  0.38650  0.73037  Biso   1.000  O
  O37      1.0000 0.00200  0.36900  0.52427  Biso   1.000  O
  O38      1.0000 0.67600  0.91900  0.14467  Biso   1.000  O
  O39      1.0000 0.81700  0.66600  0.73167  Biso   1.000  O
  O40      1.0000 0.14100  0.76300  0.80467  Biso   1.000  O
  N5       1.0000 0.02840  0.63430  0.57667  Biso   1.000  N
  N6       1.0000 0.01580  0.73120  0.67007  Biso   1.000  N
  N7       1.0000 0.92850  0.32610  0.67157  Biso   1.000  N
  N8       1.0000 0.75400  0.24460  0.67627  Biso   1.000  N
  C29      1.0000 0.07900  0.72500  0.57427  Biso   1.000  C
  C30      1.0000 0.98610  0.44950  0.73457  Biso   1.000  C
  C31      1.0000 0.95800  0.60100  0.53667  Biso   1.000  C
  C32      1.0000 0.07800  0.72500  0.76547  Biso   1.000  C
  C33      1.0000 0.07600  0.59600  0.56617  Biso   1.000  C
  C34      1.0000 0.73400  0.32600  0.75297  Biso   1.000  C
  C35      1.0000 0.80000  0.20600  0.70347  Biso   1.000  C
  C36      1.0000 0.69700  0.24700  0.71887  Biso   1.000  C
  C37      1.0000 0.12400  0.59500  0.62057  Biso   1.000  C
  C38      1.0000 0.71400  0.20700  0.62297  Biso   1.000  C
  C39      1.0000 0.08400  0.77100  0.70877  Biso   1.000  C
  C40      1.0000 0.03600  0.76200  0.60737  Biso   1.000  C
  C41      1.0000 0.97000  0.36700  0.72817  Biso   1.000  C
  C42      1.0000 0.86900  0.65600  0.70767  Biso   1.000  C
  C43      1.0000 0.10100  0.75700  0.51107  Biso   1.000  C
  C44      1.0000 0.95100  0.35700  0.56557  Biso   1.000  C
  C45      1.0000 0.68600  0.25700  0.58947  Biso   1.000  C
  C46      1.0000 0.88100  0.23600  0.67487  Biso   1.000  C
  C47      1.0000 0.88530  0.52640  0.55957  Biso   1.000  C
  C48      1.0000 0.92400  0.19600  0.70027  Biso   1.000  C
  C49      1.0000 0.79400  0.07700  0.73407  Biso   1.000  C
  C50      1.0000 0.99200  0.35600  0.62587  Biso   1.000  C
  C51      1.0000 0.87800  0.10700  0.70267  Biso   1.000  C
  C52      1.0000 0.75200  0.11400  0.70467  Biso   1.000  C
  C53      1.0000 0.94800  0.74000  0.69367  Biso   1.000  C
  C54      1.0000 0.14800  0.84900  0.50957  Biso   1.000  C
  C55      1.0000 0.08400  0.85500  0.60487  Biso   1.000  C
  C56      1.0000 0.10000  0.88100  0.53867  Biso   1.000  C
  H37      1.0000 0.12900  0.74000  0.59367  Biso   1.000  H
  H38      1.0000 0.94400  0.64300  0.53067  Biso   1.000  H
  H39      1.0000 0.97400  0.58800  0.50067  Biso   1.000  H
  H40      1.0000 0.04000  0.54000  0.55467  Biso   1.000  H
  H41      1.0000 0.11400  0.62500  0.53567  Biso   1.000  H
  H42      1.0000 0.80800  0.22400  0.74367  Biso   1.000  H
  H43      1.0000 0.65100  0.24200  0.69767  Biso   1.000  H
  H44      1.0000 0.68000  0.20200  0.74667  Biso   1.000  H
  H45      1.0000 0.75100  0.19900  0.59867  Biso   1.000  H
  H46      1.0000 0.66600  0.15400  0.63267  Biso   1.000  H
  H47      1.0000 0.13100  0.77900  0.68767  Biso   1.000  H
  H48      1.0000 0.09000  0.82300  0.71967  Biso   1.000  H
  H49      1.0000 0.98500  0.74500  0.58767  Biso   1.000  H
  H50      1.0000 0.02100  0.36700  0.73067  Biso   1.000  H
  H51      1.0000 0.93400  0.33500  0.76067  Biso   1.000  H
  H52      1.0000 0.05200  0.73800  0.48867  Biso   1.000  H
  H53      1.0000 0.13400  0.73700  0.49467  Biso   1.000  H
  H54      1.0000 0.87300  0.21900  0.63467  Biso   1.000  H
  H55      1.0000 0.93700  0.21500  0.74067  Biso   1.000  H
  H56      1.0000 0.97300  0.21400  0.67867  Biso   1.000  H
  H57      1.0000 0.80700  0.09700  0.77467  Biso   1.000  H
  H58      1.0000 0.76100  0.01800  0.73267  Biso   1.000  H
  H59      1.0000 0.03500  0.41100  0.63567  Biso   1.000  H
  H60      1.0000 0.01400  0.32000  0.62367  Biso   1.000  H
  H61      1.0000 0.86900  0.08600  0.66267  Biso   1.000  H
  H62      1.0000 0.91000  0.08800  0.72367  Biso   1.000  H
  H63      1.0000 0.74200  0.09500  0.66467  Biso   1.000  H
  H64      1.0000 0.70200  0.09700  0.72567  Biso   1.000  H
  H65      1.0000 0.96600  0.77100  0.72967  Biso   1.000  H
  H66      1.0000 0.93500  0.76900  0.66567  Biso   1.000  H
  H67      1.0000 0.15900  0.86800  0.46967  Biso   1.000  H
  H68      1.0000 0.20000  0.86900  0.52967  Biso   1.000  H
  H69      1.0000 0.05200  0.87600  0.62367  Biso   1.000  H
  H70      1.0000 0.13500  0.87600  0.62567  Biso   1.000  H
  H71      1.0000 0.13000  0.94000  0.53667  Biso   1.000  H
  H72      1.0000 0.04900  0.86100  0.51767  Biso   1.000  H
  Mn11     1.0000 0.40400  0.38550  0.33914  Biso   1.000  Mn
  Mn12     1.0000 0.62180  0.46510  0.31362  Biso   1.000  Mn
  Mn13     1.0000 0.70020  0.42000  0.55497  Biso   1.000  Mn
  Mn14     1.0000 0.61900  0.75060  0.17353  Biso   1.000  Mn
  Mn15     1.0000 0.08050  0.39650  0.46663  Biso   1.000  Mn
  O41      1.0000 0.72700  0.80300  0.14833  Biso   1.000  O
  O42      1.0000 0.61900  0.71100  0.08133  Biso   1.000  O
  O43      1.0000 0.18500  0.44400  0.40533  Biso   1.000  O
  O44      1.0000 0.35050  0.37890  0.42973  Biso   1.000  O
  O45      1.0000 0.49970  0.38920  0.27583  Biso   1.000  O
  O46      1.0000 0.52480  0.47980  0.36573  Biso   1.000  O
  O47      1.0000 0.67310  0.37340  0.46673  Biso   1.000  O
  O48      1.0000 0.66630  0.39430  0.26213  Biso   1.000  O
  O49      1.0000 0.40510  0.27510  0.36193  Biso   1.000  O
  O50      1.0000 0.50980  0.53940  0.44293  Biso   1.000  O
  O51      1.0000 0.64820  0.53530  0.23163  Biso   1.000  O
  O52      1.0000 0.38240  0.49230  0.33343  Biso   1.000  O
  O53      1.0000 0.50710  0.33210  0.19433  Biso   1.000  O
  O54      1.0000 0.77870  0.40450  0.22393  Biso   1.000  O
  O55      1.0000 0.42530  0.60200  0.27873  Biso   1.000  O
  O56      1.0000 0.61350  0.40620  0.39703  Biso   1.000  O
  O57      1.0000 0.63100  0.63300  0.19093  Biso   1.000  O
  O58      1.0000 0.08100  0.75700  0.81133  Biso   1.000  O
  O59      1.0000 0.33400  0.15100  0.39833  Biso   1.000  O
  O60      1.0000 0.23700  0.37800  0.47133  Biso   1.000  O
  N9       1.0000 0.36570  0.39410  0.24333  Biso   1.000  N
  N10      1.0000 0.26880  0.28460  0.33673  Biso   1.000  N
  N11      1.0000 0.67390  0.60240  0.33823  Biso   1.000  N
  N12      1.0000 0.75540  0.50940  0.34293  Biso   1.000  N
  C57      1.0000 0.27500  0.35400  0.24093  Biso   1.000  C
  C58      1.0000 0.55050  0.53660  0.40123  Biso   1.000  C
  C59      1.0000 0.39900  0.35700  0.20333  Biso   1.000  C
  C60      1.0000 0.27500  0.35300  0.43213  Biso   1.000  C
  C61      1.0000 0.40400  0.48000  0.23283  Biso   1.000  C
  C62      1.0000 0.67400  0.40800  0.41963  Biso   1.000  C
  C63      1.0000 0.79400  0.59400  0.37013  Biso   1.000  C
  C64      1.0000 0.75300  0.45000  0.38553  Biso   1.000  C
  C65      1.0000 0.40500  0.52900  0.28723  Biso   1.000  C
  C66      1.0000 0.79300  0.50700  0.28963  Biso   1.000  C
  C67      1.0000 0.22900  0.31300  0.37543  Biso   1.000  C
  C68      1.0000 0.23800  0.27400  0.27403  Biso   1.000  C
  C69      1.0000 0.63300  0.60300  0.39483  Biso   1.000  C
  C70      1.0000 0.34400  0.21300  0.37433  Biso   1.000  C
  C71      1.0000 0.24300  0.34400  0.17773  Biso   1.000  C
  C72      1.0000 0.64300  0.59400  0.23223  Biso   1.000  C
  C73      1.0000 0.74300  0.42900  0.25613  Biso   1.000  C
  C74      1.0000 0.76400  0.64500  0.34153  Biso   1.000  C
  C75      1.0000 0.47360  0.35890  0.22623  Biso   1.000  C
  C76      1.0000 0.80400  0.72800  0.36693  Biso   1.000  C
  C77      1.0000 0.92300  0.71700  0.40073  Biso   1.000  C
  C78      1.0000 0.64400  0.63600  0.29253  Biso   1.000  C
  C79      1.0000 0.89300  0.77100  0.36933  Biso   1.000  C
  C80      1.0000 0.88600  0.63800  0.37133  Biso   1.000  C
  C81      1.0000 0.26000  0.20800  0.36033  Biso   1.000  C
  C82      1.0000 0.15100  0.29900  0.17623  Biso   1.000  C
  C83      1.0000 0.14500  0.22900  0.27153  Biso   1.000  C
  C84      1.0000 0.11900  0.21900  0.20533  Biso   1.000  C
  H73      1.0000 0.26000  0.38900  0.26033  Biso   1.000  H
  H74      1.0000 0.35700  0.30100  0.19733  Biso   1.000  H
  H75      1.0000 0.41200  0.38600  0.16733  Biso   1.000  H
  H76      1.0000 0.46000  0.50000  0.22133  Biso   1.000  H
  H77      1.0000 0.37500  0.48900  0.20233  Biso   1.000  H
  H78      1.0000 0.77600  0.58400  0.41033  Biso   1.000  H
  H79      1.0000 0.75800  0.40900  0.36433  Biso   1.000  H
  H80      1.0000 0.79800  0.47800  0.41333  Biso   1.000  H
  H81      1.0000 0.80100  0.55200  0.26533  Biso   1.000  H
  H82      1.0000 0.84600  0.51200  0.29933  Biso   1.000  H
  H83      1.0000 0.22100  0.35200  0.35433  Biso   1.000  H
  H84      1.0000 0.17700  0.26700  0.38633  Biso   1.000  H
  H85      1.0000 0.25500  0.24000  0.25433  Biso   1.000  H
  H86      1.0000 0.63300  0.65400  0.39733  Biso   1.000  H
  H87      1.0000 0.66500  0.59900  0.42733  Biso   1.000  H
  H88      1.0000 0.26200  0.31400  0.15533  Biso   1.000  H
  H89      1.0000 0.26300  0.39700  0.16133  Biso   1.000  H
  H90      1.0000 0.78100  0.65400  0.30133  Biso   1.000  H
  H91      1.0000 0.78500  0.72200  0.40733  Biso   1.000  H
  H92      1.0000 0.78600  0.75900  0.34533  Biso   1.000  H
  H93      1.0000 0.90300  0.71000  0.44133  Biso   1.000  H
  H94      1.0000 0.98200  0.74300  0.39933  Biso   1.000  H
  H95      1.0000 0.58900  0.62400  0.30233  Biso   1.000  H
  H96      1.0000 0.68000  0.69400  0.29033  Biso   1.000  H
  H97      1.0000 0.91400  0.78300  0.32933  Biso   1.000  H
  H98      1.0000 0.91200  0.82200  0.39033  Biso   1.000  H
  H99      1.0000 0.90500  0.64700  0.33133  Biso   1.000  H
  H100     1.0000 0.90300  0.60500  0.39233  Biso   1.000  H
  H101     1.0000 0.22900  0.19500  0.39633  Biso   1.000  H
  H102     1.0000 0.23100  0.16600  0.33233  Biso   1.000  H
  H103     1.0000 0.13200  0.29100  0.13633  Biso   1.000  H
  H104     1.0000 0.13100  0.33100  0.19633  Biso   1.000  H
  H105     1.0000 0.12400  0.17600  0.29033  Biso   1.000  H
  H106     1.0000 0.12400  0.25900  0.29233  Biso   1.000  H
  H107     1.0000 0.06000  0.19000  0.20333  Biso   1.000  H
  H108     1.0000 0.13900  0.18800  0.18433  Biso   1.000  H
  Mn16     1.0000 0.01850  0.61450  0.99419  Biso   1.000  Mn
  Mn17     1.0000 0.15670  0.53490  0.01971  Biso   1.000  Mn
  Mn18     1.0000 0.28020  0.58000  0.77836  Biso   1.000  Mn
  Mn19     1.0000 0.86840  0.24940  0.15980  Biso   1.000  Mn
  Mn20     1.0000 0.68400  0.60350  0.86670  Biso   1.000  Mn
  O61      1.0000 0.92400  0.19700  0.18500  Biso   1.000  O
  O62      1.0000 0.90800  0.28900  0.25200  Biso   1.000  O
  O63      1.0000 0.74100  0.55600  0.92800  Biso   1.000  O
  O64      1.0000 0.97160  0.62110  0.90360  Biso   1.000  O
  O65      1.0000 0.11050  0.61080  0.05750  Biso   1.000  O
  O66      1.0000 0.04500  0.52020  0.96760  Biso   1.000  O
  O67      1.0000 0.29970  0.62660  0.86660  Biso   1.000  O
  O68      1.0000 0.27200  0.60570  0.07120  Biso   1.000  O
  O69      1.0000 0.13000  0.72490  0.97140  Biso   1.000  O
  O70      1.0000 0.97040  0.46060  0.89040  Biso   1.000  O
  O71      1.0000 0.11290  0.46470  0.10170  Biso   1.000  O
  O72      1.0000 0.89010  0.50770  0.99990  Biso   1.000  O
  O73      1.0000 0.17500  0.66790  0.13900  Biso   1.000  O
  O74      1.0000 0.37420  0.59550  0.10940  Biso   1.000  O
  O75      1.0000 0.82330  0.39800  0.05460  Biso   1.000  O
  O76      1.0000 0.20730  0.59380  0.93630  Biso   1.000  O
  O77      1.0000 0.99800  0.36700  0.14240  Biso   1.000  O
  O78      1.0000 0.32400  0.24300  0.52200  Biso   1.000  O
  O79      1.0000 0.18300  0.84900  0.93500  Biso   1.000  O
  O80      1.0000 0.85900  0.62200  0.86200  Biso   1.000  O
  N13      1.0000 0.97160  0.60590  0.09000  Biso   1.000  N
  N14      1.0000 0.98420  0.71540  0.99660  Biso   1.000  N
  N15      1.0000 0.07150  0.39760  0.99510  Biso   1.000  N
  N16      1.0000 0.24600  0.49060  0.99040  Biso   1.000  N
  C85      1.0000 0.92100  0.64600  0.09240  Biso   1.000  C
  C86      1.0000 0.01390  0.46340  0.93210  Biso   1.000  C
  C87      1.0000 0.04200  0.64300  0.13000  Biso   1.000  C
  C88      1.0000 0.92200  0.64700  0.90120  Biso   1.000  C
  C89      1.0000 0.92400  0.52000  0.10050  Biso   1.000  C
  C90      1.0000 0.26600  0.59200  0.91370  Biso   1.000  C
  C91      1.0000 0.20000  0.40600  0.96320  Biso   1.000  C
  C92      1.0000 0.30300  0.55000  0.94780  Biso   1.000  C
  C93      1.0000 0.87600  0.47100  0.04610  Biso   1.000  C
  C94      1.0000 0.28600  0.49300  0.04370  Biso   1.000  C
  C95      1.0000 0.91600  0.68700  0.95790  Biso   1.000  C
  C96      1.0000 0.96400  0.72600  0.05930  Biso   1.000  C
  C97      1.0000 0.03000  0.39700  0.93850  Biso   1.000  C
  C98      1.0000 0.13100  0.78700  0.95900  Biso   1.000  C
  C99      1.0000 0.89900  0.65600  0.15560  Biso   1.000  C
  C100     1.0000 0.04900  0.40600  0.10110  Biso   1.000  C
  C101     1.0000 0.31400  0.57100  0.07720  Biso   1.000  C
  C102     1.0000 0.11900  0.35500  0.99180  Biso   1.000  C
  C103     1.0000 0.11470  0.64110  0.10710  Biso   1.000  C
  C104     1.0000 0.07600  0.27200  0.96640  Biso   1.000  C
  C105     1.0000 0.20600  0.28300  0.93260  Biso   1.000  C
  C106     1.0000 0.00800  0.36400  0.04080  Biso   1.000  C
  C107     1.0000 0.12200  0.22900  0.96400  Biso   1.000  C
  C108     1.0000 0.24800  0.36200  0.96200  Biso   1.000  C
  C109     1.0000 0.05200  0.79200  0.97300  Biso   1.000  C
  C110     1.0000 0.85200  0.70100  0.15710  Biso   1.000  C
  C111     1.0000 0.91600  0.77100  0.06180  Biso   1.000  C
  C112     1.0000 0.90000  0.78100  0.12800  Biso   1.000  C
  H109     1.0000 0.87100  0.61100  0.07300  Biso   1.000  H
  H110     1.0000 0.05600  0.69900  0.13600  Biso   1.000  H
  H111     1.0000 0.02600  0.61400  0.16600  Biso   1.000  H
  H112     1.0000 0.96000  0.50000  0.11200  Biso   1.000  H
  H113     1.0000 0.88600  0.51100  0.13100  Biso   1.000  H
  H114     1.0000 0.19200  0.41600  0.92300  Biso   1.000  H
  H115     1.0000 0.34900  0.59100  0.96900  Biso   1.000  H
  H116     1.0000 0.32000  0.52200  0.92000  Biso   1.000  H
  H117     1.0000 0.24900  0.44800  0.06800  Biso   1.000  H
  H118     1.0000 0.33400  0.48800  0.03400  Biso   1.000  H
  H119     1.0000 0.86900  0.64800  0.97900  Biso   1.000  H
  H120     1.0000 0.91000  0.73300  0.94700  Biso   1.000  H
  H121     1.0000 0.01500  0.76000  0.07900  Biso   1.000  H
  H122     1.0000 0.97900  0.34600  0.93600  Biso   1.000  H
  H123     1.0000 0.06600  0.40100  0.90600  Biso   1.000  H
  H124     1.0000 0.94800  0.68600  0.17800  Biso   1.000  H
  H125     1.0000 0.86600  0.60300  0.17200  Biso   1.000  H
  H126     1.0000 0.12700  0.34600  0.03200  Biso   1.000  H
  H127     1.0000 0.06300  0.27800  0.92600  Biso   1.000  H
  H128     1.0000 0.02700  0.24100  0.98800  Biso   1.000  H
  H129     1.0000 0.19300  0.29000  0.89200  Biso   1.000  H
  H130     1.0000 0.23900  0.25700  0.93400  Biso   1.000  H
  H131     1.0000 0.96500  0.37600  0.03100  Biso   1.000  H
  H132     1.0000 0.98600  0.30600  0.04300  Biso   1.000  H
  H133     1.0000 0.13100  0.21700  0.00400  Biso   1.000  H
  H134     1.0000 0.09000  0.17800  0.94300  Biso   1.000  H
  H135     1.0000 0.25800  0.35300  0.00200  Biso   1.000  H
  H136     1.0000 0.29800  0.39500  0.94100  Biso   1.000  H
  H137     1.0000 0.03400  0.80500  0.93700  Biso   1.000  H
  H138     1.0000 0.06500  0.83400  0.00100  Biso   1.000  H
  H139     1.0000 0.84100  0.70900  0.19700  Biso   1.000  H
  H140     1.0000 0.80000  0.66900  0.13700  Biso   1.000  H
  H141     1.0000 0.94800  0.82400  0.04300  Biso   1.000  H
  H142     1.0000 0.86500  0.74100  0.04100  Biso   1.000  H
  H143     1.0000 0.87000  0.81000  0.13000  Biso   1.000  H
  H144     1.0000 0.95100  0.81200  0.14900  Biso   1.000  H
  Mn21     1.0000 0.59600  0.98150  0.32752  Biso   1.000  Mn
  Mn22     1.0000 0.37820  0.84330  0.35304  Biso   1.000  Mn
  Mn23     1.0000 0.29980  0.71980  0.11169  Biso   1.000  Mn
  Mn24     1.0000 0.38100  0.13160  0.49313  Biso   1.000  Mn
  Mn25     1.0000 0.91950  0.31600  0.20003  Biso   1.000  Mn
  O81      1.0000 0.27300  0.07600  0.51833  Biso   1.000  O
  O82      1.0000 0.38100  0.09200  0.58533  Biso   1.000  O
  O83      1.0000 0.81500  0.25900  0.26133  Biso   1.000  O
  O84      1.0000 0.64950  0.02840  0.23693  Biso   1.000  O
  O85      1.0000 0.50030  0.88950  0.39083  Biso   1.000  O
  O86      1.0000 0.47520  0.95500  0.30093  Biso   1.000  O
  O87      1.0000 0.32690  0.70030  0.19993  Biso   1.000  O
  O88      1.0000 0.33370  0.72800  0.40453  Biso   1.000  O
  O89      1.0000 0.59490  0.87000  0.30473  Biso   1.000  O
  O90      1.0000 0.49020  0.02960  0.22373  Biso   1.000  O
  O91      1.0000 0.35180  0.88710  0.43503  Biso   1.000  O
  O92      1.0000 0.61760  0.10990  0.33323  Biso   1.000  O
  O93      1.0000 0.49290  0.82500  0.47233  Biso   1.000  O
  O94      1.0000 0.22130  0.62580  0.44273  Biso   1.000  O
  O95      1.0000 0.57470  0.17670  0.38793  Biso   1.000  O
  O96      1.0000 0.38650  0.79270  0.26963  Biso   1.000  O
  O97      1.0000 0.36900  0.00200  0.47573  Biso   1.000  O
  O98      1.0000 0.91900  0.67600  0.85533  Biso   1.000  O
  O99      1.0000 0.66600  0.81700  0.26833  Biso   1.000  O
  O100     1.0000 0.76300  0.14100  0.19533  Biso   1.000  O
  N17      1.0000 0.63430  0.02840  0.42333  Biso   1.000  N
  N18      1.0000 0.73120  0.01580  0.32993  Biso   1.000  N
  N19      1.0000 0.32610  0.92850  0.32843  Biso   1.000  N
  N20      1.0000 0.24460  0.75400  0.32373  Biso   1.000  N
  C113     1.0000 0.72500  0.07900  0.42573  Biso   1.000  C
  C114     1.0000 0.44950  0.98610  0.26543  Biso   1.000  C
  C115     1.0000 0.60100  0.95800  0.46333  Biso   1.000  C
  C116     1.0000 0.72500  0.07800  0.23453  Biso   1.000  C
  C117     1.0000 0.59600  0.07600  0.43383  Biso   1.000  C
  C118     1.0000 0.32600  0.73400  0.24703  Biso   1.000  C
  C119     1.0000 0.20600  0.80000  0.29653  Biso   1.000  C
  C120     1.0000 0.24700  0.69700  0.28113  Biso   1.000  C
  C121     1.0000 0.59500  0.12400  0.37943  Biso   1.000  C
  C122     1.0000 0.20700  0.71400  0.37703  Biso   1.000  C
  C123     1.0000 0.77100  0.08400  0.29123  Biso   1.000  C
  C124     1.0000 0.76200  0.03600  0.39263  Biso   1.000  C
  C125     1.0000 0.36700  0.97000  0.27183  Biso   1.000  C
  C126     1.0000 0.65600  0.86900  0.29233  Biso   1.000  C
  C127     1.0000 0.75700  0.10100  0.48893  Biso   1.000  C
  C128     1.0000 0.35700  0.95100  0.43443  Biso   1.000  C
  C129     1.0000 0.25700  0.68600  0.41053  Biso   1.000  C
  C130     1.0000 0.23600  0.88100  0.32513  Biso   1.000  C
  C131     1.0000 0.52640  0.88530  0.44043  Biso   1.000  C
  C132     1.0000 0.19600  0.92400  0.29973  Biso   1.000  C
  C133     1.0000 0.07700  0.79400  0.26593  Biso   1.000  C
  C134     1.0000 0.35600  0.99200  0.37413  Biso   1.000  C
  C135     1.0000 0.10700  0.87800  0.29733  Biso   1.000  C
  C136     1.0000 0.11400  0.75200  0.29533  Biso   1.000  C
  C137     1.0000 0.74000  0.94800  0.30633  Biso   1.000  C
  C138     1.0000 0.84900  0.14800  0.49043  Biso   1.000  C
  C139     1.0000 0.85500  0.08400  0.39513  Biso   1.000  C
  C140     1.0000 0.88100  0.10000  0.46133  Biso   1.000  C
  H145     1.0000 0.74000  0.12900  0.40633  Biso   1.000  H
  H146     1.0000 0.64300  0.94400  0.46933  Biso   1.000  H
  H147     1.0000 0.58800  0.97400  0.49933  Biso   1.000  H
  H148     1.0000 0.54000  0.04000  0.44533  Biso   1.000  H
  H149     1.0000 0.62500  0.11400  0.46433  Biso   1.000  H
  H150     1.0000 0.22400  0.80800  0.25633  Biso   1.000  H
  H151     1.0000 0.24200  0.65100  0.30233  Biso   1.000  H
  H152     1.0000 0.20200  0.68000  0.25333  Biso   1.000  H
  H153     1.0000 0.19900  0.75100  0.40133  Biso   1.000  H
  H154     1.0000 0.15400  0.66600  0.36733  Biso   1.000  H
  H155     1.0000 0.77900  0.13100  0.31233  Biso   1.000  H
  H156     1.0000 0.82300  0.09000  0.28033  Biso   1.000  H
  H157     1.0000 0.74500  0.98500  0.41233  Biso   1.000  H
  H158     1.0000 0.36700  0.02100  0.26933  Biso   1.000  H
  H159     1.0000 0.33500  0.93400  0.23933  Biso   1.000  H
  H160     1.0000 0.73800  0.05200  0.51133  Biso   1.000  H
  H161     1.0000 0.73700  0.13400  0.50533  Biso   1.000  H
  H162     1.0000 0.21900  0.87300  0.36533  Biso   1.000  H
  H163     1.0000 0.21500  0.93700  0.25933  Biso   1.000  H
  H164     1.0000 0.21400  0.97300  0.32133  Biso   1.000  H
  H165     1.0000 0.09700  0.80700  0.22533  Biso   1.000  H
  H166     1.0000 0.01800  0.76100  0.26733  Biso   1.000  H
  H167     1.0000 0.41100  0.03500  0.36433  Biso   1.000  H
  H168     1.0000 0.32000  0.01400  0.37633  Biso   1.000  H
  H169     1.0000 0.08600  0.86900  0.33733  Biso   1.000  H
  H170     1.0000 0.08800  0.91000  0.27633  Biso   1.000  H
  H171     1.0000 0.09500  0.74200  0.33533  Biso   1.000  H
  H172     1.0000 0.09700  0.70200  0.27433  Biso   1.000  H
  H173     1.0000 0.77100  0.96600  0.27033  Biso   1.000  H
  H174     1.0000 0.76900  0.93500  0.33433  Biso   1.000  H
  H175     1.0000 0.86800  0.15900  0.53033  Biso   1.000  H
  H176     1.0000 0.86900  0.20000  0.47033  Biso   1.000  H
  H177     1.0000 0.87600  0.05200  0.37633  Biso   1.000  H
  H178     1.0000 0.87600  0.13500  0.37433  Biso   1.000  H
  H179     1.0000 0.94000  0.13000  0.46333  Biso   1.000  H
  H180     1.0000 0.86100  0.04900  0.48233  Biso   1.000  H
  Mn26     1.0000 0.38550  0.40400  0.66086  Biso   1.000  Mn
  Mn27     1.0000 0.46510  0.62180  0.68638  Biso   1.000  Mn
  Mn28     1.0000 0.42000  0.70020  0.44503  Biso   1.000  Mn
  Mn29     1.0000 0.75060  0.61900  0.82647  Biso   1.000  Mn
  Mn30     1.0000 0.39650  0.08050  0.53337  Biso   1.000  Mn
  O101     1.0000 0.80300  0.72700  0.85167  Biso   1.000  O
  O102     1.0000 0.71100  0.61900  0.91867  Biso   1.000  O
  O103     1.0000 0.44400  0.18500  0.59467  Biso   1.000  O
  O104     1.0000 0.37890  0.35050  0.57027  Biso   1.000  O
  O105     1.0000 0.38920  0.49970  0.72417  Biso   1.000  O
  O106     1.0000 0.47980  0.52480  0.63427  Biso   1.000  O
  O107     1.0000 0.37340  0.67310  0.53327  Biso   1.000  O
  O108     1.0000 0.39430  0.66630  0.73787  Biso   1.000  O
  O109     1.0000 0.27510  0.40510  0.63807  Biso   1.000  O
  O110     1.0000 0.53940  0.50980  0.55707  Biso   1.000  O
  O111     1.0000 0.53530  0.64820  0.76837  Biso   1.000  O
  O112     1.0000 0.49230  0.38240  0.66657  Biso   1.000  O
  O113     1.0000 0.33210  0.50710  0.80567  Biso   1.000  O
  O114     1.0000 0.40450  0.77870  0.77607  Biso   1.000  O
  O115     1.0000 0.60200  0.42530  0.72127  Biso   1.000  O
  O116     1.0000 0.40620  0.61350  0.60297  Biso   1.000  O
  O117     1.0000 0.63300  0.63100  0.80907  Biso   1.000  O
  O118     1.0000 0.75700  0.08100  0.18867  Biso   1.000  O
  O119     1.0000 0.15100  0.33400  0.60167  Biso   1.000  O
  O120     1.0000 0.37800  0.23700  0.52867  Biso   1.000  O
  N21      1.0000 0.39410  0.36570  0.75667  Biso   1.000  N
  N22      1.0000 0.28460  0.26880  0.66327  Biso   1.000  N
  N23      1.0000 0.60240  0.67390  0.66177  Biso   1.000  N
  N24      1.0000 0.50940  0.75540  0.65707  Biso   1.000  N
  C141     1.0000 0.35400  0.27500  0.75907  Biso   1.000  C
  C142     1.0000 0.53660  0.55050  0.59877  Biso   1.000  C
  C143     1.0000 0.35700  0.39900  0.79667  Biso   1.000  C
  C144     1.0000 0.35300  0.27500  0.56787  Biso   1.000  C
  C145     1.0000 0.48000  0.40400  0.76717  Biso   1.000  C
  C146     1.0000 0.40800  0.67400  0.58037  Biso   1.000  C
  C147     1.0000 0.59400  0.79400  0.62987  Biso   1.000  C
  C148     1.0000 0.45000  0.75300  0.61447  Biso   1.000  C
  C149     1.0000 0.52900  0.40500  0.71277  Biso   1.000  C
  C150     1.0000 0.50700  0.79300  0.71037  Biso   1.000  C
  C151     1.0000 0.31300  0.22900  0.62457  Biso   1.000  C
  C152     1.0000 0.27400  0.23800  0.72597  Biso   1.000  C
  C153     1.0000 0.60300  0.63300  0.60517  Biso   1.000  C
  C154     1.0000 0.21300  0.34400  0.62567  Biso   1.000  C
  C155     1.0000 0.34400  0.24300  0.82227  Biso   1.000  C
  C156     1.0000 0.59400  0.64300  0.76777  Biso   1.000  C
  C157     1.0000 0.42900  0.74300  0.74387  Biso   1.000  C
  C158     1.0000 0.64500  0.76400  0.65847  Biso   1.000  C
  C159     1.0000 0.35890  0.47360  0.77377  Biso   1.000  C
  C160     1.0000 0.72800  0.80400  0.63307  Biso   1.000  C
  C161     1.0000 0.71700  0.92300  0.59927  Biso   1.000  C
  C162     1.0000 0.63600  0.64400  0.70747  Biso   1.000  C
  C163     1.0000 0.77100  0.89300  0.63067  Biso   1.000  C
  C164     1.0000 0.63800  0.88600  0.62867  Biso   1.000  C
  C165     1.0000 0.20800  0.26000  0.63967  Biso   1.000  C
  C166     1.0000 0.29900  0.15100  0.82377  Biso   1.000  C
  C167     1.0000 0.22900  0.14500  0.72847  Biso   1.000  C
  C168     1.0000 0.21900  0.11900  0.79467  Biso   1.000  C
  H181     1.0000 0.38900  0.26000  0.73967  Biso   1.000  H
  H182     1.0000 0.30100  0.35700  0.80267  Biso   1.000  H
  H183     1.0000 0.38600  0.41200  0.83267  Biso   1.000  H
  H184     1.0000 0.50000  0.46000  0.77867  Biso   1.000  H
  H185     1.0000 0.48900  0.37500  0.79767  Biso   1.000  H
  H186     1.0000 0.58400  0.77600  0.58967  Biso   1.000  H
  H187     1.0000 0.40900  0.75800  0.63567  Biso   1.000  H
  H188     1.0000 0.47800  0.79800  0.58667  Biso   1.000  H
  H189     1.0000 0.55200  0.80100  0.73467  Biso   1.000  H
  H190     1.0000 0.51200  0.84600  0.70067  Biso   1.000  H
  H191     1.0000 0.35200  0.22100  0.64567  Biso   1.000  H
  H192     1.0000 0.26700  0.17700  0.61367  Biso   1.000  H
  H193     1.0000 0.24000  0.25500  0.74567  Biso   1.000  H
  H194     1.0000 0.65400  0.63300  0.60267  Biso   1.000  H
  H195     1.0000 0.59900  0.66500  0.57267  Biso   1.000  H
  H196     1.0000 0.31400  0.26200  0.84467  Biso   1.000  H
  H197     1.0000 0.39700  0.26300  0.83867  Biso   1.000  H
  H198     1.0000 0.65400  0.78100  0.69867  Biso   1.000  H
  H199     1.0000 0.72200  0.78500  0.59267  Biso   1.000  H
  H200     1.0000 0.75900  0.78600  0.65467  Biso   1.000  H
  H201     1.0000 0.71000  0.90300  0.55867  Biso   1.000  H
  H202     1.0000 0.74300  0.98200  0.60067  Biso   1.000  H
  H203     1.0000 0.62400  0.58900  0.69767  Biso   1.000  H
  H204     1.0000 0.69400  0.68000  0.70967  Biso   1.000  H
  H205     1.0000 0.78300  0.91400  0.67067  Biso   1.000  H
  H206     1.0000 0.82200  0.91200  0.60967  Biso   1.000  H
  H207     1.0000 0.64700  0.90500  0.66867  Biso   1.000  H
  H208     1.0000 0.60500  0.90300  0.60767  Biso   1.000  H
  H209     1.0000 0.19500  0.22900  0.60367  Biso   1.000  H
  H210     1.0000 0.16600  0.23100  0.66767  Biso   1.000  H
  H211     1.0000 0.29100  0.13200  0.86367  Biso   1.000  H
  H212     1.0000 0.33100  0.13100  0.80367  Biso   1.000  H
  H213     1.0000 0.17600  0.12400  0.70967  Biso   1.000  H
  H214     1.0000 0.25900  0.12400  0.70767  Biso   1.000  H
  H215     1.0000 0.19000  0.06000  0.79667  Biso   1.000  H
  H216     1.0000 0.18800  0.13900  0.81567  Biso   1.000  H
  Mn31     1.0000 0.56360  0.00000  0.16667  Biso   1.000  Mn
  Mn32     1.0000 0.00000  0.56360  0.83333  Biso   1.000  Mn
  Mn33     1.0000 0.43640  0.43640  0.50000  Biso   1.000  Mn
