data_image0
_cell_length_a       20.1753
_cell_length_b       20.1753
_cell_length_c       25.0329
_cell_angle_alpha    90
_cell_angle_beta     90
_cell_angle_gamma    120

_symmetry_space_group_name_H-M    "P 1"
_symmetry_int_tables_number       1

loop_
  _symmetry_equiv_pos_as_xyz
  'x, y, z'

loop_
  _atom_site_label
  _atom_site_occupancy
  _atom_site_fract_x
  _atom_site_fract_y
  _atom_site_fract_z
  _atom_site_thermal_displace_type
  _atom_site_B_iso_or_equiv
  _atom_site_type_symbol
  O1       1.0000 0.43650  0.23500  0.40010  Biso   1.000  O
  O2       1.0000 0.14270  0.12780  0.43200  Biso   1.000  O
  C1       1.0000 0.30190  0.18000  0.39950  Biso   1.000  C
  H1       1.0000 0.30480  0.20130  0.43350  Biso   1.000  H
  C2       1.0000 0.36440  0.21120  0.36600  Biso   1.000  C
  C3       1.0000 0.29920  0.11600  0.30340  Biso   1.000  C
  H2       1.0000 0.29800  0.09120  0.27130  Biso   1.000  H
  C4       1.0000 0.23530  0.08550  0.33580  Biso   1.000  C
  H3       1.0000 0.19040  0.04130  0.32490  Biso   1.000  H
  O3       1.0000 0.64990  0.46050  0.39910  Biso   1.000  O
  H4       1.0000 0.60950  0.58750  0.48840  Biso   1.000  H
  C5       1.0000 0.52890  0.59160  0.53270  Biso   1.000  C
  H5       1.0000 0.56010  0.64250  0.54400  Biso   1.000  H
  N1       1.0000 0.56720  0.36700  0.40670  Biso   1.000  N
  C6       1.0000 0.51650  0.37500  0.43330  Biso   1.000  C
  H6       1.0000 0.46600  0.33620  0.44010  Biso   1.000  H
  H7       1.0000 0.40930  0.25500  0.37750  Biso   1.000  H
  O4       1.0000 0.76500  0.20150  0.40010  Biso   1.000  O
  O5       1.0000 0.87220  0.01490  0.43200  Biso   1.000  O
  C7       1.0000 0.82000  0.12190  0.39950  Biso   1.000  C
  H8       1.0000 0.79870  0.10350  0.43350  Biso   1.000  H
  C8       1.0000 0.78880  0.15320  0.36600  Biso   1.000  C
  C9       1.0000 0.88400  0.18320  0.30340  Biso   1.000  C
  H9       1.0000 0.90880  0.20680  0.27130  Biso   1.000  H
  C10      1.0000 0.91450  0.14980  0.33580  Biso   1.000  C
  H10      1.0000 0.95870  0.14910  0.32490  Biso   1.000  H
  O6       1.0000 0.53950  0.18940  0.39910  Biso   1.000  O
  H11      1.0000 0.41250  0.02200  0.48840  Biso   1.000  H
  C11      1.0000 0.40840  0.93730  0.53270  Biso   1.000  C
  H12      1.0000 0.35750  0.91760  0.54400  Biso   1.000  H
  N2       1.0000 0.63300  0.20020  0.40670  Biso   1.000  N
  C12      1.0000 0.62500  0.14150  0.43330  Biso   1.000  C
  H13      1.0000 0.66380  0.12980  0.44010  Biso   1.000  H
  H14      1.0000 0.74500  0.15430  0.37750  Biso   1.000  H
  O7       1.0000 0.79850  0.56350  0.40010  Biso   1.000  O
  O8       1.0000 0.98510  0.85730  0.43200  Biso   1.000  O
  C13      1.0000 0.87810  0.69810  0.39950  Biso   1.000  C
  H15      1.0000 0.89650  0.69520  0.43350  Biso   1.000  H
  C14      1.0000 0.84680  0.63560  0.36600  Biso   1.000  C
  C15      1.0000 0.81680  0.70080  0.30340  Biso   1.000  C
  H16      1.0000 0.79320  0.70200  0.27130  Biso   1.000  H
  C16      1.0000 0.85020  0.76470  0.33580  Biso   1.000  C
  H17      1.0000 0.85090  0.80960  0.32490  Biso   1.000  H
  O9       1.0000 0.81060  0.35010  0.39910  Biso   1.000  O
  H18      1.0000 0.97800  0.39050  0.48840  Biso   1.000  H
  C17      1.0000 0.06270  0.47110  0.53270  Biso   1.000  C
  H19      1.0000 0.08240  0.43990  0.54400  Biso   1.000  H
  N3       1.0000 0.79980  0.43280  0.40670  Biso   1.000  N
  C18      1.0000 0.85850  0.48350  0.43330  Biso   1.000  C
  H20      1.0000 0.87020  0.53400  0.44010  Biso   1.000  H
  H21      1.0000 0.84570  0.59070  0.37750  Biso   1.000  H
  O10      1.0000 0.56350  0.76500  0.90010  Biso   1.000  O
  O11      1.0000 0.85730  0.87220  0.93200  Biso   1.000  O
  C19      1.0000 0.69810  0.82000  0.89950  Biso   1.000  C
  H22      1.0000 0.69520  0.79870  0.93350  Biso   1.000  H
  C20      1.0000 0.63560  0.78880  0.86600  Biso   1.000  C
  C21      1.0000 0.70080  0.88400  0.80340  Biso   1.000  C
  H23      1.0000 0.70200  0.90880  0.77130  Biso   1.000  H
  C22      1.0000 0.76470  0.91450  0.83580  Biso   1.000  C
  H24      1.0000 0.80960  0.95870  0.82490  Biso   1.000  H
  O12      1.0000 0.35010  0.53950  0.89910  Biso   1.000  O
  H25      1.0000 0.39050  0.41250  0.98840  Biso   1.000  H
  C23      1.0000 0.47110  0.40840  0.03270  Biso   1.000  C
  H26      1.0000 0.43990  0.35750  0.04400  Biso   1.000  H
  N4       1.0000 0.43280  0.63300  0.90670  Biso   1.000  N
  C24      1.0000 0.48350  0.62500  0.93330  Biso   1.000  C
  H27      1.0000 0.53400  0.66380  0.94010  Biso   1.000  H
  H28      1.0000 0.59070  0.74500  0.87750  Biso   1.000  H
  O13      1.0000 0.23500  0.79850  0.90010  Biso   1.000  O
  O14      1.0000 0.12780  0.98510  0.93200  Biso   1.000  O
  C25      1.0000 0.18000  0.87810  0.89950  Biso   1.000  C
  H29      1.0000 0.20130  0.89650  0.93350  Biso   1.000  H
  C26      1.0000 0.21120  0.84680  0.86600  Biso   1.000  C
  C27      1.0000 0.11600  0.81680  0.80340  Biso   1.000  C
  H30      1.0000 0.09120  0.79320  0.77130  Biso   1.000  H
  C28      1.0000 0.08550  0.85020  0.83580  Biso   1.000  C
  H31      1.0000 0.04130  0.85090  0.82490  Biso   1.000  H
  O15      1.0000 0.46050  0.81060  0.89910  Biso   1.000  O
  H32      1.0000 0.58750  0.97800  0.98840  Biso   1.000  H
  C29      1.0000 0.59160  0.06270  0.03270  Biso   1.000  C
  H33      1.0000 0.64250  0.08240  0.04400  Biso   1.000  H
  N5       1.0000 0.36700  0.79980  0.90670  Biso   1.000  N
  C30      1.0000 0.37500  0.85850  0.93330  Biso   1.000  C
  H34      1.0000 0.33620  0.87020  0.94010  Biso   1.000  H
  H35      1.0000 0.25500  0.84570  0.87750  Biso   1.000  H
  O16      1.0000 0.20150  0.43650  0.90010  Biso   1.000  O
  O17      1.0000 0.01490  0.14270  0.93200  Biso   1.000  O
  C31      1.0000 0.12190  0.30190  0.89950  Biso   1.000  C
  H36      1.0000 0.10350  0.30480  0.93350  Biso   1.000  H
  C32      1.0000 0.15320  0.36440  0.86600  Biso   1.000  C
  C33      1.0000 0.18320  0.29920  0.80340  Biso   1.000  C
  H37      1.0000 0.20680  0.29800  0.77130  Biso   1.000  H
  C34      1.0000 0.14980  0.23530  0.83580  Biso   1.000  C
  H38      1.0000 0.14910  0.19040  0.82490  Biso   1.000  H
  O18      1.0000 0.18940  0.64990  0.89910  Biso   1.000  O
  H39      1.0000 0.02200  0.60950  0.98840  Biso   1.000  H
  C35      1.0000 0.93730  0.52890  0.03270  Biso   1.000  C
  H40      1.0000 0.91760  0.56010  0.04400  Biso   1.000  H
  N6       1.0000 0.20020  0.56720  0.90670  Biso   1.000  N
  C36      1.0000 0.14150  0.51650  0.93330  Biso   1.000  C
  H41      1.0000 0.12980  0.46600  0.94010  Biso   1.000  H
  H42      1.0000 0.15430  0.40930  0.87750  Biso   1.000  H
  O19      1.0000 0.23500  0.43650  0.59990  Biso   1.000  O
  O20      1.0000 0.12780  0.14270  0.56800  Biso   1.000  O
  C37      1.0000 0.18000  0.30190  0.60050  Biso   1.000  C
  H43      1.0000 0.20130  0.30480  0.56650  Biso   1.000  H
  C38      1.0000 0.21120  0.36440  0.63400  Biso   1.000  C
  C39      1.0000 0.11600  0.29920  0.69660  Biso   1.000  C
  H44      1.0000 0.09120  0.29800  0.72870  Biso   1.000  H
  C40      1.0000 0.08550  0.23530  0.66420  Biso   1.000  C
  H45      1.0000 0.04130  0.19040  0.67510  Biso   1.000  H
  O21      1.0000 0.46050  0.64990  0.60090  Biso   1.000  O
  H46      1.0000 0.58750  0.60950  0.51160  Biso   1.000  H
  C41      1.0000 0.59160  0.52890  0.46730  Biso   1.000  C
  H47      1.0000 0.64250  0.56010  0.45600  Biso   1.000  H
  N7       1.0000 0.36700  0.56720  0.59330  Biso   1.000  N
  C42      1.0000 0.37500  0.51650  0.56670  Biso   1.000  C
  H48      1.0000 0.33620  0.46600  0.55990  Biso   1.000  H
  H49      1.0000 0.25500  0.40930  0.62250  Biso   1.000  H
  O22      1.0000 0.20150  0.76500  0.59990  Biso   1.000  O
  O23      1.0000 0.01490  0.87220  0.56800  Biso   1.000  O
  C43      1.0000 0.12190  0.82000  0.60050  Biso   1.000  C
  H50      1.0000 0.10350  0.79870  0.56650  Biso   1.000  H
  C44      1.0000 0.15320  0.78880  0.63400  Biso   1.000  C
  C45      1.0000 0.18320  0.88400  0.69660  Biso   1.000  C
  H51      1.0000 0.20680  0.90880  0.72870  Biso   1.000  H
  C46      1.0000 0.14980  0.91450  0.66420  Biso   1.000  C
  H52      1.0000 0.14910  0.95870  0.67510  Biso   1.000  H
  O24      1.0000 0.18940  0.53950  0.60090  Biso   1.000  O
  H53      1.0000 0.02200  0.41250  0.51160  Biso   1.000  H
  C47      1.0000 0.93730  0.40840  0.46730  Biso   1.000  C
  H54      1.0000 0.91760  0.35750  0.45600  Biso   1.000  H
  N8       1.0000 0.20020  0.63300  0.59330  Biso   1.000  N
  C48      1.0000 0.14150  0.62500  0.56670  Biso   1.000  C
  H55      1.0000 0.12980  0.66380  0.55990  Biso   1.000  H
  H56      1.0000 0.15430  0.74500  0.62250  Biso   1.000  H
  O25      1.0000 0.56350  0.79850  0.59990  Biso   1.000  O
  O26      1.0000 0.85730  0.98510  0.56800  Biso   1.000  O
  C49      1.0000 0.69810  0.87810  0.60050  Biso   1.000  C
  H57      1.0000 0.69520  0.89650  0.56650  Biso   1.000  H
  C50      1.0000 0.63560  0.84680  0.63400  Biso   1.000  C
  C51      1.0000 0.70080  0.81680  0.69660  Biso   1.000  C
  H58      1.0000 0.70200  0.79320  0.72870  Biso   1.000  H
  C52      1.0000 0.76470  0.85020  0.66420  Biso   1.000  C
  H59      1.0000 0.80960  0.85090  0.67510  Biso   1.000  H
  O27      1.0000 0.35010  0.81060  0.60090  Biso   1.000  O
  H60      1.0000 0.39050  0.97800  0.51160  Biso   1.000  H
  C53      1.0000 0.47110  0.06270  0.46730  Biso   1.000  C
  H61      1.0000 0.43990  0.08240  0.45600  Biso   1.000  H
  N9       1.0000 0.43280  0.79980  0.59330  Biso   1.000  N
  C54      1.0000 0.48350  0.85850  0.56670  Biso   1.000  C
  H62      1.0000 0.53400  0.87020  0.55990  Biso   1.000  H
  H63      1.0000 0.59070  0.84570  0.62250  Biso   1.000  H
  O28      1.0000 0.76500  0.56350  0.09990  Biso   1.000  O
  O29      1.0000 0.87220  0.85730  0.06800  Biso   1.000  O
  C55      1.0000 0.82000  0.69810  0.10050  Biso   1.000  C
  H64      1.0000 0.79870  0.69520  0.06650  Biso   1.000  H
  C56      1.0000 0.78880  0.63560  0.13400  Biso   1.000  C
  C57      1.0000 0.88400  0.70080  0.19660  Biso   1.000  C
  H65      1.0000 0.90880  0.70200  0.22870  Biso   1.000  H
  C58      1.0000 0.91450  0.76470  0.16420  Biso   1.000  C
  H66      1.0000 0.95870  0.80960  0.17510  Biso   1.000  H
  O30      1.0000 0.53950  0.35010  0.10090  Biso   1.000  O
  H67      1.0000 0.41250  0.39050  0.01160  Biso   1.000  H
  C59      1.0000 0.40840  0.47110  0.96730  Biso   1.000  C
  H68      1.0000 0.35750  0.43990  0.95600  Biso   1.000  H
  N10      1.0000 0.63300  0.43280  0.09330  Biso   1.000  N
  C60      1.0000 0.62500  0.48350  0.06670  Biso   1.000  C
  H69      1.0000 0.66380  0.53400  0.05990  Biso   1.000  H
  H70      1.0000 0.74500  0.59070  0.12250  Biso   1.000  H
  O31      1.0000 0.79850  0.23500  0.09990  Biso   1.000  O
  O32      1.0000 0.98510  0.12780  0.06800  Biso   1.000  O
  C61      1.0000 0.87810  0.18000  0.10050  Biso   1.000  C
  H71      1.0000 0.89650  0.20130  0.06650  Biso   1.000  H
  C62      1.0000 0.84680  0.21120  0.13400  Biso   1.000  C
  C63      1.0000 0.81680  0.11600  0.19660  Biso   1.000  C
  H72      1.0000 0.79320  0.09120  0.22870  Biso   1.000  H
  C64      1.0000 0.85020  0.08550  0.16420  Biso   1.000  C
  H73      1.0000 0.85090  0.04130  0.17510  Biso   1.000  H
  O33      1.0000 0.81060  0.46050  0.10090  Biso   1.000  O
  H74      1.0000 0.97800  0.58750  0.01160  Biso   1.000  H
  C65      1.0000 0.06270  0.59160  0.96730  Biso   1.000  C
  H75      1.0000 0.08240  0.64250  0.95600  Biso   1.000  H
  N11      1.0000 0.79980  0.36700  0.09330  Biso   1.000  N
  C66      1.0000 0.85850  0.37500  0.06670  Biso   1.000  C
  H76      1.0000 0.87020  0.33620  0.05990  Biso   1.000  H
  H77      1.0000 0.84570  0.25500  0.12250  Biso   1.000  H
  O34      1.0000 0.43650  0.20150  0.09990  Biso   1.000  O
  O35      1.0000 0.14270  0.01490  0.06800  Biso   1.000  O
  C67      1.0000 0.30190  0.12190  0.10050  Biso   1.000  C
  H78      1.0000 0.30480  0.10350  0.06650  Biso   1.000  H
  C68      1.0000 0.36440  0.15320  0.13400  Biso   1.000  C
  C69      1.0000 0.29920  0.18320  0.19660  Biso   1.000  C
  H79      1.0000 0.29800  0.20680  0.22870  Biso   1.000  H
  C70      1.0000 0.23530  0.14980  0.16420  Biso   1.000  C
  H80      1.0000 0.19040  0.14910  0.17510  Biso   1.000  H
  O36      1.0000 0.64990  0.18940  0.10090  Biso   1.000  O
  H81      1.0000 0.60950  0.02200  0.01160  Biso   1.000  H
  C71      1.0000 0.52890  0.93730  0.96730  Biso   1.000  C
  H82      1.0000 0.56010  0.91760  0.95600  Biso   1.000  H
  N12      1.0000 0.56720  0.20020  0.09330  Biso   1.000  N
  C72      1.0000 0.51650  0.14150  0.06670  Biso   1.000  C
  H83      1.0000 0.46600  0.12980  0.05990  Biso   1.000  H
  H84      1.0000 0.40930  0.15430  0.12250  Biso   1.000  H
  O37      1.0000 0.56350  0.76500  0.59990  Biso   1.000  O
  O38      1.0000 0.85730  0.87220  0.56800  Biso   1.000  O
  C73      1.0000 0.69810  0.82000  0.60050  Biso   1.000  C
  H85      1.0000 0.69520  0.79870  0.56650  Biso   1.000  H
  C74      1.0000 0.63560  0.78880  0.63400  Biso   1.000  C
  C75      1.0000 0.70080  0.88400  0.69660  Biso   1.000  C
  H86      1.0000 0.70200  0.90880  0.72870  Biso   1.000  H
  C76      1.0000 0.76470  0.91450  0.66420  Biso   1.000  C
  H87      1.0000 0.80960  0.95870  0.67510  Biso   1.000  H
  O39      1.0000 0.35010  0.53950  0.60090  Biso   1.000  O
  H88      1.0000 0.39050  0.41250  0.51160  Biso   1.000  H
  C77      1.0000 0.47110  0.40840  0.46730  Biso   1.000  C
  H89      1.0000 0.43990  0.35750  0.45600  Biso   1.000  H
  N13      1.0000 0.43280  0.63300  0.59330  Biso   1.000  N
  C78      1.0000 0.48350  0.62500  0.56670  Biso   1.000  C
  H90      1.0000 0.53400  0.66380  0.55990  Biso   1.000  H
  H91      1.0000 0.59070  0.74500  0.62250  Biso   1.000  H
  O40      1.0000 0.23500  0.79850  0.59990  Biso   1.000  O
  O41      1.0000 0.12780  0.98510  0.56800  Biso   1.000  O
  C79      1.0000 0.18000  0.87810  0.60050  Biso   1.000  C
  H92      1.0000 0.20130  0.89650  0.56650  Biso   1.000  H
  C80      1.0000 0.21120  0.84680  0.63400  Biso   1.000  C
  C81      1.0000 0.11600  0.81680  0.69660  Biso   1.000  C
  H93      1.0000 0.09120  0.79320  0.72870  Biso   1.000  H
  C82      1.0000 0.08550  0.85020  0.66420  Biso   1.000  C
  H94      1.0000 0.04130  0.85090  0.67510  Biso   1.000  H
  O42      1.0000 0.46050  0.81060  0.60090  Biso   1.000  O
  H95      1.0000 0.58750  0.97800  0.51160  Biso   1.000  H
  C83      1.0000 0.59160  0.06270  0.46730  Biso   1.000  C
  H96      1.0000 0.64250  0.08240  0.45600  Biso   1.000  H
  N14      1.0000 0.36700  0.79980  0.59330  Biso   1.000  N
  C84      1.0000 0.37500  0.85850  0.56670  Biso   1.000  C
  H97      1.0000 0.33620  0.87020  0.55990  Biso   1.000  H
  H98      1.0000 0.25500  0.84570  0.62250  Biso   1.000  H
  O43      1.0000 0.20150  0.43650  0.59990  Biso   1.000  O
  O44      1.0000 0.01490  0.14270  0.56800  Biso   1.000  O
  C85      1.0000 0.12190  0.30190  0.60050  Biso   1.000  C
  H99      1.0000 0.10350  0.30480  0.56650  Biso   1.000  H
  C86      1.0000 0.15320  0.36440  0.63400  Biso   1.000  C
  C87      1.0000 0.18320  0.29920  0.69660  Biso   1.000  C
  H100     1.0000 0.20680  0.29800  0.72870  Biso   1.000  H
  C88      1.0000 0.14980  0.23530  0.66420  Biso   1.000  C
  H101     1.0000 0.14910  0.19040  0.67510  Biso   1.000  H
  O45      1.0000 0.18940  0.64990  0.60090  Biso   1.000  O
  H102     1.0000 0.02200  0.60950  0.51160  Biso   1.000  H
  C89      1.0000 0.93730  0.52890  0.46730  Biso   1.000  C
  H103     1.0000 0.91760  0.56010  0.45600  Biso   1.000  H
  N15      1.0000 0.20020  0.56720  0.59330  Biso   1.000  N
  C90      1.0000 0.14150  0.51650  0.56670  Biso   1.000  C
  H104     1.0000 0.12980  0.46600  0.55990  Biso   1.000  H
  H105     1.0000 0.15430  0.40930  0.62250  Biso   1.000  H
  O46      1.0000 0.43650  0.23500  0.09990  Biso   1.000  O
  O47      1.0000 0.14270  0.12780  0.06800  Biso   1.000  O
  C91      1.0000 0.30190  0.18000  0.10050  Biso   1.000  C
  H106     1.0000 0.30480  0.20130  0.06650  Biso   1.000  H
  C92      1.0000 0.36440  0.21120  0.13400  Biso   1.000  C
  C93      1.0000 0.29920  0.11600  0.19660  Biso   1.000  C
  H107     1.0000 0.29800  0.09120  0.22870  Biso   1.000  H
  C94      1.0000 0.23530  0.08550  0.16420  Biso   1.000  C
  H108     1.0000 0.19040  0.04130  0.17510  Biso   1.000  H
  O48      1.0000 0.64990  0.46050  0.10090  Biso   1.000  O
  H109     1.0000 0.60950  0.58750  0.01160  Biso   1.000  H
  C95      1.0000 0.52890  0.59160  0.96730  Biso   1.000  C
  H110     1.0000 0.56010  0.64250  0.95600  Biso   1.000  H
  N16      1.0000 0.56720  0.36700  0.09330  Biso   1.000  N
  C96      1.0000 0.51650  0.37500  0.06670  Biso   1.000  C
  H111     1.0000 0.46600  0.33620  0.05990  Biso   1.000  H
  H112     1.0000 0.40930  0.25500  0.12250  Biso   1.000  H
  O49      1.0000 0.76500  0.20150  0.09990  Biso   1.000  O
  O50      1.0000 0.87220  0.01490  0.06800  Biso   1.000  O
  C97      1.0000 0.82000  0.12190  0.10050  Biso   1.000  C
  H113     1.0000 0.79870  0.10350  0.06650  Biso   1.000  H
  C98      1.0000 0.78880  0.15320  0.13400  Biso   1.000  C
  C99      1.0000 0.88400  0.18320  0.19660  Biso   1.000  C
  H114     1.0000 0.90880  0.20680  0.22870  Biso   1.000  H
  C100     1.0000 0.91450  0.14980  0.16420  Biso   1.000  C
  H115     1.0000 0.95870  0.14910  0.17510  Biso   1.000  H
  O51      1.0000 0.53950  0.18940  0.10090  Biso   1.000  O
  H116     1.0000 0.41250  0.02200  0.01160  Biso   1.000  H
  C101     1.0000 0.40840  0.93730  0.96730  Biso   1.000  C
  H117     1.0000 0.35750  0.91760  0.95600  Biso   1.000  H
  N17      1.0000 0.63300  0.20020  0.09330  Biso   1.000  N
  C102     1.0000 0.62500  0.14150  0.06670  Biso   1.000  C
  H118     1.0000 0.66380  0.12980  0.05990  Biso   1.000  H
  H119     1.0000 0.74500  0.15430  0.12250  Biso   1.000  H
  O52      1.0000 0.79850  0.56350  0.09990  Biso   1.000  O
  O53      1.0000 0.98510  0.85730  0.06800  Biso   1.000  O
  C103     1.0000 0.87810  0.69810  0.10050  Biso   1.000  C
  H120     1.0000 0.89650  0.69520  0.06650  Biso   1.000  H
  C104     1.0000 0.84680  0.63560  0.13400  Biso   1.000  C
  C105     1.0000 0.81680  0.70080  0.19660  Biso   1.000  C
  H121     1.0000 0.79320  0.70200  0.22870  Biso   1.000  H
  C106     1.0000 0.85020  0.76470  0.16420  Biso   1.000  C
  H122     1.0000 0.85090  0.80960  0.17510  Biso   1.000  H
  O54      1.0000 0.81060  0.35010  0.10090  Biso   1.000  O
  H123     1.0000 0.97800  0.39050  0.01160  Biso   1.000  H
  C107     1.0000 0.06270  0.47110  0.96730  Biso   1.000  C
  H124     1.0000 0.08240  0.43990  0.95600  Biso   1.000  H
  N18      1.0000 0.79980  0.43280  0.09330  Biso   1.000  N
  C108     1.0000 0.85850  0.48350  0.06670  Biso   1.000  C
  H125     1.0000 0.87020  0.53400  0.05990  Biso   1.000  H
  H126     1.0000 0.84570  0.59070  0.12250  Biso   1.000  H
  O55      1.0000 0.76500  0.56350  0.40010  Biso   1.000  O
  O56      1.0000 0.87220  0.85730  0.43200  Biso   1.000  O
  C109     1.0000 0.82000  0.69810  0.39950  Biso   1.000  C
  H127     1.0000 0.79870  0.69520  0.43350  Biso   1.000  H
  C110     1.0000 0.78880  0.63560  0.36600  Biso   1.000  C
  C111     1.0000 0.88400  0.70080  0.30340  Biso   1.000  C
  H128     1.0000 0.90880  0.70200  0.27130  Biso   1.000  H
  C112     1.0000 0.91450  0.76470  0.33580  Biso   1.000  C
  H129     1.0000 0.95870  0.80960  0.32490  Biso   1.000  H
  O57      1.0000 0.53950  0.35010  0.39910  Biso   1.000  O
  H130     1.0000 0.41250  0.39050  0.48840  Biso   1.000  H
  C113     1.0000 0.40840  0.47110  0.53270  Biso   1.000  C
  H131     1.0000 0.35750  0.43990  0.54400  Biso   1.000  H
  N19      1.0000 0.63300  0.43280  0.40670  Biso   1.000  N
  C114     1.0000 0.62500  0.48350  0.43330  Biso   1.000  C
  H132     1.0000 0.66380  0.53400  0.44010  Biso   1.000  H
  H133     1.0000 0.74500  0.59070  0.37750  Biso   1.000  H
  O58      1.0000 0.79850  0.23500  0.40010  Biso   1.000  O
  O59      1.0000 0.98510  0.12780  0.43200  Biso   1.000  O
  C115     1.0000 0.87810  0.18000  0.39950  Biso   1.000  C
  H134     1.0000 0.89650  0.20130  0.43350  Biso   1.000  H
  C116     1.0000 0.84680  0.21120  0.36600  Biso   1.000  C
  C117     1.0000 0.81680  0.11600  0.30340  Biso   1.000  C
  H135     1.0000 0.79320  0.09120  0.27130  Biso   1.000  H
  C118     1.0000 0.85020  0.08550  0.33580  Biso   1.000  C
  H136     1.0000 0.85090  0.04130  0.32490  Biso   1.000  H
  O60      1.0000 0.81060  0.46050  0.39910  Biso   1.000  O
  H137     1.0000 0.97800  0.58750  0.48840  Biso   1.000  H
  C119     1.0000 0.06270  0.59160  0.53270  Biso   1.000  C
  H138     1.0000 0.08240  0.64250  0.54400  Biso   1.000  H
  N20      1.0000 0.79980  0.36700  0.40670  Biso   1.000  N
  C120     1.0000 0.85850  0.37500  0.43330  Biso   1.000  C
  H139     1.0000 0.87020  0.33620  0.44010  Biso   1.000  H
  H140     1.0000 0.84570  0.25500  0.37750  Biso   1.000  H
  O61      1.0000 0.43650  0.20150  0.40010  Biso   1.000  O
  O62      1.0000 0.14270  0.01490  0.43200  Biso   1.000  O
  C121     1.0000 0.30190  0.12190  0.39950  Biso   1.000  C
  H141     1.0000 0.30480  0.10350  0.43350  Biso   1.000  H
  C122     1.0000 0.36440  0.15320  0.36600  Biso   1.000  C
  C123     1.0000 0.29920  0.18320  0.30340  Biso   1.000  C
  H142     1.0000 0.29800  0.20680  0.27130  Biso   1.000  H
  C124     1.0000 0.23530  0.14980  0.33580  Biso   1.000  C
  H143     1.0000 0.19040  0.14910  0.32490  Biso   1.000  H
  O63      1.0000 0.64990  0.18940  0.39910  Biso   1.000  O
  H144     1.0000 0.60950  0.02200  0.48840  Biso   1.000  H
  C125     1.0000 0.52890  0.93730  0.53270  Biso   1.000  C
  H145     1.0000 0.56010  0.91760  0.54400  Biso   1.000  H
  N21      1.0000 0.56720  0.20020  0.40670  Biso   1.000  N
  C126     1.0000 0.51650  0.14150  0.43330  Biso   1.000  C
  H146     1.0000 0.46600  0.12980  0.44010  Biso   1.000  H
  H147     1.0000 0.40930  0.15430  0.37750  Biso   1.000  H
  O64      1.0000 0.23500  0.43650  0.90010  Biso   1.000  O
  O65      1.0000 0.12780  0.14270  0.93200  Biso   1.000  O
  C127     1.0000 0.18000  0.30190  0.89950  Biso   1.000  C
  H148     1.0000 0.20130  0.30480  0.93350  Biso   1.000  H
  C128     1.0000 0.21120  0.36440  0.86600  Biso   1.000  C
  C129     1.0000 0.11600  0.29920  0.80340  Biso   1.000  C
  H149     1.0000 0.09120  0.29800  0.77130  Biso   1.000  H
  C130     1.0000 0.08550  0.23530  0.83580  Biso   1.000  C
  H150     1.0000 0.04130  0.19040  0.82490  Biso   1.000  H
  O66      1.0000 0.46050  0.64990  0.89910  Biso   1.000  O
  H151     1.0000 0.58750  0.60950  0.98840  Biso   1.000  H
  C131     1.0000 0.59160  0.52890  0.03270  Biso   1.000  C
  H152     1.0000 0.64250  0.56010  0.04400  Biso   1.000  H
  N22      1.0000 0.36700  0.56720  0.90670  Biso   1.000  N
  C132     1.0000 0.37500  0.51650  0.93330  Biso   1.000  C
  H153     1.0000 0.33620  0.46600  0.94010  Biso   1.000  H
  H154     1.0000 0.25500  0.40930  0.87750  Biso   1.000  H
  O67      1.0000 0.20150  0.76500  0.90010  Biso   1.000  O
  O68      1.0000 0.01490  0.87220  0.93200  Biso   1.000  O
  C133     1.0000 0.12190  0.82000  0.89950  Biso   1.000  C
  H155     1.0000 0.10350  0.79870  0.93350  Biso   1.000  H
  C134     1.0000 0.15320  0.78880  0.86600  Biso   1.000  C
  C135     1.0000 0.18320  0.88400  0.80340  Biso   1.000  C
  H156     1.0000 0.20680  0.90880  0.77130  Biso   1.000  H
  C136     1.0000 0.14980  0.91450  0.83580  Biso   1.000  C
  H157     1.0000 0.14910  0.95870  0.82490  Biso   1.000  H
  O69      1.0000 0.18940  0.53950  0.89910  Biso   1.000  O
  H158     1.0000 0.02200  0.41250  0.98840  Biso   1.000  H
  C137     1.0000 0.93730  0.40840  0.03270  Biso   1.000  C
  H159     1.0000 0.91760  0.35750  0.04400  Biso   1.000  H
  N23      1.0000 0.20020  0.63300  0.90670  Biso   1.000  N
  C138     1.0000 0.14150  0.62500  0.93330  Biso   1.000  C
  H160     1.0000 0.12980  0.66380  0.94010  Biso   1.000  H
  H161     1.0000 0.15430  0.74500  0.87750  Biso   1.000  H
  O70      1.0000 0.56350  0.79850  0.90010  Biso   1.000  O
  O71      1.0000 0.85730  0.98510  0.93200  Biso   1.000  O
  C139     1.0000 0.69810  0.87810  0.89950  Biso   1.000  C
  H162     1.0000 0.69520  0.89650  0.93350  Biso   1.000  H
  C140     1.0000 0.63560  0.84680  0.86600  Biso   1.000  C
  C141     1.0000 0.70080  0.81680  0.80340  Biso   1.000  C
  H163     1.0000 0.70200  0.79320  0.77130  Biso   1.000  H
  C142     1.0000 0.76470  0.85020  0.83580  Biso   1.000  C
  H164     1.0000 0.80960  0.85090  0.82490  Biso   1.000  H
  O72      1.0000 0.35010  0.81060  0.89910  Biso   1.000  O
  H165     1.0000 0.39050  0.97800  0.98840  Biso   1.000  H
  C143     1.0000 0.47110  0.06270  0.03270  Biso   1.000  C
  H166     1.0000 0.43990  0.08240  0.04400  Biso   1.000  H
  N24      1.0000 0.43280  0.79980  0.90670  Biso   1.000  N
  C144     1.0000 0.48350  0.85850  0.93330  Biso   1.000  C
  H167     1.0000 0.53400  0.87020  0.94010  Biso   1.000  H
  H168     1.0000 0.59070  0.84570  0.87750  Biso   1.000  H
  Zn1      1.0000 0.66667  0.33333  0.25000  Biso   1.000  Zn
  Zn2      1.0000 0.33333  0.66667  0.75000  Biso   1.000  Zn
  Zn3      1.0000 0.56222  0.28111  0.36305  Biso   1.000  Zn
  O73      1.0000 0.17400  0.08700  0.46800  Biso   1.000  O
  O74      1.0000 0.10190  0.05095  0.39460  Biso   1.000  O
  C145     1.0000 0.16650  0.08325  0.41880  Biso   1.000  C
  C146     1.0000 0.23640  0.11820  0.38290  Biso   1.000  C
  C147     1.0000 0.36450  0.18225  0.31770  Biso   1.000  C
  C148     1.0000 0.43030  0.21515  0.27760  Biso   1.000  C
  N25      1.0000 0.50339  0.25169  0.29352  Biso   1.000  N
  H169     1.0000 0.38760  0.19380  0.29980  Biso   1.000  H
  Zn4      1.0000 0.71889  0.28111  0.36305  Biso   1.000  Zn
  O75      1.0000 0.91300  0.08700  0.46800  Biso   1.000  O
  O76      1.0000 0.94905  0.05095  0.39460  Biso   1.000  O
  C149     1.0000 0.91675  0.08325  0.41880  Biso   1.000  C
  C150     1.0000 0.88180  0.11820  0.38290  Biso   1.000  C
  C151     1.0000 0.81775  0.18225  0.31770  Biso   1.000  C
  C152     1.0000 0.78485  0.21515  0.27760  Biso   1.000  C
  N26      1.0000 0.74831  0.25170  0.29352  Biso   1.000  N
  H170     1.0000 0.80620  0.19380  0.29980  Biso   1.000  H
  Zn5      1.0000 0.71889  0.43778  0.36305  Biso   1.000  Zn
  O77      1.0000 0.91300  0.82600  0.46800  Biso   1.000  O
  O78      1.0000 0.94905  0.89810  0.39460  Biso   1.000  O
  C153     1.0000 0.91675  0.83350  0.41880  Biso   1.000  C
  C154     1.0000 0.88180  0.76360  0.38290  Biso   1.000  C
  C155     1.0000 0.81775  0.63550  0.31770  Biso   1.000  C
  C156     1.0000 0.78485  0.56970  0.27760  Biso   1.000  C
  N27      1.0000 0.74830  0.49661  0.29352  Biso   1.000  N
  H171     1.0000 0.80620  0.61240  0.29980  Biso   1.000  H
  Zn6      1.0000 0.43778  0.71889  0.86305  Biso   1.000  Zn
  O79      1.0000 0.82600  0.91300  0.96800  Biso   1.000  O
  O80      1.0000 0.89810  0.94905  0.89460  Biso   1.000  O
  C157     1.0000 0.83350  0.91675  0.91880  Biso   1.000  C
  C158     1.0000 0.76360  0.88180  0.88290  Biso   1.000  C
  C159     1.0000 0.63550  0.81775  0.81770  Biso   1.000  C
  C160     1.0000 0.56970  0.78485  0.77760  Biso   1.000  C
  N28      1.0000 0.49661  0.74831  0.79352  Biso   1.000  N
  H172     1.0000 0.61240  0.80620  0.79980  Biso   1.000  H
  Zn7      1.0000 0.28111  0.71889  0.86305  Biso   1.000  Zn
  O81      1.0000 0.08700  0.91300  0.96800  Biso   1.000  O
  O82      1.0000 0.05095  0.94905  0.89460  Biso   1.000  O
  C161     1.0000 0.08325  0.91675  0.91880  Biso   1.000  C
  C162     1.0000 0.11820  0.88180  0.88290  Biso   1.000  C
  C163     1.0000 0.18225  0.81775  0.81770  Biso   1.000  C
  C164     1.0000 0.21515  0.78485  0.77760  Biso   1.000  C
  N29      1.0000 0.25169  0.74830  0.79352  Biso   1.000  N
  H173     1.0000 0.19380  0.80620  0.79980  Biso   1.000  H
  Zn8      1.0000 0.28111  0.56222  0.86305  Biso   1.000  Zn
  O83      1.0000 0.08700  0.17400  0.96800  Biso   1.000  O
  O84      1.0000 0.05095  0.10190  0.89460  Biso   1.000  O
  C165     1.0000 0.08325  0.16650  0.91880  Biso   1.000  C
  C166     1.0000 0.11820  0.23640  0.88290  Biso   1.000  C
  C167     1.0000 0.18225  0.36450  0.81770  Biso   1.000  C
  C168     1.0000 0.21515  0.43030  0.77760  Biso   1.000  C
  N30      1.0000 0.25170  0.50339  0.79352  Biso   1.000  N
  H174     1.0000 0.19380  0.38760  0.79980  Biso   1.000  H
  Zn9      1.0000 0.28111  0.56222  0.63695  Biso   1.000  Zn
  O85      1.0000 0.08700  0.17400  0.53200  Biso   1.000  O
  O86      1.0000 0.05095  0.10190  0.60540  Biso   1.000  O
  C169     1.0000 0.08325  0.16650  0.58120  Biso   1.000  C
  C170     1.0000 0.11820  0.23640  0.61710  Biso   1.000  C
  C171     1.0000 0.18225  0.36450  0.68230  Biso   1.000  C
  C172     1.0000 0.21515  0.43030  0.72240  Biso   1.000  C
  N31      1.0000 0.25169  0.50339  0.70648  Biso   1.000  N
  H175     1.0000 0.19380  0.38760  0.70020  Biso   1.000  H
  Zn10     1.0000 0.28111  0.71889  0.63695  Biso   1.000  Zn
  O87      1.0000 0.08700  0.91300  0.53200  Biso   1.000  O
  O88      1.0000 0.05095  0.94905  0.60540  Biso   1.000  O
  C173     1.0000 0.08325  0.91675  0.58120  Biso   1.000  C
  C174     1.0000 0.11820  0.88180  0.61710  Biso   1.000  C
  C175     1.0000 0.18225  0.81775  0.68230  Biso   1.000  C
  C176     1.0000 0.21515  0.78485  0.72240  Biso   1.000  C
  N32      1.0000 0.25170  0.74831  0.70648  Biso   1.000  N
  H176     1.0000 0.19380  0.80620  0.70020  Biso   1.000  H
  Zn11     1.0000 0.43778  0.71889  0.63695  Biso   1.000  Zn
  O89      1.0000 0.82600  0.91300  0.53200  Biso   1.000  O
  O90      1.0000 0.89810  0.94905  0.60540  Biso   1.000  O
  C177     1.0000 0.83350  0.91675  0.58120  Biso   1.000  C
  C178     1.0000 0.76360  0.88180  0.61710  Biso   1.000  C
  C179     1.0000 0.63550  0.81775  0.68230  Biso   1.000  C
  C180     1.0000 0.56970  0.78485  0.72240  Biso   1.000  C
  N33      1.0000 0.49661  0.74830  0.70648  Biso   1.000  N
  H177     1.0000 0.61240  0.80620  0.70020  Biso   1.000  H
  Zn12     1.0000 0.71889  0.43778  0.13695  Biso   1.000  Zn
  O91      1.0000 0.91300  0.82600  0.03200  Biso   1.000  O
  O92      1.0000 0.94905  0.89810  0.10540  Biso   1.000  O
  C181     1.0000 0.91675  0.83350  0.08120  Biso   1.000  C
  C182     1.0000 0.88180  0.76360  0.11710  Biso   1.000  C
  C183     1.0000 0.81775  0.63550  0.18230  Biso   1.000  C
  C184     1.0000 0.78485  0.56970  0.22240  Biso   1.000  C
  N34      1.0000 0.74831  0.49661  0.20648  Biso   1.000  N
  H178     1.0000 0.80620  0.61240  0.20020  Biso   1.000  H
  Zn13     1.0000 0.71889  0.28111  0.13695  Biso   1.000  Zn
  O93      1.0000 0.91300  0.08700  0.03200  Biso   1.000  O
  O94      1.0000 0.94905  0.05095  0.10540  Biso   1.000  O
  C185     1.0000 0.91675  0.08325  0.08120  Biso   1.000  C
  C186     1.0000 0.88180  0.11820  0.11710  Biso   1.000  C
  C187     1.0000 0.81775  0.18225  0.18230  Biso   1.000  C
  C188     1.0000 0.78485  0.21515  0.22240  Biso   1.000  C
  N35      1.0000 0.74830  0.25169  0.20648  Biso   1.000  N
  H179     1.0000 0.80620  0.19380  0.20020  Biso   1.000  H
  Zn14     1.0000 0.56222  0.28111  0.13695  Biso   1.000  Zn
  O95      1.0000 0.17400  0.08700  0.03200  Biso   1.000  O
  O96      1.0000 0.10190  0.05095  0.10540  Biso   1.000  O
  C189     1.0000 0.16650  0.08325  0.08120  Biso   1.000  C
  C190     1.0000 0.23640  0.11820  0.11710  Biso   1.000  C
  C191     1.0000 0.36450  0.18225  0.18230  Biso   1.000  C
  C192     1.0000 0.43030  0.21515  0.22240  Biso   1.000  C
  N36      1.0000 0.50339  0.25170  0.20648  Biso   1.000  N
  H180     1.0000 0.38760  0.19380  0.20020  Biso   1.000  H
  Zn15     1.0000 0.00000  0.00000  0.42536  Biso   1.000  Zn
  Zn16     1.0000 0.00000  0.00000  0.92536  Biso   1.000  Zn
  Zn17     1.0000 0.00000  0.00000  0.57464  Biso   1.000  Zn
  Zn18     1.0000 0.00000  0.00000  0.07464  Biso   1.000  Zn
  Zn19     1.0000 0.05241  0.10482  0.47210  Biso   1.000  Zn
  Zn20     1.0000 0.89518  0.94759  0.47210  Biso   1.000  Zn
  Zn21     1.0000 0.05241  0.94759  0.47210  Biso   1.000  Zn
  Zn22     1.0000 0.94759  0.89518  0.97210  Biso   1.000  Zn
  Zn23     1.0000 0.10482  0.05241  0.97210  Biso   1.000  Zn
  Zn24     1.0000 0.94759  0.05241  0.97210  Biso   1.000  Zn
  Zn25     1.0000 0.10482  0.05241  0.52790  Biso   1.000  Zn
  Zn26     1.0000 0.94759  0.89518  0.52790  Biso   1.000  Zn
  Zn27     1.0000 0.94759  0.05241  0.52790  Biso   1.000  Zn
  Zn28     1.0000 0.89518  0.94759  0.02790  Biso   1.000  Zn
  Zn29     1.0000 0.05241  0.10482  0.02790  Biso   1.000  Zn
  Zn30     1.0000 0.05241  0.94759  0.02790  Biso   1.000  Zn
  O97      1.0000 0.00000  0.00000  0.50000  Biso   1.000  O
  O98      1.0000 0.00000  0.00000  0.00000  Biso   1.000  O
  O99      1.0000 0.66667  0.33333  0.33326  Biso   1.000  O
  O100     1.0000 0.33333  0.66667  0.83326  Biso   1.000  O
  O101     1.0000 0.33333  0.66667  0.66674  Biso   1.000  O
  O102     1.0000 0.66667  0.33333  0.16674  Biso   1.000  O
  N37      1.0000 0.54690  0.27345  0.25000  Biso   1.000  N
  N38      1.0000 0.72655  0.27345  0.25000  Biso   1.000  N
  N39      1.0000 0.72655  0.45310  0.25000  Biso   1.000  N
  N40      1.0000 0.45310  0.72655  0.75000  Biso   1.000  N
  N41      1.0000 0.27345  0.72655  0.75000  Biso   1.000  N
  N42      1.0000 0.27345  0.54690  0.75000  Biso   1.000  N
  C193     1.0000 0.54940  0.45060  0.44990  Biso   1.000  C
  C194     1.0000 0.51570  0.48430  0.48370  Biso   1.000  C
  C195     1.0000 0.58200  0.41800  0.41330  Biso   1.000  C
  C196     1.0000 0.54940  0.09880  0.44990  Biso   1.000  C
  C197     1.0000 0.51570  0.03140  0.48370  Biso   1.000  C
  C198     1.0000 0.58200  0.16400  0.41330  Biso   1.000  C
  C199     1.0000 0.90120  0.45060  0.44990  Biso   1.000  C
  C200     1.0000 0.96860  0.48430  0.48370  Biso   1.000  C
  C201     1.0000 0.83600  0.41800  0.41330  Biso   1.000  C
  C202     1.0000 0.45060  0.54940  0.94990  Biso   1.000  C
  C203     1.0000 0.48430  0.51570  0.98370  Biso   1.000  C
  C204     1.0000 0.41800  0.58200  0.91330  Biso   1.000  C
  C205     1.0000 0.45060  0.90120  0.94990  Biso   1.000  C
  C206     1.0000 0.48430  0.96860  0.98370  Biso   1.000  C
  C207     1.0000 0.41800  0.83600  0.91330  Biso   1.000  C
  C208     1.0000 0.09880  0.54940  0.94990  Biso   1.000  C
  C209     1.0000 0.03140  0.51570  0.98370  Biso   1.000  C
  C210     1.0000 0.16400  0.58200  0.91330  Biso   1.000  C
  C211     1.0000 0.45060  0.54940  0.55010  Biso   1.000  C
  C212     1.0000 0.48430  0.51570  0.51630  Biso   1.000  C
  C213     1.0000 0.41800  0.58200  0.58670  Biso   1.000  C
  C214     1.0000 0.09880  0.54940  0.55010  Biso   1.000  C
  C215     1.0000 0.03140  0.51570  0.51630  Biso   1.000  C
  C216     1.0000 0.16400  0.58200  0.58670  Biso   1.000  C
  C217     1.0000 0.45060  0.90120  0.55010  Biso   1.000  C
  C218     1.0000 0.48430  0.96860  0.51630  Biso   1.000  C
  C219     1.0000 0.41800  0.83600  0.58670  Biso   1.000  C
  C220     1.0000 0.54940  0.45060  0.05010  Biso   1.000  C
  C221     1.0000 0.51570  0.48430  0.01630  Biso   1.000  C
  C222     1.0000 0.58200  0.41800  0.08670  Biso   1.000  C
  C223     1.0000 0.90120  0.45060  0.05010  Biso   1.000  C
  C224     1.0000 0.96860  0.48430  0.01630  Biso   1.000  C
  C225     1.0000 0.83600  0.41800  0.08670  Biso   1.000  C
  C226     1.0000 0.54940  0.09880  0.05010  Biso   1.000  C
  C227     1.0000 0.51570  0.03140  0.01630  Biso   1.000  C
  C228     1.0000 0.58200  0.16400  0.08670  Biso   1.000  C
  C229     1.0000 0.55840  0.55840  0.50000  Biso   1.000  C
  C230     1.0000 0.44160  0.00000  0.50000  Biso   1.000  C
  C231     1.0000 0.00000  0.44160  0.50000  Biso   1.000  C
  C232     1.0000 0.44160  0.44160  0.00000  Biso   1.000  C
  C233     1.0000 0.55840  0.00000  0.00000  Biso   1.000  C
  C234     1.0000 0.00000  0.55840  0.00000  Biso   1.000  C
  C235     1.0000 0.44160  0.44160  0.50000  Biso   1.000  C
  C236     1.0000 0.55840  0.00000  0.50000  Biso   1.000  C
  C237     1.0000 0.00000  0.55840  0.50000  Biso   1.000  C
  C238     1.0000 0.55840  0.55840  0.00000  Biso   1.000  C
  C239     1.0000 0.44160  0.00000  0.00000  Biso   1.000  C
  C240     1.0000 0.00000  0.44160  0.00000  Biso   1.000  C
