data_image0
_cell_length_a       13.6556
_cell_length_b       28.194
_cell_length_c       17.2693
_cell_angle_alpha    90
_cell_angle_beta     107.08
_cell_angle_gamma    90

_symmetry_space_group_name_H-M    "P 1"
_symmetry_int_tables_number       1

loop_
  _symmetry_equiv_pos_as_xyz
  'x, y, z'

loop_
  _atom_site_label
  _atom_site_occupancy
  _atom_site_fract_x
  _atom_site_fract_y
  _atom_site_fract_z
  _atom_site_thermal_displace_type
  _atom_site_B_iso_or_equiv
  _atom_site_type_symbol
  C1       1.0000 0.54670  0.44710  0.64000  Biso   1.000  C
  C2       1.0000 0.44230  0.46080  0.57920  Biso   1.000  C
  C3       1.0000 0.29530  0.34030  0.66620  Biso   1.000  C
  C4       1.0000 0.21640  0.37680  0.67980  Biso   1.000  C
  C5       1.0000 0.90260  0.29790  0.56640  Biso   1.000  C
  C6       1.0000 0.95990  0.29690  0.50020  Biso   1.000  C
  C7       1.0000 0.47220  0.48930  0.82740  Biso   1.000  C
  C8       1.0000 0.48600  0.44200  0.86950  Biso   1.000  C
  C9       1.0000 0.18580  0.25130  0.81990  Biso   1.000  C
  C10      1.0000 0.18920  0.20760  0.76490  Biso   1.000  C
  C11      1.0000 0.72230  0.41300  0.46010  Biso   1.000  C
  C12      1.0000 0.62470  0.38350  0.45660  Biso   1.000  C
  O1       1.0000 0.62620  0.45730  0.62370  Biso   1.000  O
  O2       1.0000 0.44220  0.48178  0.51670  Biso   1.000  O
  O3       1.0000 0.54060  0.42601  0.70370  Biso   1.000  O
  O4       1.0000 0.36510  0.44763  0.59920  Biso   1.000  O
  O5       1.0000 0.38290  0.35634  0.67490  Biso   1.000  O
  O6       1.0000 0.25430  0.41752  0.70490  Biso   1.000  O
  O7       1.0000 0.26660  0.29953  0.64750  Biso   1.000  O
  O8       1.0000 0.12730  0.36380  0.66580  Biso   1.000  O
  O9       1.0000 0.95230  0.28780  0.63610  Biso   1.000  O
  O10      1.0000 0.05240  0.28672  0.52150  Biso   1.000  O
  O11      1.0000 0.80930  0.30770  0.54080  Biso   1.000  O
  O12      1.0000 0.90500  0.30618  0.42930  Biso   1.000  O
  O13      1.0000 0.72400  0.45543  0.47600  Biso   1.000  O
  O14      1.0000 0.55560  0.40184  0.47780  Biso   1.000  O
  O15      1.0000 0.41820  0.48868  0.75280  Biso   1.000  O
  O16      1.0000 0.45060  0.40592  0.82600  Biso   1.000  O
  O17      1.0000 0.51380  0.52474  0.86530  Biso   1.000  O
  O18      1.0000 0.52930  0.44018  0.94480  Biso   1.000  O
  O19      1.0000 0.15370  0.28958  0.78680  Biso   1.000  O
  O20      1.0000 0.15790  0.21283  0.69140  Biso   1.000  O
  O21      1.0000 0.21810  0.24343  0.89430  Biso   1.000  O
  O22      1.0000 0.22340  0.17039  0.80380  Biso   1.000  O
  O23      1.0000 0.79410  0.39000  0.44360  Biso   1.000  O
  O24      1.0000 0.62700  0.34040  0.43230  Biso   1.000  O
  Cr1      1.0000 0.40076  0.42336  0.71085  Biso   1.000  Cr
  Cr2      1.0000 0.76189  0.32230  0.42276  Biso   1.000  Cr
  Mn1      1.0000 0.59197  0.48837  0.49746  Biso   1.000  Mn
  Mn2      1.0000 0.11553  0.28588  0.65367  Biso   1.000  Mn
  O25      1.0000 0.68400  0.54590  0.56350  Biso   1.000  O
  C13      1.0000 0.77180  0.54050  0.63010  Biso   1.000  C
  O26      1.0000 0.70800  0.53670  0.58000  Biso   1.000  O
  C14      1.0000 0.04670  0.94710  0.64000  Biso   1.000  C
  C15      1.0000 0.94230  0.96080  0.57920  Biso   1.000  C
  C16      1.0000 0.79530  0.84030  0.66620  Biso   1.000  C
  C17      1.0000 0.71640  0.87680  0.67980  Biso   1.000  C
  C18      1.0000 0.40260  0.79790  0.56640  Biso   1.000  C
  C19      1.0000 0.45990  0.79690  0.50020  Biso   1.000  C
  C20      1.0000 0.97220  0.98930  0.82740  Biso   1.000  C
  C21      1.0000 0.98600  0.94200  0.86950  Biso   1.000  C
  C22      1.0000 0.68580  0.75130  0.81990  Biso   1.000  C
  C23      1.0000 0.68920  0.70760  0.76490  Biso   1.000  C
  C24      1.0000 0.22230  0.91300  0.46010  Biso   1.000  C
  C25      1.0000 0.12470  0.88350  0.45660  Biso   1.000  C
  O27      1.0000 0.12620  0.95730  0.62370  Biso   1.000  O
  O28      1.0000 0.94220  0.98178  0.51670  Biso   1.000  O
  O29      1.0000 0.04060  0.92601  0.70370  Biso   1.000  O
  O30      1.0000 0.86510  0.94763  0.59920  Biso   1.000  O
  O31      1.0000 0.88290  0.85634  0.67490  Biso   1.000  O
  O32      1.0000 0.75430  0.91752  0.70490  Biso   1.000  O
  O33      1.0000 0.76660  0.79953  0.64750  Biso   1.000  O
  O34      1.0000 0.62730  0.86380  0.66580  Biso   1.000  O
  O35      1.0000 0.45230  0.78780  0.63610  Biso   1.000  O
  O36      1.0000 0.55240  0.78672  0.52150  Biso   1.000  O
  O37      1.0000 0.30930  0.80770  0.54080  Biso   1.000  O
  O38      1.0000 0.40500  0.80618  0.42930  Biso   1.000  O
  O39      1.0000 0.22400  0.95543  0.47600  Biso   1.000  O
  O40      1.0000 0.05560  0.90184  0.47780  Biso   1.000  O
  O41      1.0000 0.91820  0.98868  0.75280  Biso   1.000  O
  O42      1.0000 0.95060  0.90592  0.82600  Biso   1.000  O
  O43      1.0000 0.01380  0.02474  0.86530  Biso   1.000  O
  O44      1.0000 0.02930  0.94018  0.94480  Biso   1.000  O
  O45      1.0000 0.65370  0.78958  0.78680  Biso   1.000  O
  O46      1.0000 0.65790  0.71283  0.69140  Biso   1.000  O
  O47      1.0000 0.71810  0.74343  0.89430  Biso   1.000  O
  O48      1.0000 0.72340  0.67039  0.80380  Biso   1.000  O
  O49      1.0000 0.29410  0.89000  0.44360  Biso   1.000  O
  O50      1.0000 0.12700  0.84040  0.43230  Biso   1.000  O
  Cr3      1.0000 0.90076  0.92336  0.71085  Biso   1.000  Cr
  Cr4      1.0000 0.26189  0.82230  0.42276  Biso   1.000  Cr
  Mn3      1.0000 0.09197  0.98837  0.49746  Biso   1.000  Mn
  Mn4      1.0000 0.61553  0.78588  0.65367  Biso   1.000  Mn
  O51      1.0000 0.18400  0.04590  0.56350  Biso   1.000  O
  C26      1.0000 0.27180  0.04050  0.63010  Biso   1.000  C
  O52      1.0000 0.20800  0.03670  0.58000  Biso   1.000  O
  C27      1.0000 0.54670  0.55290  0.14000  Biso   1.000  C
  C28      1.0000 0.44230  0.53920  0.07920  Biso   1.000  C
  C29      1.0000 0.29530  0.65970  0.16620  Biso   1.000  C
  C30      1.0000 0.21640  0.62320  0.17980  Biso   1.000  C
  C31      1.0000 0.90260  0.70210  0.06640  Biso   1.000  C
  C32      1.0000 0.95990  0.70310  0.00020  Biso   1.000  C
  C33      1.0000 0.47220  0.51070  0.32740  Biso   1.000  C
  C34      1.0000 0.48600  0.55800  0.36950  Biso   1.000  C
  C35      1.0000 0.18580  0.74870  0.31990  Biso   1.000  C
  C36      1.0000 0.18920  0.79240  0.26490  Biso   1.000  C
  C37      1.0000 0.72230  0.58700  0.96010  Biso   1.000  C
  C38      1.0000 0.62470  0.61650  0.95660  Biso   1.000  C
  O53      1.0000 0.62620  0.54270  0.12370  Biso   1.000  O
  O54      1.0000 0.44220  0.51822  0.01670  Biso   1.000  O
  O55      1.0000 0.54060  0.57399  0.20370  Biso   1.000  O
  O56      1.0000 0.36510  0.55237  0.09920  Biso   1.000  O
  O57      1.0000 0.38290  0.64366  0.17490  Biso   1.000  O
  O58      1.0000 0.25430  0.58248  0.20490  Biso   1.000  O
  O59      1.0000 0.26660  0.70047  0.14750  Biso   1.000  O
  O60      1.0000 0.12730  0.63620  0.16580  Biso   1.000  O
  O61      1.0000 0.95230  0.71220  0.13610  Biso   1.000  O
  O62      1.0000 0.05240  0.71328  0.02150  Biso   1.000  O
  O63      1.0000 0.80930  0.69230  0.04080  Biso   1.000  O
  O64      1.0000 0.90500  0.69382  0.92930  Biso   1.000  O
  O65      1.0000 0.72400  0.54457  0.97600  Biso   1.000  O
  O66      1.0000 0.55560  0.59816  0.97780  Biso   1.000  O
  O67      1.0000 0.41820  0.51132  0.25280  Biso   1.000  O
  O68      1.0000 0.45060  0.59408  0.32600  Biso   1.000  O
  O69      1.0000 0.51380  0.47526  0.36530  Biso   1.000  O
  O70      1.0000 0.52930  0.55982  0.44480  Biso   1.000  O
  O71      1.0000 0.15370  0.71042  0.28680  Biso   1.000  O
  O72      1.0000 0.15790  0.78717  0.19140  Biso   1.000  O
  O73      1.0000 0.21810  0.75657  0.39430  Biso   1.000  O
  O74      1.0000 0.22340  0.82961  0.30380  Biso   1.000  O
  O75      1.0000 0.79410  0.61000  0.94360  Biso   1.000  O
  O76      1.0000 0.62700  0.65960  0.93230  Biso   1.000  O
  Cr5      1.0000 0.40076  0.57664  0.21085  Biso   1.000  Cr
  Cr6      1.0000 0.76189  0.67770  0.92276  Biso   1.000  Cr
  Mn5      1.0000 0.59197  0.51163  0.99746  Biso   1.000  Mn
  Mn6      1.0000 0.11553  0.71412  0.15367  Biso   1.000  Mn
  O77      1.0000 0.68400  0.45410  0.06350  Biso   1.000  O
  C39      1.0000 0.77180  0.45950  0.13010  Biso   1.000  C
  O78      1.0000 0.70800  0.46330  0.08000  Biso   1.000  O
  C40      1.0000 0.04670  0.05290  0.14000  Biso   1.000  C
  C41      1.0000 0.94230  0.03920  0.07920  Biso   1.000  C
  C42      1.0000 0.79530  0.15970  0.16620  Biso   1.000  C
  C43      1.0000 0.71640  0.12320  0.17980  Biso   1.000  C
  C44      1.0000 0.40260  0.20210  0.06640  Biso   1.000  C
  C45      1.0000 0.45990  0.20310  0.00020  Biso   1.000  C
  C46      1.0000 0.97220  0.01070  0.32740  Biso   1.000  C
  C47      1.0000 0.98600  0.05800  0.36950  Biso   1.000  C
  C48      1.0000 0.68580  0.24870  0.31990  Biso   1.000  C
  C49      1.0000 0.68920  0.29240  0.26490  Biso   1.000  C
  C50      1.0000 0.22230  0.08700  0.96010  Biso   1.000  C
  C51      1.0000 0.12470  0.11650  0.95660  Biso   1.000  C
  O79      1.0000 0.12620  0.04270  0.12370  Biso   1.000  O
  O80      1.0000 0.94220  0.01822  0.01670  Biso   1.000  O
  O81      1.0000 0.04060  0.07399  0.20370  Biso   1.000  O
  O82      1.0000 0.86510  0.05237  0.09920  Biso   1.000  O
  O83      1.0000 0.88290  0.14366  0.17490  Biso   1.000  O
  O84      1.0000 0.75430  0.08248  0.20490  Biso   1.000  O
  O85      1.0000 0.76660  0.20047  0.14750  Biso   1.000  O
  O86      1.0000 0.62730  0.13620  0.16580  Biso   1.000  O
  O87      1.0000 0.45230  0.21220  0.13610  Biso   1.000  O
  O88      1.0000 0.55240  0.21328  0.02150  Biso   1.000  O
  O89      1.0000 0.30930  0.19230  0.04080  Biso   1.000  O
  O90      1.0000 0.40500  0.19382  0.92930  Biso   1.000  O
  O91      1.0000 0.22400  0.04457  0.97600  Biso   1.000  O
  O92      1.0000 0.05560  0.09816  0.97780  Biso   1.000  O
  O93      1.0000 0.91820  0.01132  0.25280  Biso   1.000  O
  O94      1.0000 0.95060  0.09408  0.32600  Biso   1.000  O
  O95      1.0000 0.01380  0.97526  0.36530  Biso   1.000  O
  O96      1.0000 0.02930  0.05982  0.44480  Biso   1.000  O
  O97      1.0000 0.65370  0.21042  0.28680  Biso   1.000  O
  O98      1.0000 0.65790  0.28717  0.19140  Biso   1.000  O
  O99      1.0000 0.71810  0.25657  0.39430  Biso   1.000  O
  O100     1.0000 0.72340  0.32961  0.30380  Biso   1.000  O
  O101     1.0000 0.29410  0.11000  0.94360  Biso   1.000  O
  O102     1.0000 0.12700  0.15960  0.93230  Biso   1.000  O
  Cr7      1.0000 0.90076  0.07664  0.21085  Biso   1.000  Cr
  Cr8      1.0000 0.26189  0.17770  0.92276  Biso   1.000  Cr
  Mn7      1.0000 0.09197  0.01163  0.99746  Biso   1.000  Mn
  Mn8      1.0000 0.61553  0.21412  0.15367  Biso   1.000  Mn
  O103     1.0000 0.18400  0.95410  0.06350  Biso   1.000  O
  C52      1.0000 0.27180  0.95950  0.13010  Biso   1.000  C
  O104     1.0000 0.20800  0.96330  0.08000  Biso   1.000  O
