data_image0
_cell_length_a       28.18
_cell_length_b       18.404
_cell_length_c       32.044
_cell_angle_alpha    90
_cell_angle_beta     112.174
_cell_angle_gamma    90

_symmetry_space_group_name_H-M    "P 1"
_symmetry_int_tables_number       1

loop_
  _symmetry_equiv_pos_as_xyz
  'x, y, z'

loop_
  _atom_site_label
  _atom_site_occupancy
  _atom_site_fract_x
  _atom_site_fract_y
  _atom_site_fract_z
  _atom_site_thermal_displace_type
  _atom_site_B_iso_or_equiv
  _atom_site_type_symbol
  C1       1.0000 0.47340  0.25090  0.25486  Biso   1.000  C
  C2       1.0000 0.52470  0.21090  0.26944  Biso   1.000  C
  C3       1.0000 0.60807  0.20390  0.32878  Biso   1.000  C
  C4       1.0000 0.63446  0.21940  0.37454  Biso   1.000  C
  H1       1.0000 0.61910  0.24850  0.38960  Biso   1.000  H
  C5       1.0000 0.68343  0.19180  0.39773  Biso   1.000  C
  C6       1.0000 0.70600  0.14940  0.37608  Biso   1.000  C
  H2       1.0000 0.73870  0.13110  0.39180  Biso   1.000  H
  C7       1.0000 0.68095  0.13280  0.33064  Biso   1.000  C
  C8       1.0000 0.63209  0.16000  0.30677  Biso   1.000  C
  H3       1.0000 0.61540  0.14910  0.27640  Biso   1.000  H
  C9       1.0000 0.70842  0.20660  0.44758  Biso   1.000  C
  C10      1.0000 0.70481  0.08220  0.30767  Biso   1.000  C
  C11      1.0000 0.39055  0.25860  0.19192  Biso   1.000  C
  C12      1.0000 0.36575  0.23390  0.14790  Biso   1.000  C
  H4       1.0000 0.38150  0.20050  0.13540  Biso   1.000  H
  C13      1.0000 0.31703  0.26020  0.12302  Biso   1.000  C
  C14      1.0000 0.29355  0.31090  0.14090  Biso   1.000  C
  H5       1.0000 0.26090  0.32810  0.12380  Biso   1.000  H
  C15      1.0000 0.31950  0.33600  0.18526  Biso   1.000  C
  C16      1.0000 0.36747  0.30900  0.21063  Biso   1.000  C
  H6       1.0000 0.38440  0.32450  0.24020  Biso   1.000  H
  C17      1.0000 0.29494  0.39480  0.20318  Biso   1.000  C
  C18      1.0000 0.29093  0.24060  0.07478  Biso   1.000  C
  C19      1.0000 0.01970  0.21310  0.78380  Biso   1.000  C
  C20      1.0000 0.96890  0.23070  0.74470  Biso   1.000  C
  C21      1.0000 0.10810  0.18410  0.79130  Biso   1.000  C
  C22      1.0000 0.13124  0.19940  0.83608  Biso   1.000  C
  H7       1.0000 0.11280  0.22130  0.85140  Biso   1.000  H
  C23      1.0000 0.18285  0.18180  0.85884  Biso   1.000  C
  C24      1.0000 0.20982  0.14650  0.83638  Biso   1.000  C
  H8       1.0000 0.24400  0.13390  0.85180  Biso   1.000  H
  C25      1.0000 0.18568  0.12990  0.79090  Biso   1.000  C
  C26      1.0000 0.13380  0.14650  0.76858  Biso   1.000  C
  H9       1.0000 0.11650  0.13250  0.73880  Biso   1.000  H
  C27      1.0000 0.21272  0.08670  0.76646  Biso   1.000  C
  C28      1.0000 0.20760  0.19620  0.90758  Biso   1.000  C
  C29      1.0000 0.88380  0.27470  0.73174  Biso   1.000  C
  C30      1.0000 0.85973  0.24970  0.68734  Biso   1.000  C
  H10      1.0000 0.87660  0.21710  0.67550  Biso   1.000  H
  C31      1.0000 0.81115  0.27360  0.66120  Biso   1.000  C
  C32      1.0000 0.78596  0.32130  0.67933  Biso   1.000  C
  H11      1.0000 0.75310  0.33730  0.66190  Biso   1.000  H
  C33      1.0000 0.80969  0.34530  0.72343  Biso   1.000  C
  C34      1.0000 0.85784  0.32020  0.74982  Biso   1.000  C
  H12      1.0000 0.87280  0.33400  0.77990  Biso   1.000  H
  C35      1.0000 0.78468  0.40320  0.74175  Biso   1.000  C
  C36      1.0000 0.78749  0.25210  0.61332  Biso   1.000  C
  C37      1.0000 0.47340  0.50860  0.99490  Biso   1.000  C
  C38      1.0000 0.38640  0.46560  0.97090  Biso   1.000  C
  C39      1.0000 0.36278  0.40220  0.97430  Biso   1.000  C
  H13      1.0000 0.38060  0.35860  0.97830  Biso   1.000  H
  C40      1.0000 0.31266  0.40200  0.97203  Biso   1.000  C
  C41      1.0000 0.28574  0.46770  0.96665  Biso   1.000  C
  H14      1.0000 0.25210  0.46820  0.96510  Biso   1.000  H
  C42      1.0000 0.31044  0.53280  0.96357  Biso   1.000  C
  C43      1.0000 0.36020  0.53280  0.96610  Biso   1.000  C
  H15      1.0000 0.37640  0.57620  0.96470  Biso   1.000  H
  C44      1.0000 0.28396  0.60420  0.96183  Biso   1.000  C
  C45      1.0000 0.28836  0.33250  0.97827  Biso   1.000  C
  C46      1.0000 0.02580  0.01230  0.99980  Biso   1.000  C
  C47      1.0000 0.10571  0.96480  0.99878  Biso   1.000  C
  C48      1.0000 0.13169  0.03080  0.00183  Biso   1.000  C
  H16      1.0000 0.11620  0.07380  0.00530  Biso   1.000  H
  C49      1.0000 0.17915  0.03320  0.99983  Biso   1.000  C
  C50      1.0000 0.20326  0.96850  0.99388  Biso   1.000  C
  H17      1.0000 0.23560  0.96970  0.99230  Biso   1.000  H
  C51      1.0000 0.17683  0.90230  0.99035  Biso   1.000  C
  C52      1.0000 0.12930  0.89990  0.99184  Biso   1.000  C
  H18      1.0000 0.11210  0.85580  0.98830  Biso   1.000  H
  C53      1.0000 0.20230  0.83460  0.98152  Biso   1.000  C
  C54      1.0000 0.20665  0.10230  0.00047  Biso   1.000  C
  Cu1      1.0000 0.28968  0.18149  0.99279  Biso   1.000  Cu
  Cu2      1.0000 0.71119  0.26117  0.52825  Biso   1.000  Cu
  Cu3      1.0000 0.78634  0.99316  0.30746  Biso   1.000  Cu
  Cu4      1.0000 0.79545  0.18672  0.53285  Biso   1.000  Cu
  Cu5      1.0000 0.20714  0.25395  0.98990  Biso   1.000  Cu
  Cu6      1.0000 0.70338  0.99902  0.23219  Biso   1.000  Cu
  N1       1.0000 0.55939  0.23160  0.30685  Biso   1.000  N
  H19      1.0000 0.55120  0.26750  0.32000  Biso   1.000  H
  N2       1.0000 0.44038  0.23330  0.21518  Biso   1.000  N
  H20      1.0000 0.45080  0.20120  0.20110  Biso   1.000  H
  N3       1.0000 0.05820  0.19890  0.76740  Biso   1.000  N
  H21      1.0000 0.04900  0.19960  0.73860  Biso   1.000  H
  N4       1.0000 0.93304  0.24980  0.75948  Biso   1.000  N
  H22      1.0000 0.94010  0.24700  0.78800  Biso   1.000  H
  N5       1.0000 0.43800  0.46230  0.97760  Biso   1.000  N
  H23      1.0000 0.44750  0.42280  0.96860  Biso   1.000  H
  N6       1.0000 0.05713  0.95930  0.00022  Biso   1.000  N
  H24      1.0000 0.04630  0.91590  0.00150  Biso   1.000  H
  O1       1.0000 0.68555  0.24702  0.46482  Biso   1.000  O
  O2       1.0000 0.75261  0.17913  0.46722  Biso   1.000  O
  O3       1.0000 0.74886  0.06022  0.33025  Biso   1.000  O
  O4       1.0000 0.67962  0.06735  0.26688  Biso   1.000  O
  O5       1.0000 0.32140  0.41896  0.24183  Biso   1.000  O
  O6       1.0000 0.25050  0.41247  0.17928  Biso   1.000  O
  O7       1.0000 0.24715  0.26856  0.05357  Biso   1.000  O
  O8       1.0000 0.31448  0.19903  0.05749  Biso   1.000  O
  O9       1.0000 0.18025  0.22715  0.92614  Biso   1.000  O
  O10      1.0000 0.25340  0.17619  0.92745  Biso   1.000  O
  O11      1.0000 0.25827  0.06969  0.79001  Biso   1.000  O
  O12      1.0000 0.18752  0.07211  0.72663  Biso   1.000  O
  O13      1.0000 0.80909  0.42468  0.78065  Biso   1.000  O
  O14      1.0000 0.73955  0.42191  0.71645  Biso   1.000  O
  O15      1.0000 0.74251  0.27298  0.59240  Biso   1.000  O
  O16      1.0000 0.81452  0.21554  0.59744  Biso   1.000  O
  O17      1.0000 0.24224  0.33670  0.97610  Biso   1.000  O
  O18      1.0000 0.31472  0.27733  0.98529  Biso   1.000  O
  O19      1.0000 0.23779  0.60045  0.95797  Biso   1.000  O
  O20      1.0000 0.31028  0.66017  0.96505  Biso   1.000  O
  O21      1.0000 0.18267  0.15986  0.00273  Biso   1.000  O
  O22      1.0000 0.24951  0.09863  0.99856  Biso   1.000  O
  O23      1.0000 0.17687  0.77643  0.97848  Biso   1.000  O
  O24      1.0000 0.24514  0.84091  0.97884  Biso   1.000  O
  O25      1.0000 0.52360  0.14690  0.25120  Biso   1.000  O
  O26      1.0000 0.46180  0.27980  0.28520  Biso   1.000  O
  O27      1.0000 0.02350  0.20590  0.82270  Biso   1.000  O
  O28      1.0000 0.96640  0.23600  0.70300  Biso   1.000  O
  O29      1.0000 0.46780  0.56450  0.01780  Biso   1.000  O
  O30      1.0000 0.03520  0.07650  0.00108  Biso   1.000  O
  O31      1.0000 0.53620  0.18210  0.23750  Biso   1.000  O
  O32      1.0000 0.47300  0.31130  0.27410  Biso   1.000  O
  O33      1.0000 0.03310  0.24940  0.81920  Biso   1.000  O
  C55      1.0000 0.52660  0.75090  0.24514  Biso   1.000  C
  C56      1.0000 0.47530  0.71090  0.23056  Biso   1.000  C
  C57      1.0000 0.39193  0.70390  0.17122  Biso   1.000  C
  C58      1.0000 0.36554  0.71940  0.12546  Biso   1.000  C
  H25      1.0000 0.38090  0.74850  0.11040  Biso   1.000  H
  C59      1.0000 0.31657  0.69180  0.10227  Biso   1.000  C
  C60      1.0000 0.29400  0.64940  0.12392  Biso   1.000  C
  H26      1.0000 0.26130  0.63110  0.10820  Biso   1.000  H
  C61      1.0000 0.31905  0.63280  0.16936  Biso   1.000  C
  C62      1.0000 0.36791  0.66000  0.19323  Biso   1.000  C
  H27      1.0000 0.38460  0.64910  0.22360  Biso   1.000  H
  C63      1.0000 0.29158  0.70660  0.05242  Biso   1.000  C
  C64      1.0000 0.29519  0.58220  0.19233  Biso   1.000  C
  C65      1.0000 0.60945  0.75860  0.30808  Biso   1.000  C
  C66      1.0000 0.63425  0.73390  0.35210  Biso   1.000  C
  H28      1.0000 0.61850  0.70050  0.36460  Biso   1.000  H
  C67      1.0000 0.68297  0.76020  0.37698  Biso   1.000  C
  C68      1.0000 0.70645  0.81090  0.35910  Biso   1.000  C
  H29      1.0000 0.73910  0.82810  0.37620  Biso   1.000  H
  C69      1.0000 0.68050  0.83600  0.31474  Biso   1.000  C
  C70      1.0000 0.63253  0.80900  0.28937  Biso   1.000  C
  H30      1.0000 0.61560  0.82450  0.25980  Biso   1.000  H
  C71      1.0000 0.70506  0.89480  0.29682  Biso   1.000  C
  C72      1.0000 0.70907  0.74060  0.42522  Biso   1.000  C
  C73      1.0000 0.98030  0.71310  0.71620  Biso   1.000  C
  C74      1.0000 0.03110  0.73070  0.75530  Biso   1.000  C
  C75      1.0000 0.89190  0.68410  0.70870  Biso   1.000  C
  C76      1.0000 0.86876  0.69940  0.66392  Biso   1.000  C
  H31      1.0000 0.88720  0.72130  0.64860  Biso   1.000  H
  C77      1.0000 0.81715  0.68180  0.64116  Biso   1.000  C
  C78      1.0000 0.79018  0.64650  0.66362  Biso   1.000  C
  H32      1.0000 0.75600  0.63390  0.64820  Biso   1.000  H
  C79      1.0000 0.81432  0.62990  0.70910  Biso   1.000  C
  C80      1.0000 0.86620  0.64650  0.73142  Biso   1.000  C
  H33      1.0000 0.88350  0.63250  0.76120  Biso   1.000  H
  C81      1.0000 0.78728  0.58670  0.73354  Biso   1.000  C
  C82      1.0000 0.79240  0.69620  0.59242  Biso   1.000  C
  C83      1.0000 0.11620  0.77470  0.76826  Biso   1.000  C
  C84      1.0000 0.14027  0.74970  0.81266  Biso   1.000  C
  H34      1.0000 0.12340  0.71710  0.82450  Biso   1.000  H
  C85      1.0000 0.18885  0.77360  0.83880  Biso   1.000  C
  C86      1.0000 0.21404  0.82130  0.82067  Biso   1.000  C
  H35      1.0000 0.24690  0.83730  0.83810  Biso   1.000  H
  C87      1.0000 0.19031  0.84530  0.77657  Biso   1.000  C
  C88      1.0000 0.14216  0.82020  0.75018  Biso   1.000  C
  H36      1.0000 0.12720  0.83400  0.72010  Biso   1.000  H
  C89      1.0000 0.21532  0.90320  0.75825  Biso   1.000  C
  C90      1.0000 0.21251  0.75210  0.88668  Biso   1.000  C
  C91      1.0000 0.52660  0.00860  0.50510  Biso   1.000  C
  C92      1.0000 0.61360  0.96560  0.52910  Biso   1.000  C
  C93      1.0000 0.63722  0.90220  0.52570  Biso   1.000  C
  H37      1.0000 0.61940  0.85860  0.52170  Biso   1.000  H
  C94      1.0000 0.68734  0.90200  0.52797  Biso   1.000  C
  C95      1.0000 0.71426  0.96770  0.53335  Biso   1.000  C
  H38      1.0000 0.74790  0.96820  0.53490  Biso   1.000  H
  C96      1.0000 0.68956  0.03280  0.53643  Biso   1.000  C
  C97      1.0000 0.63980  0.03280  0.53390  Biso   1.000  C
  H39      1.0000 0.62360  0.07620  0.53530  Biso   1.000  H
  C98      1.0000 0.71604  0.10420  0.53817  Biso   1.000  C
  C99      1.0000 0.71164  0.83250  0.52173  Biso   1.000  C
  C100     1.0000 0.97420  0.51230  0.50020  Biso   1.000  C
  C101     1.0000 0.89429  0.46480  0.50122  Biso   1.000  C
  C102     1.0000 0.86831  0.53080  0.49817  Biso   1.000  C
  H40      1.0000 0.88380  0.57380  0.49470  Biso   1.000  H
  C103     1.0000 0.82085  0.53320  0.50017  Biso   1.000  C
  C104     1.0000 0.79674  0.46850  0.50612  Biso   1.000  C
  H41      1.0000 0.76440  0.46970  0.50770  Biso   1.000  H
  C105     1.0000 0.82317  0.40230  0.50965  Biso   1.000  C
  C106     1.0000 0.87070  0.39990  0.50816  Biso   1.000  C
  H42      1.0000 0.88790  0.35580  0.51170  Biso   1.000  H
  C107     1.0000 0.79770  0.33460  0.51848  Biso   1.000  C
  C108     1.0000 0.79335  0.60230  0.49953  Biso   1.000  C
  Cu7      1.0000 0.71032  0.68149  0.50721  Biso   1.000  Cu
  Cu8      1.0000 0.28881  0.76117  0.97175  Biso   1.000  Cu
  Cu9      1.0000 0.21365  0.49316  0.19254  Biso   1.000  Cu
  Cu10     1.0000 0.20455  0.68672  0.96715  Biso   1.000  Cu
  Cu11     1.0000 0.79286  0.75395  0.51010  Biso   1.000  Cu
  Cu12     1.0000 0.29662  0.49902  0.26781  Biso   1.000  Cu
  N7       1.0000 0.44061  0.73160  0.19315  Biso   1.000  N
  H43      1.0000 0.44880  0.76750  0.18000  Biso   1.000  H
  N8       1.0000 0.55962  0.73330  0.28482  Biso   1.000  N
  H44      1.0000 0.54920  0.70120  0.29890  Biso   1.000  H
  N9       1.0000 0.94180  0.69890  0.73260  Biso   1.000  N
  H45      1.0000 0.95100  0.69960  0.76140  Biso   1.000  H
  N10      1.0000 0.06696  0.74980  0.74052  Biso   1.000  N
  H46      1.0000 0.05990  0.74700  0.71200  Biso   1.000  H
  N11      1.0000 0.56200  0.96230  0.52240  Biso   1.000  N
  H47      1.0000 0.55250  0.92280  0.53140  Biso   1.000  H
  N12      1.0000 0.94287  0.45930  0.49978  Biso   1.000  N
  H48      1.0000 0.95370  0.41590  0.49850  Biso   1.000  H
  O34      1.0000 0.31445  0.74702  0.03518  Biso   1.000  O
  O35      1.0000 0.24739  0.67913  0.03278  Biso   1.000  O
  O36      1.0000 0.25114  0.56022  0.16975  Biso   1.000  O
  O37      1.0000 0.32038  0.56735  0.23312  Biso   1.000  O
  O38      1.0000 0.67860  0.91896  0.25817  Biso   1.000  O
  O39      1.0000 0.74950  0.91247  0.32072  Biso   1.000  O
  O40      1.0000 0.75285  0.76856  0.44643  Biso   1.000  O
  O41      1.0000 0.68552  0.69903  0.44251  Biso   1.000  O
  O42      1.0000 0.81975  0.72715  0.57386  Biso   1.000  O
  O43      1.0000 0.74660  0.67619  0.57255  Biso   1.000  O
  O44      1.0000 0.74173  0.56969  0.70999  Biso   1.000  O
  O45      1.0000 0.81248  0.57211  0.77337  Biso   1.000  O
  O46      1.0000 0.19091  0.92468  0.71935  Biso   1.000  O
  O47      1.0000 0.26045  0.92191  0.78355  Biso   1.000  O
  O48      1.0000 0.25749  0.77298  0.90760  Biso   1.000  O
  O49      1.0000 0.18548  0.71554  0.90256  Biso   1.000  O
  O50      1.0000 0.75776  0.83670  0.52390  Biso   1.000  O
  O51      1.0000 0.68528  0.77733  0.51471  Biso   1.000  O
  O52      1.0000 0.76221  0.10045  0.54203  Biso   1.000  O
  O53      1.0000 0.68972  0.16017  0.53495  Biso   1.000  O
  O54      1.0000 0.81733  0.65986  0.49727  Biso   1.000  O
  O55      1.0000 0.75049  0.59863  0.50144  Biso   1.000  O
  O56      1.0000 0.82313  0.27643  0.52152  Biso   1.000  O
  O57      1.0000 0.75486  0.34091  0.52116  Biso   1.000  O
  O58      1.0000 0.47640  0.64690  0.24880  Biso   1.000  O
  O59      1.0000 0.53820  0.77980  0.21480  Biso   1.000  O
  O60      1.0000 0.97650  0.70590  0.67730  Biso   1.000  O
  O61      1.0000 0.03360  0.73600  0.79700  Biso   1.000  O
  O62      1.0000 0.53220  0.06450  0.48220  Biso   1.000  O
  O63      1.0000 0.96480  0.57650  0.49892  Biso   1.000  O
  O64      1.0000 0.46380  0.68210  0.26250  Biso   1.000  O
  O65      1.0000 0.52700  0.81130  0.22590  Biso   1.000  O
  O66      1.0000 0.96690  0.74940  0.68080  Biso   1.000  O
  C109     1.0000 0.52660  0.74910  0.74514  Biso   1.000  C
  C110     1.0000 0.47530  0.78910  0.73056  Biso   1.000  C
  C111     1.0000 0.39193  0.79610  0.67122  Biso   1.000  C
  C112     1.0000 0.36554  0.78060  0.62546  Biso   1.000  C
  H49      1.0000 0.38090  0.75150  0.61040  Biso   1.000  H
  C113     1.0000 0.31657  0.80820  0.60227  Biso   1.000  C
  C114     1.0000 0.29400  0.85060  0.62392  Biso   1.000  C
  H50      1.0000 0.26130  0.86890  0.60820  Biso   1.000  H
  C115     1.0000 0.31905  0.86720  0.66936  Biso   1.000  C
  C116     1.0000 0.36791  0.84000  0.69323  Biso   1.000  C
  H51      1.0000 0.38460  0.85090  0.72360  Biso   1.000  H
  C117     1.0000 0.29158  0.79340  0.55242  Biso   1.000  C
  C118     1.0000 0.29519  0.91780  0.69233  Biso   1.000  C
  C119     1.0000 0.60945  0.74140  0.80808  Biso   1.000  C
  C120     1.0000 0.63425  0.76610  0.85210  Biso   1.000  C
  H52      1.0000 0.61850  0.79950  0.86460  Biso   1.000  H
  C121     1.0000 0.68297  0.73980  0.87698  Biso   1.000  C
  C122     1.0000 0.70645  0.68910  0.85910  Biso   1.000  C
  H53      1.0000 0.73910  0.67190  0.87620  Biso   1.000  H
  C123     1.0000 0.68050  0.66400  0.81474  Biso   1.000  C
  C124     1.0000 0.63253  0.69100  0.78937  Biso   1.000  C
  H54      1.0000 0.61560  0.67550  0.75980  Biso   1.000  H
  C125     1.0000 0.70506  0.60520  0.79682  Biso   1.000  C
  C126     1.0000 0.70907  0.75940  0.92522  Biso   1.000  C
  C127     1.0000 0.98030  0.78690  0.21620  Biso   1.000  C
  C128     1.0000 0.03110  0.76930  0.25530  Biso   1.000  C
  C129     1.0000 0.89190  0.81590  0.20870  Biso   1.000  C
  C130     1.0000 0.86876  0.80060  0.16392  Biso   1.000  C
  H55      1.0000 0.88720  0.77870  0.14860  Biso   1.000  H
  C131     1.0000 0.81715  0.81820  0.14116  Biso   1.000  C
  C132     1.0000 0.79018  0.85350  0.16362  Biso   1.000  C
  H56      1.0000 0.75600  0.86610  0.14820  Biso   1.000  H
  C133     1.0000 0.81432  0.87010  0.20910  Biso   1.000  C
  C134     1.0000 0.86620  0.85350  0.23142  Biso   1.000  C
  H57      1.0000 0.88350  0.86750  0.26120  Biso   1.000  H
  C135     1.0000 0.78728  0.91330  0.23354  Biso   1.000  C
  C136     1.0000 0.79240  0.80380  0.09242  Biso   1.000  C
  C137     1.0000 0.11620  0.72530  0.26826  Biso   1.000  C
  C138     1.0000 0.14027  0.75030  0.31266  Biso   1.000  C
  H58      1.0000 0.12340  0.78290  0.32450  Biso   1.000  H
  C139     1.0000 0.18885  0.72640  0.33880  Biso   1.000  C
  C140     1.0000 0.21404  0.67870  0.32067  Biso   1.000  C
  H59      1.0000 0.24690  0.66270  0.33810  Biso   1.000  H
  C141     1.0000 0.19031  0.65470  0.27657  Biso   1.000  C
  C142     1.0000 0.14216  0.67980  0.25018  Biso   1.000  C
  H60      1.0000 0.12720  0.66600  0.22010  Biso   1.000  H
  C143     1.0000 0.21532  0.59680  0.25825  Biso   1.000  C
  C144     1.0000 0.21251  0.74790  0.38668  Biso   1.000  C
  C145     1.0000 0.52660  0.49140  0.00510  Biso   1.000  C
  C146     1.0000 0.61360  0.53440  0.02910  Biso   1.000  C
  C147     1.0000 0.63722  0.59780  0.02570  Biso   1.000  C
  H61      1.0000 0.61940  0.64140  0.02170  Biso   1.000  H
  C148     1.0000 0.68734  0.59800  0.02797  Biso   1.000  C
  C149     1.0000 0.71426  0.53230  0.03335  Biso   1.000  C
  H62      1.0000 0.74790  0.53180  0.03490  Biso   1.000  H
  C150     1.0000 0.68956  0.46720  0.03643  Biso   1.000  C
  C151     1.0000 0.63980  0.46720  0.03390  Biso   1.000  C
  H63      1.0000 0.62360  0.42380  0.03530  Biso   1.000  H
  C152     1.0000 0.71604  0.39580  0.03817  Biso   1.000  C
  C153     1.0000 0.71164  0.66750  0.02173  Biso   1.000  C
  C154     1.0000 0.97420  0.98770  0.00020  Biso   1.000  C
  C155     1.0000 0.89429  0.03520  0.00122  Biso   1.000  C
  C156     1.0000 0.86831  0.96920  0.99817  Biso   1.000  C
  H64      1.0000 0.88380  0.92620  0.99470  Biso   1.000  H
  C157     1.0000 0.82085  0.96680  0.00017  Biso   1.000  C
  C158     1.0000 0.79674  0.03150  0.00612  Biso   1.000  C
  H65      1.0000 0.76440  0.03030  0.00770  Biso   1.000  H
  C159     1.0000 0.82317  0.09770  0.00965  Biso   1.000  C
  C160     1.0000 0.87070  0.10010  0.00816  Biso   1.000  C
  H66      1.0000 0.88790  0.14420  0.01170  Biso   1.000  H
  C161     1.0000 0.79770  0.16540  0.01848  Biso   1.000  C
  C162     1.0000 0.79335  0.89770  0.99953  Biso   1.000  C
  Cu13     1.0000 0.71032  0.81851  0.00721  Biso   1.000  Cu
  Cu14     1.0000 0.28881  0.73883  0.47175  Biso   1.000  Cu
  Cu15     1.0000 0.21365  0.00684  0.69254  Biso   1.000  Cu
  Cu16     1.0000 0.20455  0.81328  0.46715  Biso   1.000  Cu
  Cu17     1.0000 0.79286  0.74605  0.01010  Biso   1.000  Cu
  Cu18     1.0000 0.29662  0.00098  0.76781  Biso   1.000  Cu
  N13      1.0000 0.44061  0.76840  0.69315  Biso   1.000  N
  H67      1.0000 0.44880  0.73250  0.68000  Biso   1.000  H
  N14      1.0000 0.55962  0.76670  0.78482  Biso   1.000  N
  H68      1.0000 0.54920  0.79880  0.79890  Biso   1.000  H
  N15      1.0000 0.94180  0.80110  0.23260  Biso   1.000  N
  H69      1.0000 0.95100  0.80040  0.26140  Biso   1.000  H
  N16      1.0000 0.06696  0.75020  0.24052  Biso   1.000  N
  H70      1.0000 0.05990  0.75300  0.21200  Biso   1.000  H
  N17      1.0000 0.56200  0.53770  0.02240  Biso   1.000  N
  H71      1.0000 0.55250  0.57720  0.03140  Biso   1.000  H
  N18      1.0000 0.94287  0.04070  0.99978  Biso   1.000  N
  H72      1.0000 0.95370  0.08410  0.99850  Biso   1.000  H
  O67      1.0000 0.31445  0.75298  0.53518  Biso   1.000  O
  O68      1.0000 0.24739  0.82087  0.53278  Biso   1.000  O
  O69      1.0000 0.25114  0.93978  0.66975  Biso   1.000  O
  O70      1.0000 0.32038  0.93265  0.73312  Biso   1.000  O
  O71      1.0000 0.67860  0.58104  0.75817  Biso   1.000  O
  O72      1.0000 0.74950  0.58753  0.82072  Biso   1.000  O
  O73      1.0000 0.75285  0.73144  0.94643  Biso   1.000  O
  O74      1.0000 0.68552  0.80097  0.94251  Biso   1.000  O
  O75      1.0000 0.81975  0.77285  0.07386  Biso   1.000  O
  O76      1.0000 0.74660  0.82381  0.07255  Biso   1.000  O
  O77      1.0000 0.74173  0.93031  0.20999  Biso   1.000  O
  O78      1.0000 0.81248  0.92789  0.27337  Biso   1.000  O
  O79      1.0000 0.19091  0.57532  0.21935  Biso   1.000  O
  O80      1.0000 0.26045  0.57809  0.28355  Biso   1.000  O
  O81      1.0000 0.25749  0.72702  0.40760  Biso   1.000  O
  O82      1.0000 0.18548  0.78446  0.40256  Biso   1.000  O
  O83      1.0000 0.75776  0.66330  0.02390  Biso   1.000  O
  O84      1.0000 0.68528  0.72267  0.01471  Biso   1.000  O
  O85      1.0000 0.76221  0.39955  0.04203  Biso   1.000  O
  O86      1.0000 0.68972  0.33983  0.03495  Biso   1.000  O
  O87      1.0000 0.81733  0.84014  0.99727  Biso   1.000  O
  O88      1.0000 0.75049  0.90137  0.00144  Biso   1.000  O
  O89      1.0000 0.82313  0.22357  0.02152  Biso   1.000  O
  O90      1.0000 0.75486  0.15909  0.02116  Biso   1.000  O
  O91      1.0000 0.47640  0.85310  0.74880  Biso   1.000  O
  O92      1.0000 0.53820  0.72020  0.71480  Biso   1.000  O
  O93      1.0000 0.97650  0.79410  0.17730  Biso   1.000  O
  O94      1.0000 0.03360  0.76400  0.29700  Biso   1.000  O
  O95      1.0000 0.53220  0.43550  0.98220  Biso   1.000  O
  O96      1.0000 0.96480  0.92350  0.99892  Biso   1.000  O
  O97      1.0000 0.46380  0.81790  0.76250  Biso   1.000  O
  O98      1.0000 0.52700  0.68870  0.72590  Biso   1.000  O
  O99      1.0000 0.96690  0.75060  0.18080  Biso   1.000  O
  C163     1.0000 0.47340  0.24910  0.75486  Biso   1.000  C
  C164     1.0000 0.52470  0.28910  0.76944  Biso   1.000  C
  C165     1.0000 0.60807  0.29610  0.82878  Biso   1.000  C
  C166     1.0000 0.63446  0.28060  0.87454  Biso   1.000  C
  H73      1.0000 0.61910  0.25150  0.88960  Biso   1.000  H
  C167     1.0000 0.68343  0.30820  0.89773  Biso   1.000  C
  C168     1.0000 0.70600  0.35060  0.87608  Biso   1.000  C
  H74      1.0000 0.73870  0.36890  0.89180  Biso   1.000  H
  C169     1.0000 0.68095  0.36720  0.83064  Biso   1.000  C
  C170     1.0000 0.63209  0.34000  0.80677  Biso   1.000  C
  H75      1.0000 0.61540  0.35090  0.77640  Biso   1.000  H
  C171     1.0000 0.70842  0.29340  0.94758  Biso   1.000  C
  C172     1.0000 0.70481  0.41780  0.80767  Biso   1.000  C
  C173     1.0000 0.39055  0.24140  0.69192  Biso   1.000  C
  C174     1.0000 0.36575  0.26610  0.64790  Biso   1.000  C
  H76      1.0000 0.38150  0.29950  0.63540  Biso   1.000  H
  C175     1.0000 0.31703  0.23980  0.62302  Biso   1.000  C
  C176     1.0000 0.29355  0.18910  0.64090  Biso   1.000  C
  H77      1.0000 0.26090  0.17190  0.62380  Biso   1.000  H
  C177     1.0000 0.31950  0.16400  0.68526  Biso   1.000  C
  C178     1.0000 0.36747  0.19100  0.71063  Biso   1.000  C
  H78      1.0000 0.38440  0.17550  0.74020  Biso   1.000  H
  C179     1.0000 0.29494  0.10520  0.70318  Biso   1.000  C
  C180     1.0000 0.29093  0.25940  0.57478  Biso   1.000  C
  C181     1.0000 0.01970  0.28690  0.28380  Biso   1.000  C
  C182     1.0000 0.96890  0.26930  0.24470  Biso   1.000  C
  C183     1.0000 0.10810  0.31590  0.29130  Biso   1.000  C
  C184     1.0000 0.13124  0.30060  0.33608  Biso   1.000  C
  H79      1.0000 0.11280  0.27870  0.35140  Biso   1.000  H
  C185     1.0000 0.18285  0.31820  0.35884  Biso   1.000  C
  C186     1.0000 0.20982  0.35350  0.33638  Biso   1.000  C
  H80      1.0000 0.24400  0.36610  0.35180  Biso   1.000  H
  C187     1.0000 0.18568  0.37010  0.29090  Biso   1.000  C
  C188     1.0000 0.13380  0.35350  0.26858  Biso   1.000  C
  H81      1.0000 0.11650  0.36750  0.23880  Biso   1.000  H
  C189     1.0000 0.21272  0.41330  0.26646  Biso   1.000  C
  C190     1.0000 0.20760  0.30380  0.40758  Biso   1.000  C
  C191     1.0000 0.88380  0.22530  0.23174  Biso   1.000  C
  C192     1.0000 0.85973  0.25030  0.18734  Biso   1.000  C
  H82      1.0000 0.87660  0.28290  0.17550  Biso   1.000  H
  C193     1.0000 0.81115  0.22640  0.16120  Biso   1.000  C
  C194     1.0000 0.78596  0.17870  0.17933  Biso   1.000  C
  H83      1.0000 0.75310  0.16270  0.16190  Biso   1.000  H
  C195     1.0000 0.80969  0.15470  0.22343  Biso   1.000  C
  C196     1.0000 0.85784  0.17980  0.24982  Biso   1.000  C
  H84      1.0000 0.87280  0.16600  0.27990  Biso   1.000  H
  C197     1.0000 0.78468  0.09680  0.24175  Biso   1.000  C
  C198     1.0000 0.78749  0.24790  0.11332  Biso   1.000  C
  C199     1.0000 0.47340  0.99140  0.49490  Biso   1.000  C
  C200     1.0000 0.38640  0.03440  0.47090  Biso   1.000  C
  C201     1.0000 0.36278  0.09780  0.47430  Biso   1.000  C
  H85      1.0000 0.38060  0.14140  0.47830  Biso   1.000  H
  C202     1.0000 0.31266  0.09800  0.47203  Biso   1.000  C
  C203     1.0000 0.28574  0.03230  0.46665  Biso   1.000  C
  H86      1.0000 0.25210  0.03180  0.46510  Biso   1.000  H
  C204     1.0000 0.31044  0.96720  0.46357  Biso   1.000  C
  C205     1.0000 0.36020  0.96720  0.46610  Biso   1.000  C
  H87      1.0000 0.37640  0.92380  0.46470  Biso   1.000  H
  C206     1.0000 0.28396  0.89580  0.46183  Biso   1.000  C
  C207     1.0000 0.28836  0.16750  0.47827  Biso   1.000  C
  C208     1.0000 0.02580  0.48770  0.49980  Biso   1.000  C
  C209     1.0000 0.10571  0.53520  0.49878  Biso   1.000  C
  C210     1.0000 0.13169  0.46920  0.50183  Biso   1.000  C
  H88      1.0000 0.11620  0.42620  0.50530  Biso   1.000  H
  C211     1.0000 0.17915  0.46680  0.49983  Biso   1.000  C
  C212     1.0000 0.20326  0.53150  0.49388  Biso   1.000  C
  H89      1.0000 0.23560  0.53030  0.49230  Biso   1.000  H
  C213     1.0000 0.17683  0.59770  0.49035  Biso   1.000  C
  C214     1.0000 0.12930  0.60010  0.49184  Biso   1.000  C
  H90      1.0000 0.11210  0.64420  0.48830  Biso   1.000  H
  C215     1.0000 0.20230  0.66540  0.48152  Biso   1.000  C
  C216     1.0000 0.20665  0.39770  0.50047  Biso   1.000  C
  Cu19     1.0000 0.28968  0.31851  0.49279  Biso   1.000  Cu
  Cu20     1.0000 0.71119  0.23883  0.02825  Biso   1.000  Cu
  Cu21     1.0000 0.78634  0.50684  0.80746  Biso   1.000  Cu
  Cu22     1.0000 0.79545  0.31328  0.03285  Biso   1.000  Cu
  Cu23     1.0000 0.20714  0.24605  0.48990  Biso   1.000  Cu
  Cu24     1.0000 0.70338  0.50098  0.73219  Biso   1.000  Cu
  N19      1.0000 0.55939  0.26840  0.80685  Biso   1.000  N
  H91      1.0000 0.55120  0.23250  0.82000  Biso   1.000  H
  N20      1.0000 0.44038  0.26670  0.71518  Biso   1.000  N
  H92      1.0000 0.45080  0.29880  0.70110  Biso   1.000  H
  N21      1.0000 0.05820  0.30110  0.26740  Biso   1.000  N
  H93      1.0000 0.04900  0.30040  0.23860  Biso   1.000  H
  N22      1.0000 0.93304  0.25020  0.25948  Biso   1.000  N
  H94      1.0000 0.94010  0.25300  0.28800  Biso   1.000  H
  N23      1.0000 0.43800  0.03770  0.47760  Biso   1.000  N
  H95      1.0000 0.44750  0.07720  0.46860  Biso   1.000  H
  N24      1.0000 0.05713  0.54070  0.50022  Biso   1.000  N
  H96      1.0000 0.04630  0.58410  0.50150  Biso   1.000  H
  O100     1.0000 0.68555  0.25298  0.96482  Biso   1.000  O
  O101     1.0000 0.75261  0.32087  0.96722  Biso   1.000  O
  O102     1.0000 0.74886  0.43978  0.83025  Biso   1.000  O
  O103     1.0000 0.67962  0.43265  0.76688  Biso   1.000  O
  O104     1.0000 0.32140  0.08104  0.74183  Biso   1.000  O
  O105     1.0000 0.25050  0.08753  0.67928  Biso   1.000  O
  O106     1.0000 0.24715  0.23144  0.55357  Biso   1.000  O
  O107     1.0000 0.31448  0.30097  0.55749  Biso   1.000  O
  O108     1.0000 0.18025  0.27285  0.42614  Biso   1.000  O
  O109     1.0000 0.25340  0.32381  0.42745  Biso   1.000  O
  O110     1.0000 0.25827  0.43031  0.29001  Biso   1.000  O
  O111     1.0000 0.18752  0.42789  0.22663  Biso   1.000  O
  O112     1.0000 0.80909  0.07532  0.28065  Biso   1.000  O
  O113     1.0000 0.73955  0.07809  0.21645  Biso   1.000  O
  O114     1.0000 0.74251  0.22702  0.09240  Biso   1.000  O
  O115     1.0000 0.81452  0.28446  0.09744  Biso   1.000  O
  O116     1.0000 0.24224  0.16330  0.47610  Biso   1.000  O
  O117     1.0000 0.31472  0.22267  0.48529  Biso   1.000  O
  O118     1.0000 0.23779  0.89955  0.45797  Biso   1.000  O
  O119     1.0000 0.31028  0.83983  0.46505  Biso   1.000  O
  O120     1.0000 0.18267  0.34014  0.50273  Biso   1.000  O
  O121     1.0000 0.24951  0.40137  0.49856  Biso   1.000  O
  O122     1.0000 0.17687  0.72357  0.47848  Biso   1.000  O
  O123     1.0000 0.24514  0.65909  0.47884  Biso   1.000  O
  O124     1.0000 0.52360  0.35310  0.75120  Biso   1.000  O
  O125     1.0000 0.46180  0.22020  0.78520  Biso   1.000  O
  O126     1.0000 0.02350  0.29410  0.32270  Biso   1.000  O
  O127     1.0000 0.96640  0.26400  0.20300  Biso   1.000  O
  O128     1.0000 0.46780  0.93550  0.51780  Biso   1.000  O
  O129     1.0000 0.03520  0.42350  0.50108  Biso   1.000  O
  O130     1.0000 0.53620  0.31790  0.73750  Biso   1.000  O
  O131     1.0000 0.47300  0.18870  0.77410  Biso   1.000  O
  O132     1.0000 0.03310  0.25060  0.31920  Biso   1.000  O
