data_image0
_cell_length_a       19.889
_cell_length_b       19.889
_cell_length_c       19.788
_cell_angle_alpha    90
_cell_angle_beta     90
_cell_angle_gamma    120

_symmetry_space_group_name_H-M    "P 1"
_symmetry_int_tables_number       1

loop_
  _symmetry_equiv_pos_as_xyz
  'x, y, z'

loop_
  _atom_site_label
  _atom_site_occupancy
  _atom_site_fract_x
  _atom_site_fract_y
  _atom_site_fract_z
  _atom_site_thermal_displace_type
  _atom_site_B_iso_or_equiv
  _atom_site_type_symbol
  C1       1.0000 0.16700  0.30090  0.10840  Biso   1.000  C
  H1       1.0000 0.14510  0.32300  0.01280  Biso   1.000  H
  C2       1.0000 0.22640  0.42460  0.05640  Biso   1.000  C
  C3       1.0000 0.26240  0.45940  0.11360  Biso   1.000  C
  H2       1.0000 0.29700  0.51460  0.11370  Biso   1.000  H
  C4       1.0000 0.25210  0.41730  0.17190  Biso   1.000  C
  H3       1.0000 0.27600  0.44170  0.21390  Biso   1.000  H
  C5       1.0000 0.20650  0.33290  0.16520  Biso   1.000  C
  H4       1.0000 0.20650  0.29980  0.20050  Biso   1.000  H
  C6       1.0000 0.83367  0.63423  0.44173  Biso   1.000  C
  H5       1.0000 0.81177  0.65633  0.34613  Biso   1.000  H
  C7       1.0000 0.89307  0.75793  0.38973  Biso   1.000  C
  C8       1.0000 0.92907  0.79273  0.44693  Biso   1.000  C
  H6       1.0000 0.96367  0.84793  0.44703  Biso   1.000  H
  C9       1.0000 0.91877  0.75063  0.50523  Biso   1.000  C
  H7       1.0000 0.94267  0.77503  0.54723  Biso   1.000  H
  C10      1.0000 0.87317  0.66623  0.49853  Biso   1.000  C
  H8       1.0000 0.87317  0.63313  0.53383  Biso   1.000  H
  C11      1.0000 0.50033  0.96757  0.77507  Biso   1.000  C
  H9       1.0000 0.47843  0.98967  0.67947  Biso   1.000  H
  C12      1.0000 0.55973  0.09127  0.72307  Biso   1.000  C
  C13      1.0000 0.59573  0.12607  0.78027  Biso   1.000  C
  H10      1.0000 0.63033  0.18127  0.78037  Biso   1.000  H
  C14      1.0000 0.58543  0.08397  0.83857  Biso   1.000  C
  H11      1.0000 0.60933  0.10837  0.88057  Biso   1.000  H
  C15      1.0000 0.53983  0.99957  0.83187  Biso   1.000  C
  H12      1.0000 0.53983  0.96647  0.86717  Biso   1.000  H
  C16      1.0000 0.69910  0.86610  0.10840  Biso   1.000  C
  H13      1.0000 0.67700  0.82210  0.01280  Biso   1.000  H
  C17      1.0000 0.57540  0.80180  0.05640  Biso   1.000  C
  C18      1.0000 0.54060  0.80300  0.11360  Biso   1.000  C
  H14      1.0000 0.48540  0.78240  0.11370  Biso   1.000  H
  C19      1.0000 0.58270  0.83480  0.17190  Biso   1.000  C
  H15      1.0000 0.55830  0.83430  0.21390  Biso   1.000  H
  C20      1.0000 0.66710  0.87360  0.16520  Biso   1.000  C
  H16      1.0000 0.70020  0.90670  0.20050  Biso   1.000  H
  C21      1.0000 0.36577  0.19943  0.44173  Biso   1.000  C
  H17      1.0000 0.34367  0.15543  0.34613  Biso   1.000  H
  C22      1.0000 0.24207  0.13513  0.38973  Biso   1.000  C
  C23      1.0000 0.20727  0.13633  0.44693  Biso   1.000  C
  H18      1.0000 0.15207  0.11573  0.44703  Biso   1.000  H
  C24      1.0000 0.24937  0.16813  0.50523  Biso   1.000  C
  H19      1.0000 0.22497  0.16763  0.54723  Biso   1.000  H
  C25      1.0000 0.33377  0.20693  0.49853  Biso   1.000  C
  H20      1.0000 0.36687  0.24003  0.53383  Biso   1.000  H
  C26      1.0000 0.03243  0.53277  0.77507  Biso   1.000  C
  H21      1.0000 0.01033  0.48877  0.67947  Biso   1.000  H
  C27      1.0000 0.90873  0.46847  0.72307  Biso   1.000  C
  C28      1.0000 0.87393  0.46967  0.78027  Biso   1.000  C
  H22      1.0000 0.81873  0.44907  0.78037  Biso   1.000  H
  C29      1.0000 0.91603  0.50147  0.83857  Biso   1.000  C
  H23      1.0000 0.89163  0.50097  0.88057  Biso   1.000  H
  C30      1.0000 0.00043  0.54027  0.83187  Biso   1.000  C
  H24      1.0000 0.03353  0.57337  0.86717  Biso   1.000  H
  C31      1.0000 0.13390  0.83300  0.10840  Biso   1.000  C
  H25      1.0000 0.17790  0.85490  0.01280  Biso   1.000  H
  C32      1.0000 0.19820  0.77360  0.05640  Biso   1.000  C
  C33      1.0000 0.19700  0.73760  0.11360  Biso   1.000  C
  H26      1.0000 0.21760  0.70300  0.11370  Biso   1.000  H
  C34      1.0000 0.16520  0.74790  0.17190  Biso   1.000  C
  H27      1.0000 0.16570  0.72400  0.21390  Biso   1.000  H
  C35      1.0000 0.12640  0.79350  0.16520  Biso   1.000  C
  H28      1.0000 0.09330  0.79350  0.20050  Biso   1.000  H
  C36      1.0000 0.80057  0.16633  0.44173  Biso   1.000  C
  H29      1.0000 0.84457  0.18823  0.34613  Biso   1.000  H
  C37      1.0000 0.86487  0.10693  0.38973  Biso   1.000  C
  C38      1.0000 0.86367  0.07093  0.44693  Biso   1.000  C
  H30      1.0000 0.88427  0.03633  0.44703  Biso   1.000  H
  C39      1.0000 0.83187  0.08123  0.50523  Biso   1.000  C
  H31      1.0000 0.83237  0.05733  0.54723  Biso   1.000  H
  C40      1.0000 0.79307  0.12683  0.49853  Biso   1.000  C
  H32      1.0000 0.75997  0.12683  0.53383  Biso   1.000  H
  C41      1.0000 0.46723  0.49967  0.77507  Biso   1.000  C
  H33      1.0000 0.51123  0.52157  0.67947  Biso   1.000  H
  C42      1.0000 0.53153  0.44027  0.72307  Biso   1.000  C
  C43      1.0000 0.53033  0.40427  0.78027  Biso   1.000  C
  H34      1.0000 0.55093  0.36967  0.78037  Biso   1.000  H
  C44      1.0000 0.49853  0.41457  0.83857  Biso   1.000  C
  H35      1.0000 0.49903  0.39067  0.88057  Biso   1.000  H
  C45      1.0000 0.45973  0.46017  0.83187  Biso   1.000  C
  H36      1.0000 0.42663  0.46017  0.86717  Biso   1.000  H
  C46      1.0000 0.30090  0.16700  0.89160  Biso   1.000  C
  H37      1.0000 0.32300  0.14510  0.98720  Biso   1.000  H
  C47      1.0000 0.42460  0.22640  0.94360  Biso   1.000  C
  C48      1.0000 0.45940  0.26240  0.88640  Biso   1.000  C
  H38      1.0000 0.51460  0.29700  0.88630  Biso   1.000  H
  C49      1.0000 0.41730  0.25210  0.82810  Biso   1.000  C
  H39      1.0000 0.44170  0.27600  0.78610  Biso   1.000  H
  C50      1.0000 0.33290  0.20650  0.83480  Biso   1.000  C
  H40      1.0000 0.29980  0.20650  0.79950  Biso   1.000  H
  C51      1.0000 0.96757  0.50033  0.22493  Biso   1.000  C
  H41      1.0000 0.98967  0.47843  0.32053  Biso   1.000  H
  C52      1.0000 0.09127  0.55973  0.27693  Biso   1.000  C
  C53      1.0000 0.12607  0.59573  0.21973  Biso   1.000  C
  H42      1.0000 0.18127  0.63033  0.21963  Biso   1.000  H
  C54      1.0000 0.08397  0.58543  0.16143  Biso   1.000  C
  H43      1.0000 0.10837  0.60933  0.11943  Biso   1.000  H
  C55      1.0000 0.99957  0.53983  0.16813  Biso   1.000  C
  H44      1.0000 0.96647  0.53983  0.13283  Biso   1.000  H
  C56      1.0000 0.63423  0.83367  0.55827  Biso   1.000  C
  H45      1.0000 0.65633  0.81177  0.65387  Biso   1.000  H
  C57      1.0000 0.75793  0.89307  0.61027  Biso   1.000  C
  C58      1.0000 0.79273  0.92907  0.55307  Biso   1.000  C
  H46      1.0000 0.84793  0.96367  0.55297  Biso   1.000  H
  C59      1.0000 0.75063  0.91877  0.49477  Biso   1.000  C
  H47      1.0000 0.77503  0.94267  0.45277  Biso   1.000  H
  C60      1.0000 0.66623  0.87317  0.50147  Biso   1.000  C
  H48      1.0000 0.63313  0.87317  0.46617  Biso   1.000  H
  C61      1.0000 0.86610  0.69910  0.89160  Biso   1.000  C
  H49      1.0000 0.82210  0.67700  0.98720  Biso   1.000  H
  C62      1.0000 0.80180  0.57540  0.94360  Biso   1.000  C
  C63      1.0000 0.80300  0.54060  0.88640  Biso   1.000  C
  H50      1.0000 0.78240  0.48540  0.88630  Biso   1.000  H
  C64      1.0000 0.83480  0.58270  0.82810  Biso   1.000  C
  H51      1.0000 0.83430  0.55830  0.78610  Biso   1.000  H
  C65      1.0000 0.87360  0.66710  0.83480  Biso   1.000  C
  H52      1.0000 0.90670  0.70020  0.79950  Biso   1.000  H
  C66      1.0000 0.53277  0.03243  0.22493  Biso   1.000  C
  H53      1.0000 0.48877  0.01033  0.32053  Biso   1.000  H
  C67      1.0000 0.46847  0.90873  0.27693  Biso   1.000  C
  C68      1.0000 0.46967  0.87393  0.21973  Biso   1.000  C
  H54      1.0000 0.44907  0.81873  0.21963  Biso   1.000  H
  C69      1.0000 0.50147  0.91603  0.16143  Biso   1.000  C
  H55      1.0000 0.50097  0.89163  0.11943  Biso   1.000  H
  C70      1.0000 0.54027  0.00043  0.16813  Biso   1.000  C
  H56      1.0000 0.57337  0.03353  0.13283  Biso   1.000  H
  C71      1.0000 0.19943  0.36577  0.55827  Biso   1.000  C
  H57      1.0000 0.15543  0.34367  0.65387  Biso   1.000  H
  C72      1.0000 0.13513  0.24207  0.61027  Biso   1.000  C
  C73      1.0000 0.13633  0.20727  0.55307  Biso   1.000  C
  H58      1.0000 0.11573  0.15207  0.55297  Biso   1.000  H
  C74      1.0000 0.16813  0.24937  0.49477  Biso   1.000  C
  H59      1.0000 0.16763  0.22497  0.45277  Biso   1.000  H
  C75      1.0000 0.20693  0.33377  0.50147  Biso   1.000  C
  H60      1.0000 0.24003  0.36687  0.46617  Biso   1.000  H
  C76      1.0000 0.83300  0.13390  0.89160  Biso   1.000  C
  H61      1.0000 0.85490  0.17790  0.98720  Biso   1.000  H
  C77      1.0000 0.77360  0.19820  0.94360  Biso   1.000  C
  C78      1.0000 0.73760  0.19700  0.88640  Biso   1.000  C
  H62      1.0000 0.70300  0.21760  0.88630  Biso   1.000  H
  C79      1.0000 0.74790  0.16520  0.82810  Biso   1.000  C
  H63      1.0000 0.72400  0.16570  0.78610  Biso   1.000  H
  C80      1.0000 0.79350  0.12640  0.83480  Biso   1.000  C
  H64      1.0000 0.79350  0.09330  0.79950  Biso   1.000  H
  C81      1.0000 0.49967  0.46723  0.22493  Biso   1.000  C
  H65      1.0000 0.52157  0.51123  0.32053  Biso   1.000  H
  C82      1.0000 0.44027  0.53153  0.27693  Biso   1.000  C
  C83      1.0000 0.40427  0.53033  0.21973  Biso   1.000  C
  H66      1.0000 0.36967  0.55093  0.21963  Biso   1.000  H
  C84      1.0000 0.41457  0.49853  0.16143  Biso   1.000  C
  H67      1.0000 0.39067  0.49903  0.11943  Biso   1.000  H
  C85      1.0000 0.46017  0.45973  0.16813  Biso   1.000  C
  H68      1.0000 0.46017  0.42663  0.13283  Biso   1.000  H
  C86      1.0000 0.16633  0.80057  0.55827  Biso   1.000  C
  H69      1.0000 0.18823  0.84457  0.65387  Biso   1.000  H
  C87      1.0000 0.10693  0.86487  0.61027  Biso   1.000  C
  C88      1.0000 0.07093  0.86367  0.55307  Biso   1.000  C
  H70      1.0000 0.03633  0.88427  0.55297  Biso   1.000  H
  C89      1.0000 0.08123  0.83187  0.49477  Biso   1.000  C
  H71      1.0000 0.05733  0.83237  0.45277  Biso   1.000  H
  C90      1.0000 0.12683  0.79307  0.50147  Biso   1.000  C
  H72      1.0000 0.12683  0.75997  0.46617  Biso   1.000  H
  C91      1.0000 0.83300  0.69910  0.89160  Biso   1.000  C
  H73      1.0000 0.85490  0.67700  0.98720  Biso   1.000  H
  C92      1.0000 0.77360  0.57540  0.94360  Biso   1.000  C
  C93      1.0000 0.73760  0.54060  0.88640  Biso   1.000  C
  H74      1.0000 0.70300  0.48540  0.88630  Biso   1.000  H
  C94      1.0000 0.74790  0.58270  0.82810  Biso   1.000  C
  H75      1.0000 0.72400  0.55830  0.78610  Biso   1.000  H
  C95      1.0000 0.79350  0.66710  0.83480  Biso   1.000  C
  H76      1.0000 0.79350  0.70020  0.79950  Biso   1.000  H
  C96      1.0000 0.49967  0.03243  0.22493  Biso   1.000  C
  H77      1.0000 0.52157  0.01033  0.32053  Biso   1.000  H
  C97      1.0000 0.44027  0.90873  0.27693  Biso   1.000  C
  C98      1.0000 0.40427  0.87393  0.21973  Biso   1.000  C
  H78      1.0000 0.36967  0.81873  0.21963  Biso   1.000  H
  C99      1.0000 0.41457  0.91603  0.16143  Biso   1.000  C
  H79      1.0000 0.39067  0.89163  0.11943  Biso   1.000  H
  C100     1.0000 0.46017  0.00043  0.16813  Biso   1.000  C
  H80      1.0000 0.46017  0.03353  0.13283  Biso   1.000  H
  C101     1.0000 0.16633  0.36577  0.55827  Biso   1.000  C
  H81      1.0000 0.18823  0.34367  0.65387  Biso   1.000  H
  C102     1.0000 0.10693  0.24207  0.61027  Biso   1.000  C
  C103     1.0000 0.07093  0.20727  0.55307  Biso   1.000  C
  H82      1.0000 0.03633  0.15207  0.55297  Biso   1.000  H
  C104     1.0000 0.08123  0.24937  0.49477  Biso   1.000  C
  H83      1.0000 0.05733  0.22497  0.45277  Biso   1.000  H
  C105     1.0000 0.12683  0.33377  0.50147  Biso   1.000  C
  H84      1.0000 0.12683  0.36687  0.46617  Biso   1.000  H
  C106     1.0000 0.30090  0.13390  0.89160  Biso   1.000  C
  H85      1.0000 0.32300  0.17790  0.98720  Biso   1.000  H
  C107     1.0000 0.42460  0.19820  0.94360  Biso   1.000  C
  C108     1.0000 0.45940  0.19700  0.88640  Biso   1.000  C
  H86      1.0000 0.51460  0.21760  0.88630  Biso   1.000  H
  C109     1.0000 0.41730  0.16520  0.82810  Biso   1.000  C
  H87      1.0000 0.44170  0.16570  0.78610  Biso   1.000  H
  C110     1.0000 0.33290  0.12640  0.83480  Biso   1.000  C
  H88      1.0000 0.29980  0.09330  0.79950  Biso   1.000  H
  C111     1.0000 0.96757  0.46723  0.22493  Biso   1.000  C
  H89      1.0000 0.98967  0.51123  0.32053  Biso   1.000  H
  C112     1.0000 0.09127  0.53153  0.27693  Biso   1.000  C
  C113     1.0000 0.12607  0.53033  0.21973  Biso   1.000  C
  H90      1.0000 0.18127  0.55093  0.21963  Biso   1.000  H
  C114     1.0000 0.08397  0.49853  0.16143  Biso   1.000  C
  H91      1.0000 0.10837  0.49903  0.11943  Biso   1.000  H
  C115     1.0000 0.99957  0.45973  0.16813  Biso   1.000  C
  H92      1.0000 0.96647  0.42663  0.13283  Biso   1.000  H
  C116     1.0000 0.63423  0.80057  0.55827  Biso   1.000  C
  H93      1.0000 0.65633  0.84457  0.65387  Biso   1.000  H
  C117     1.0000 0.75793  0.86487  0.61027  Biso   1.000  C
  C118     1.0000 0.79273  0.86367  0.55307  Biso   1.000  C
  H94      1.0000 0.84793  0.88427  0.55297  Biso   1.000  H
  C119     1.0000 0.75063  0.83187  0.49477  Biso   1.000  C
  H95      1.0000 0.77503  0.83237  0.45277  Biso   1.000  H
  C120     1.0000 0.66623  0.79307  0.50147  Biso   1.000  C
  H96      1.0000 0.63313  0.75997  0.46617  Biso   1.000  H
  C121     1.0000 0.86610  0.16700  0.89160  Biso   1.000  C
  H97      1.0000 0.82210  0.14510  0.98720  Biso   1.000  H
  C122     1.0000 0.80180  0.22640  0.94360  Biso   1.000  C
  C123     1.0000 0.80300  0.26240  0.88640  Biso   1.000  C
  H98      1.0000 0.78240  0.29700  0.88630  Biso   1.000  H
  C124     1.0000 0.83480  0.25210  0.82810  Biso   1.000  C
  H99      1.0000 0.83430  0.27600  0.78610  Biso   1.000  H
  C125     1.0000 0.87360  0.20650  0.83480  Biso   1.000  C
  H100     1.0000 0.90670  0.20650  0.79950  Biso   1.000  H
  C126     1.0000 0.53277  0.50033  0.22493  Biso   1.000  C
  H101     1.0000 0.48877  0.47843  0.32053  Biso   1.000  H
  C127     1.0000 0.46847  0.55973  0.27693  Biso   1.000  C
  C128     1.0000 0.46967  0.59573  0.21973  Biso   1.000  C
  H102     1.0000 0.44907  0.63033  0.21963  Biso   1.000  H
  C129     1.0000 0.50147  0.58543  0.16143  Biso   1.000  C
  H103     1.0000 0.50097  0.60933  0.11943  Biso   1.000  H
  C130     1.0000 0.54027  0.53983  0.16813  Biso   1.000  C
  H104     1.0000 0.57337  0.53983  0.13283  Biso   1.000  H
  C131     1.0000 0.19943  0.83367  0.55827  Biso   1.000  C
  H105     1.0000 0.15543  0.81177  0.65387  Biso   1.000  H
  C132     1.0000 0.13513  0.89307  0.61027  Biso   1.000  C
  C133     1.0000 0.13633  0.92907  0.55307  Biso   1.000  C
  H106     1.0000 0.11573  0.96367  0.55297  Biso   1.000  H
  C134     1.0000 0.16813  0.91877  0.49477  Biso   1.000  C
  H107     1.0000 0.16763  0.94267  0.45277  Biso   1.000  H
  C135     1.0000 0.20693  0.87317  0.50147  Biso   1.000  C
  H108     1.0000 0.24003  0.87317  0.46617  Biso   1.000  H
  C136     1.0000 0.69910  0.83300  0.10840  Biso   1.000  C
  H109     1.0000 0.67700  0.85490  0.01280  Biso   1.000  H
  C137     1.0000 0.57540  0.77360  0.05640  Biso   1.000  C
  C138     1.0000 0.54060  0.73760  0.11360  Biso   1.000  C
  H110     1.0000 0.48540  0.70300  0.11370  Biso   1.000  H
  C139     1.0000 0.58270  0.74790  0.17190  Biso   1.000  C
  H111     1.0000 0.55830  0.72400  0.21390  Biso   1.000  H
  C140     1.0000 0.66710  0.79350  0.16520  Biso   1.000  C
  H112     1.0000 0.70020  0.79350  0.20050  Biso   1.000  H
  C141     1.0000 0.36577  0.16633  0.44173  Biso   1.000  C
  H113     1.0000 0.34367  0.18823  0.34613  Biso   1.000  H
  C142     1.0000 0.24207  0.10693  0.38973  Biso   1.000  C
  C143     1.0000 0.20727  0.07093  0.44693  Biso   1.000  C
  H114     1.0000 0.15207  0.03633  0.44703  Biso   1.000  H
  C144     1.0000 0.24937  0.08123  0.50523  Biso   1.000  C
  H115     1.0000 0.22497  0.05733  0.54723  Biso   1.000  H
  C145     1.0000 0.33377  0.12683  0.49853  Biso   1.000  C
  H116     1.0000 0.36687  0.12683  0.53383  Biso   1.000  H
  C146     1.0000 0.03243  0.49967  0.77507  Biso   1.000  C
  H117     1.0000 0.01033  0.52157  0.67947  Biso   1.000  H
  C147     1.0000 0.90873  0.44027  0.72307  Biso   1.000  C
  C148     1.0000 0.87393  0.40427  0.78027  Biso   1.000  C
  H118     1.0000 0.81873  0.36967  0.78037  Biso   1.000  H
  C149     1.0000 0.91603  0.41457  0.83857  Biso   1.000  C
  H119     1.0000 0.89163  0.39067  0.88057  Biso   1.000  H
  C150     1.0000 0.00043  0.46017  0.83187  Biso   1.000  C
  H120     1.0000 0.03353  0.46017  0.86717  Biso   1.000  H
  C151     1.0000 0.13390  0.30090  0.10840  Biso   1.000  C
  H121     1.0000 0.17790  0.32300  0.01280  Biso   1.000  H
  C152     1.0000 0.19820  0.42460  0.05640  Biso   1.000  C
  C153     1.0000 0.19700  0.45940  0.11360  Biso   1.000  C
  H122     1.0000 0.21760  0.51460  0.11370  Biso   1.000  H
  C154     1.0000 0.16520  0.41730  0.17190  Biso   1.000  C
  H123     1.0000 0.16570  0.44170  0.21390  Biso   1.000  H
  C155     1.0000 0.12640  0.33290  0.16520  Biso   1.000  C
  H124     1.0000 0.09330  0.29980  0.20050  Biso   1.000  H
  C156     1.0000 0.80057  0.63423  0.44173  Biso   1.000  C
  H125     1.0000 0.84457  0.65633  0.34613  Biso   1.000  H
  C157     1.0000 0.86487  0.75793  0.38973  Biso   1.000  C
  C158     1.0000 0.86367  0.79273  0.44693  Biso   1.000  C
  H126     1.0000 0.88427  0.84793  0.44703  Biso   1.000  H
  C159     1.0000 0.83187  0.75063  0.50523  Biso   1.000  C
  H127     1.0000 0.83237  0.77503  0.54723  Biso   1.000  H
  C160     1.0000 0.79307  0.66623  0.49853  Biso   1.000  C
  H128     1.0000 0.75997  0.63313  0.53383  Biso   1.000  H
  C161     1.0000 0.46723  0.96757  0.77507  Biso   1.000  C
  H129     1.0000 0.51123  0.98967  0.67947  Biso   1.000  H
  C162     1.0000 0.53153  0.09127  0.72307  Biso   1.000  C
  C163     1.0000 0.53033  0.12607  0.78027  Biso   1.000  C
  H130     1.0000 0.55093  0.18127  0.78037  Biso   1.000  H
  C164     1.0000 0.49853  0.08397  0.83857  Biso   1.000  C
  H131     1.0000 0.49903  0.10837  0.88057  Biso   1.000  H
  C165     1.0000 0.45973  0.99957  0.83187  Biso   1.000  C
  H132     1.0000 0.42663  0.96647  0.86717  Biso   1.000  H
  C166     1.0000 0.16700  0.86610  0.10840  Biso   1.000  C
  H133     1.0000 0.14510  0.82210  0.01280  Biso   1.000  H
  C167     1.0000 0.22640  0.80180  0.05640  Biso   1.000  C
  C168     1.0000 0.26240  0.80300  0.11360  Biso   1.000  C
  H134     1.0000 0.29700  0.78240  0.11370  Biso   1.000  H
  C169     1.0000 0.25210  0.83480  0.17190  Biso   1.000  C
  H135     1.0000 0.27600  0.83430  0.21390  Biso   1.000  H
  C170     1.0000 0.20650  0.87360  0.16520  Biso   1.000  C
  H136     1.0000 0.20650  0.90670  0.20050  Biso   1.000  H
  C171     1.0000 0.83367  0.19943  0.44173  Biso   1.000  C
  H137     1.0000 0.81177  0.15543  0.34613  Biso   1.000  H
  C172     1.0000 0.89307  0.13513  0.38973  Biso   1.000  C
  C173     1.0000 0.92907  0.13633  0.44693  Biso   1.000  C
  H138     1.0000 0.96367  0.11573  0.44703  Biso   1.000  H
  C174     1.0000 0.91877  0.16813  0.50523  Biso   1.000  C
  H139     1.0000 0.94267  0.16763  0.54723  Biso   1.000  H
  C175     1.0000 0.87317  0.20693  0.49853  Biso   1.000  C
  H140     1.0000 0.87317  0.24003  0.53383  Biso   1.000  H
  C176     1.0000 0.50033  0.53277  0.77507  Biso   1.000  C
  H141     1.0000 0.47843  0.48877  0.67947  Biso   1.000  H
  C177     1.0000 0.55973  0.46847  0.72307  Biso   1.000  C
  C178     1.0000 0.59573  0.46967  0.78027  Biso   1.000  C
  H142     1.0000 0.63033  0.44907  0.78037  Biso   1.000  H
  C179     1.0000 0.58543  0.50147  0.83857  Biso   1.000  C
  H143     1.0000 0.60933  0.50097  0.88057  Biso   1.000  H
  C180     1.0000 0.53983  0.54027  0.83187  Biso   1.000  C
  H144     1.0000 0.53983  0.57337  0.86717  Biso   1.000  H
  Zn1      1.0000 0.00000  0.00000  0.00000  Biso   1.000  Zn
  Zn2      1.0000 0.66667  0.33333  0.33333  Biso   1.000  Zn
  Zn3      1.0000 0.33333  0.66667  0.66667  Biso   1.000  Zn
  Zn4      1.0000 0.00000  0.00000  0.19904  Biso   1.000  Zn
  Zn5      1.0000 0.66667  0.33333  0.53237  Biso   1.000  Zn
  Zn6      1.0000 0.33333  0.66667  0.86571  Biso   1.000  Zn
  Zn7      1.0000 0.00000  0.00000  0.80096  Biso   1.000  Zn
  Zn8      1.0000 0.66667  0.33333  0.13429  Biso   1.000  Zn
  Zn9      1.0000 0.33333  0.66667  0.46763  Biso   1.000  Zn
  C181     1.0000 0.17355  0.34710  0.05350  Biso   1.000  C
  N1       1.0000 0.11090  0.22180  0.10440  Biso   1.000  N
  C182     1.0000 0.08535  0.17070  0.15650  Biso   1.000  C
  H145     1.0000 0.09250  0.18500  0.20290  Biso   1.000  H
  N2       1.0000 0.04970  0.09940  0.13480  Biso   1.000  N
  N3       1.0000 0.05065  0.10130  0.06459  Biso   1.000  N
  C183     1.0000 0.08735  0.17470  0.04850  Biso   1.000  C
  H146     1.0000 0.09670  0.19340  0.00340  Biso   1.000  H
  N4       1.0000 0.23470  0.46940  0.99930  Biso   1.000  N
  C184     1.0000 0.21915  0.43830  0.93520  Biso   1.000  C
  H147     1.0000 0.19210  0.38420  0.92570  Biso   1.000  H
  N5       1.0000 0.24750  0.49500  0.88720  Biso   1.000  N
  N6       1.0000 0.28270  0.56540  0.92580  Biso   1.000  N
  C185     1.0000 0.27175  0.54350  0.98290  Biso   1.000  C
  H148     1.0000 0.29050  0.58100  0.01800  Biso   1.000  H
  C186     1.0000 0.84022  0.68043  0.38683  Biso   1.000  C
  N7       1.0000 0.77757  0.55513  0.43773  Biso   1.000  N
  C187     1.0000 0.75202  0.50403  0.48983  Biso   1.000  C
  H149     1.0000 0.75917  0.51833  0.53623  Biso   1.000  H
  N8       1.0000 0.71637  0.43273  0.46813  Biso   1.000  N
  N9       1.0000 0.71732  0.43463  0.39792  Biso   1.000  N
  C188     1.0000 0.75402  0.50803  0.38183  Biso   1.000  C
  H150     1.0000 0.76337  0.52673  0.33673  Biso   1.000  H
  N10      1.0000 0.90137  0.80273  0.33263  Biso   1.000  N
  C189     1.0000 0.88582  0.77163  0.26853  Biso   1.000  C
  H151     1.0000 0.85877  0.71753  0.25903  Biso   1.000  H
  N11      1.0000 0.91417  0.82833  0.22053  Biso   1.000  N
  N12      1.0000 0.94937  0.89873  0.25913  Biso   1.000  N
  C190     1.0000 0.93842  0.87683  0.31623  Biso   1.000  C
  H152     1.0000 0.95717  0.91433  0.35133  Biso   1.000  H
  C191     1.0000 0.50688  0.01377  0.72017  Biso   1.000  C
  N13      1.0000 0.44423  0.88847  0.77107  Biso   1.000  N
  C192     1.0000 0.41868  0.83737  0.82317  Biso   1.000  C
  H153     1.0000 0.42583  0.85167  0.86957  Biso   1.000  H
  N14      1.0000 0.38303  0.76607  0.80147  Biso   1.000  N
  N15      1.0000 0.38398  0.76797  0.73126  Biso   1.000  N
  C193     1.0000 0.42068  0.84137  0.71517  Biso   1.000  C
  H154     1.0000 0.43003  0.86007  0.67007  Biso   1.000  H
  N16      1.0000 0.56803  0.13607  0.66597  Biso   1.000  N
  C194     1.0000 0.55248  0.10497  0.60187  Biso   1.000  C
  H155     1.0000 0.52543  0.05087  0.59237  Biso   1.000  H
  N17      1.0000 0.58083  0.16167  0.55387  Biso   1.000  N
  N18      1.0000 0.61603  0.23207  0.59247  Biso   1.000  N
  C195     1.0000 0.60508  0.21017  0.64957  Biso   1.000  C
  H156     1.0000 0.62383  0.24767  0.68467  Biso   1.000  H
  C196     1.0000 0.65290  0.82645  0.05350  Biso   1.000  C
  N19      1.0000 0.77820  0.88910  0.10440  Biso   1.000  N
  C197     1.0000 0.82930  0.91465  0.15650  Biso   1.000  C
  H157     1.0000 0.81500  0.90750  0.20290  Biso   1.000  H
  N20      1.0000 0.90060  0.95030  0.13480  Biso   1.000  N
  N21      1.0000 0.89870  0.94935  0.06459  Biso   1.000  N
  C198     1.0000 0.82530  0.91265  0.04850  Biso   1.000  C
  H158     1.0000 0.80660  0.90330  0.00340  Biso   1.000  H
  N22      1.0000 0.53060  0.76530  0.99930  Biso   1.000  N
  C199     1.0000 0.56170  0.78085  0.93520  Biso   1.000  C
  H159     1.0000 0.61580  0.80790  0.92570  Biso   1.000  H
  N23      1.0000 0.50500  0.75250  0.88720  Biso   1.000  N
  N24      1.0000 0.43460  0.71730  0.92580  Biso   1.000  N
  C200     1.0000 0.45650  0.72825  0.98290  Biso   1.000  C
  H160     1.0000 0.41900  0.70950  0.01800  Biso   1.000  H
  C201     1.0000 0.31957  0.15978  0.38683  Biso   1.000  C
  N25      1.0000 0.44487  0.22243  0.43773  Biso   1.000  N
  C202     1.0000 0.49597  0.24798  0.48983  Biso   1.000  C
  H161     1.0000 0.48167  0.24083  0.53623  Biso   1.000  H
  N26      1.0000 0.56727  0.28363  0.46813  Biso   1.000  N
  N27      1.0000 0.56537  0.28268  0.39792  Biso   1.000  N
  C203     1.0000 0.49197  0.24598  0.38183  Biso   1.000  C
  H162     1.0000 0.47327  0.23663  0.33673  Biso   1.000  H
  N28      1.0000 0.19727  0.09863  0.33263  Biso   1.000  N
  C204     1.0000 0.22837  0.11418  0.26853  Biso   1.000  C
  H163     1.0000 0.28247  0.14123  0.25903  Biso   1.000  H
  N29      1.0000 0.17167  0.08583  0.22053  Biso   1.000  N
  N30      1.0000 0.10127  0.05063  0.25913  Biso   1.000  N
  C205     1.0000 0.12317  0.06158  0.31623  Biso   1.000  C
  H164     1.0000 0.08567  0.04283  0.35133  Biso   1.000  H
  C206     1.0000 0.98623  0.49312  0.72017  Biso   1.000  C
  N31      1.0000 0.11153  0.55577  0.77107  Biso   1.000  N
  C207     1.0000 0.16263  0.58132  0.82317  Biso   1.000  C
  H165     1.0000 0.14833  0.57417  0.86957  Biso   1.000  H
  N32      1.0000 0.23393  0.61697  0.80147  Biso   1.000  N
  N33      1.0000 0.23203  0.61602  0.73126  Biso   1.000  N
  C208     1.0000 0.15863  0.57932  0.71517  Biso   1.000  C
  H166     1.0000 0.13993  0.56997  0.67007  Biso   1.000  H
  N34      1.0000 0.86393  0.43197  0.66597  Biso   1.000  N
  C209     1.0000 0.89503  0.44752  0.60187  Biso   1.000  C
  H167     1.0000 0.94913  0.47457  0.59237  Biso   1.000  H
  N35      1.0000 0.83833  0.41917  0.55387  Biso   1.000  N
  N36      1.0000 0.76793  0.38397  0.59247  Biso   1.000  N
  C210     1.0000 0.78983  0.39492  0.64957  Biso   1.000  C
  H168     1.0000 0.75233  0.37617  0.68467  Biso   1.000  H
  C211     1.0000 0.17355  0.82645  0.05350  Biso   1.000  C
  N37      1.0000 0.11090  0.88910  0.10440  Biso   1.000  N
  C212     1.0000 0.08535  0.91465  0.15650  Biso   1.000  C
  H169     1.0000 0.09250  0.90750  0.20290  Biso   1.000  H
  N38      1.0000 0.04970  0.95030  0.13480  Biso   1.000  N
  N39      1.0000 0.05065  0.94935  0.06459  Biso   1.000  N
  C213     1.0000 0.08735  0.91265  0.04850  Biso   1.000  C
  H170     1.0000 0.09670  0.90330  0.00340  Biso   1.000  H
  N40      1.0000 0.23470  0.76530  0.99930  Biso   1.000  N
  C214     1.0000 0.21915  0.78085  0.93520  Biso   1.000  C
  H171     1.0000 0.19210  0.80790  0.92570  Biso   1.000  H
  N41      1.0000 0.24750  0.75250  0.88720  Biso   1.000  N
  N42      1.0000 0.28270  0.71730  0.92580  Biso   1.000  N
  C215     1.0000 0.27175  0.72825  0.98290  Biso   1.000  C
  H172     1.0000 0.29050  0.70950  0.01800  Biso   1.000  H
  C216     1.0000 0.84022  0.15978  0.38683  Biso   1.000  C
  N43      1.0000 0.77757  0.22243  0.43773  Biso   1.000  N
  C217     1.0000 0.75202  0.24798  0.48983  Biso   1.000  C
  H173     1.0000 0.75917  0.24083  0.53623  Biso   1.000  H
  N44      1.0000 0.71637  0.28363  0.46813  Biso   1.000  N
  N45      1.0000 0.71732  0.28268  0.39792  Biso   1.000  N
  C218     1.0000 0.75402  0.24598  0.38183  Biso   1.000  C
  H174     1.0000 0.76337  0.23663  0.33673  Biso   1.000  H
  N46      1.0000 0.90137  0.09863  0.33263  Biso   1.000  N
  C219     1.0000 0.88582  0.11418  0.26853  Biso   1.000  C
  H175     1.0000 0.85877  0.14123  0.25903  Biso   1.000  H
  N47      1.0000 0.91417  0.08583  0.22053  Biso   1.000  N
  N48      1.0000 0.94937  0.05063  0.25913  Biso   1.000  N
  C220     1.0000 0.93842  0.06158  0.31623  Biso   1.000  C
  H176     1.0000 0.95717  0.04283  0.35133  Biso   1.000  H
  C221     1.0000 0.50688  0.49312  0.72017  Biso   1.000  C
  N49      1.0000 0.44423  0.55577  0.77107  Biso   1.000  N
  C222     1.0000 0.41868  0.58132  0.82317  Biso   1.000  C
  H177     1.0000 0.42583  0.57417  0.86957  Biso   1.000  H
  N50      1.0000 0.38303  0.61697  0.80147  Biso   1.000  N
  N51      1.0000 0.38398  0.61602  0.73126  Biso   1.000  N
  C223     1.0000 0.42068  0.57932  0.71517  Biso   1.000  C
  H178     1.0000 0.43003  0.56997  0.67007  Biso   1.000  H
  N52      1.0000 0.56803  0.43197  0.66597  Biso   1.000  N
  C224     1.0000 0.55248  0.44752  0.60187  Biso   1.000  C
  H179     1.0000 0.52543  0.47457  0.59237  Biso   1.000  H
  N53      1.0000 0.58083  0.41917  0.55387  Biso   1.000  N
  N54      1.0000 0.61603  0.38397  0.59247  Biso   1.000  N
  C225     1.0000 0.60508  0.39492  0.64957  Biso   1.000  C
  H180     1.0000 0.62383  0.37617  0.68467  Biso   1.000  H
  C226     1.0000 0.34710  0.17355  0.94650  Biso   1.000  C
  N55      1.0000 0.22180  0.11090  0.89560  Biso   1.000  N
  C227     1.0000 0.17070  0.08535  0.84350  Biso   1.000  C
  H181     1.0000 0.18500  0.09250  0.79710  Biso   1.000  H
  N56      1.0000 0.09940  0.04970  0.86520  Biso   1.000  N
  N57      1.0000 0.10130  0.05065  0.93541  Biso   1.000  N
  C228     1.0000 0.17470  0.08735  0.95150  Biso   1.000  C
  H182     1.0000 0.19340  0.09670  0.99660  Biso   1.000  H
  N58      1.0000 0.46940  0.23470  0.00070  Biso   1.000  N
  C229     1.0000 0.43830  0.21915  0.06480  Biso   1.000  C
  H183     1.0000 0.38420  0.19210  0.07430  Biso   1.000  H
  N59      1.0000 0.49500  0.24750  0.11280  Biso   1.000  N
  N60      1.0000 0.56540  0.28270  0.07420  Biso   1.000  N
  C230     1.0000 0.54350  0.27175  0.01710  Biso   1.000  C
  H184     1.0000 0.58100  0.29050  0.98200  Biso   1.000  H
  C231     1.0000 0.01377  0.50688  0.27983  Biso   1.000  C
  N61      1.0000 0.88847  0.44423  0.22893  Biso   1.000  N
  C232     1.0000 0.83737  0.41868  0.17683  Biso   1.000  C
  H185     1.0000 0.85167  0.42583  0.13043  Biso   1.000  H
  N62      1.0000 0.76607  0.38303  0.19853  Biso   1.000  N
  N63      1.0000 0.76797  0.38398  0.26874  Biso   1.000  N
  C233     1.0000 0.84137  0.42068  0.28483  Biso   1.000  C
  H186     1.0000 0.86007  0.43003  0.32993  Biso   1.000  H
  N64      1.0000 0.13607  0.56803  0.33403  Biso   1.000  N
  C234     1.0000 0.10497  0.55248  0.39813  Biso   1.000  C
  H187     1.0000 0.05087  0.52543  0.40763  Biso   1.000  H
  N65      1.0000 0.16167  0.58083  0.44613  Biso   1.000  N
  N66      1.0000 0.23207  0.61603  0.40753  Biso   1.000  N
  C235     1.0000 0.21017  0.60508  0.35043  Biso   1.000  C
  H188     1.0000 0.24767  0.62383  0.31533  Biso   1.000  H
  C236     1.0000 0.68043  0.84022  0.61317  Biso   1.000  C
  N67      1.0000 0.55513  0.77757  0.56227  Biso   1.000  N
  C237     1.0000 0.50403  0.75202  0.51017  Biso   1.000  C
  H189     1.0000 0.51833  0.75917  0.46377  Biso   1.000  H
  N68      1.0000 0.43273  0.71637  0.53187  Biso   1.000  N
  N69      1.0000 0.43463  0.71732  0.60208  Biso   1.000  N
  C238     1.0000 0.50803  0.75402  0.61817  Biso   1.000  C
  H190     1.0000 0.52673  0.76337  0.66327  Biso   1.000  H
  N70      1.0000 0.80273  0.90137  0.66737  Biso   1.000  N
  C239     1.0000 0.77163  0.88582  0.73147  Biso   1.000  C
  H191     1.0000 0.71753  0.85877  0.74097  Biso   1.000  H
  N71      1.0000 0.82833  0.91417  0.77947  Biso   1.000  N
  N72      1.0000 0.89873  0.94937  0.74087  Biso   1.000  N
  C240     1.0000 0.87683  0.93842  0.68377  Biso   1.000  C
  H192     1.0000 0.91433  0.95717  0.64867  Biso   1.000  H
  C241     1.0000 0.82645  0.65290  0.94650  Biso   1.000  C
  N73      1.0000 0.88910  0.77820  0.89560  Biso   1.000  N
  C242     1.0000 0.91465  0.82930  0.84350  Biso   1.000  C
  H193     1.0000 0.90750  0.81500  0.79710  Biso   1.000  H
  N74      1.0000 0.95030  0.90060  0.86520  Biso   1.000  N
  N75      1.0000 0.94935  0.89870  0.93541  Biso   1.000  N
  C243     1.0000 0.91265  0.82530  0.95150  Biso   1.000  C
  H194     1.0000 0.90330  0.80660  0.99660  Biso   1.000  H
  N76      1.0000 0.76530  0.53060  0.00070  Biso   1.000  N
  C244     1.0000 0.78085  0.56170  0.06480  Biso   1.000  C
  H195     1.0000 0.80790  0.61580  0.07430  Biso   1.000  H
  N77      1.0000 0.75250  0.50500  0.11280  Biso   1.000  N
  N78      1.0000 0.71730  0.43460  0.07420  Biso   1.000  N
  C245     1.0000 0.72825  0.45650  0.01710  Biso   1.000  C
  H196     1.0000 0.70950  0.41900  0.98200  Biso   1.000  H
  C246     1.0000 0.49312  0.98623  0.27983  Biso   1.000  C
  N79      1.0000 0.55577  0.11153  0.22893  Biso   1.000  N
  C247     1.0000 0.58132  0.16263  0.17683  Biso   1.000  C
  H197     1.0000 0.57417  0.14833  0.13043  Biso   1.000  H
  N80      1.0000 0.61697  0.23393  0.19853  Biso   1.000  N
  N81      1.0000 0.61602  0.23203  0.26874  Biso   1.000  N
  C248     1.0000 0.57932  0.15863  0.28483  Biso   1.000  C
  H198     1.0000 0.56997  0.13993  0.32993  Biso   1.000  H
  N82      1.0000 0.43197  0.86393  0.33403  Biso   1.000  N
  C249     1.0000 0.44752  0.89503  0.39813  Biso   1.000  C
  H199     1.0000 0.47457  0.94913  0.40763  Biso   1.000  H
  N83      1.0000 0.41917  0.83833  0.44613  Biso   1.000  N
  N84      1.0000 0.38397  0.76793  0.40753  Biso   1.000  N
  C250     1.0000 0.39492  0.78983  0.35043  Biso   1.000  C
  H200     1.0000 0.37617  0.75233  0.31533  Biso   1.000  H
  C251     1.0000 0.15978  0.31957  0.61317  Biso   1.000  C
  N85      1.0000 0.22243  0.44487  0.56227  Biso   1.000  N
  C252     1.0000 0.24798  0.49597  0.51017  Biso   1.000  C
  H201     1.0000 0.24083  0.48167  0.46377  Biso   1.000  H
  N86      1.0000 0.28363  0.56727  0.53187  Biso   1.000  N
  N87      1.0000 0.28268  0.56537  0.60208  Biso   1.000  N
  C253     1.0000 0.24598  0.49197  0.61817  Biso   1.000  C
  H202     1.0000 0.23663  0.47327  0.66327  Biso   1.000  H
  N88      1.0000 0.09863  0.19727  0.66737  Biso   1.000  N
  C254     1.0000 0.11418  0.22837  0.73147  Biso   1.000  C
  H203     1.0000 0.14123  0.28247  0.74097  Biso   1.000  H
  N89      1.0000 0.08583  0.17167  0.77947  Biso   1.000  N
  N90      1.0000 0.05063  0.10127  0.74087  Biso   1.000  N
  C255     1.0000 0.06158  0.12317  0.68377  Biso   1.000  C
  H204     1.0000 0.04283  0.08567  0.64867  Biso   1.000  H
  C256     1.0000 0.82645  0.17355  0.94650  Biso   1.000  C
  N91      1.0000 0.88910  0.11090  0.89560  Biso   1.000  N
  C257     1.0000 0.91465  0.08535  0.84350  Biso   1.000  C
  H205     1.0000 0.90750  0.09250  0.79710  Biso   1.000  H
  N92      1.0000 0.95030  0.04970  0.86520  Biso   1.000  N
  N93      1.0000 0.94935  0.05065  0.93541  Biso   1.000  N
  C258     1.0000 0.91265  0.08735  0.95150  Biso   1.000  C
  H206     1.0000 0.90330  0.09670  0.99660  Biso   1.000  H
  N94      1.0000 0.76530  0.23470  0.00070  Biso   1.000  N
  C259     1.0000 0.78085  0.21915  0.06480  Biso   1.000  C
  H207     1.0000 0.80790  0.19210  0.07430  Biso   1.000  H
  N95      1.0000 0.75250  0.24750  0.11280  Biso   1.000  N
  N96      1.0000 0.71730  0.28270  0.07420  Biso   1.000  N
  C260     1.0000 0.72825  0.27175  0.01710  Biso   1.000  C
  H208     1.0000 0.70950  0.29050  0.98200  Biso   1.000  H
  C261     1.0000 0.49312  0.50688  0.27983  Biso   1.000  C
  N97      1.0000 0.55577  0.44423  0.22893  Biso   1.000  N
  C262     1.0000 0.58132  0.41868  0.17683  Biso   1.000  C
  H209     1.0000 0.57417  0.42583  0.13043  Biso   1.000  H
  N98      1.0000 0.61697  0.38303  0.19853  Biso   1.000  N
  N99      1.0000 0.61602  0.38398  0.26874  Biso   1.000  N
  C263     1.0000 0.57932  0.42068  0.28483  Biso   1.000  C
  H210     1.0000 0.56997  0.43003  0.32993  Biso   1.000  H
  N100     1.0000 0.43197  0.56803  0.33403  Biso   1.000  N
  C264     1.0000 0.44752  0.55248  0.39813  Biso   1.000  C
  H211     1.0000 0.47457  0.52543  0.40763  Biso   1.000  H
  N101     1.0000 0.41917  0.58083  0.44613  Biso   1.000  N
  N102     1.0000 0.38397  0.61603  0.40753  Biso   1.000  N
  C265     1.0000 0.39492  0.60508  0.35043  Biso   1.000  C
  H212     1.0000 0.37617  0.62383  0.31533  Biso   1.000  H
  C266     1.0000 0.15978  0.84022  0.61317  Biso   1.000  C
  N103     1.0000 0.22243  0.77757  0.56227  Biso   1.000  N
  C267     1.0000 0.24798  0.75202  0.51017  Biso   1.000  C
  H213     1.0000 0.24083  0.75917  0.46377  Biso   1.000  H
  N104     1.0000 0.28363  0.71637  0.53187  Biso   1.000  N
  N105     1.0000 0.28268  0.71732  0.60208  Biso   1.000  N
  C268     1.0000 0.24598  0.75402  0.61817  Biso   1.000  C
  H214     1.0000 0.23663  0.76337  0.66327  Biso   1.000  H
  N106     1.0000 0.09863  0.90137  0.66737  Biso   1.000  N
  C269     1.0000 0.11418  0.88582  0.73147  Biso   1.000  C
  H215     1.0000 0.14123  0.85877  0.74097  Biso   1.000  H
  N107     1.0000 0.08583  0.91417  0.77947  Biso   1.000  N
  N108     1.0000 0.05063  0.94937  0.74087  Biso   1.000  N
  C270     1.0000 0.06158  0.93842  0.68377  Biso   1.000  C
  H216     1.0000 0.04283  0.95717  0.64867  Biso   1.000  H
