data_image0
_cell_length_a       9.721
_cell_length_b       10.9804
_cell_length_c       11.479
_cell_angle_alpha    97.966
_cell_angle_beta     96.212
_cell_angle_gamma    98.244

_symmetry_space_group_name_H-M    "P 1"
_symmetry_int_tables_number       1

loop_
  _symmetry_equiv_pos_as_xyz
  'x, y, z'

loop_
  _atom_site_label
  _atom_site_occupancy
  _atom_site_fract_x
  _atom_site_fract_y
  _atom_site_fract_z
  _atom_site_thermal_displace_type
  _atom_site_B_iso_or_equiv
  _atom_site_type_symbol
  Co1      1.0000 0.40233  0.11669  0.88896  Biso   1.000  Co
  O1       1.0000 0.51750  0.98740  0.83800  Biso   1.000  O
  O2       1.0000 0.56590  0.83330  0.93280  Biso   1.000  O
  O3       1.0000 0.27400  0.25940  0.86160  Biso   1.000  O
  O4       1.0000 0.31580  0.13820  0.70910  Biso   1.000  O
  C1       1.0000 0.53620  0.87810  0.84130  Biso   1.000  C
  C2       1.0000 0.52550  0.79600  0.72410  Biso   1.000  C
  H1       1.0000 0.51770  0.83210  0.65560  Biso   1.000  H
  C3       1.0000 0.52650  0.67780  0.71340  Biso   1.000  C
  H2       1.0000 0.53720  0.64510  0.78370  Biso   1.000  H
  C4       1.0000 0.51290  0.58810  0.60270  Biso   1.000  C
  C5       1.0000 0.50530  0.62430  0.49180  Biso   1.000  C
  H3       1.0000 0.50900  0.70820  0.48540  Biso   1.000  H
  C6       1.0000 0.50760  0.46260  0.60960  Biso   1.000  C
  H4       1.0000 0.51280  0.43650  0.68340  Biso   1.000  H
  C7       1.0000 0.26070  0.22600  0.75290  Biso   1.000  C
  C8       1.0000 0.19500  0.32400  0.69800  Biso   1.000  C
  H5       1.0000 0.20510  0.40430  0.74030  Biso   1.000  H
  C9       1.0000 0.12000  0.29340  0.60020  Biso   1.000  C
  H6       1.0000 0.10210  0.21270  0.55830  Biso   1.000  H
  C10      1.0000 0.05380  0.39190  0.54210  Biso   1.000  C
  C11      1.0000 0.94310  0.33280  0.45690  Biso   1.000  C
  H7       1.0000 0.91540  0.24700  0.44890  Biso   1.000  H
  C12      1.0000 0.87400  0.40170  0.38370  Biso   1.000  C
  H8       1.0000 0.79990  0.36220  0.32670  Biso   1.000  H
  C13      1.0000 0.91550  0.52980  0.39570  Biso   1.000  C
  C14      1.0000 0.02620  0.58900  0.48090  Biso   1.000  C
  H9       1.0000 0.05390  0.67470  0.48900  Biso   1.000  H
  C15      1.0000 0.09530  0.52000  0.55420  Biso   1.000  C
  H10      1.0000 0.16940  0.55960  0.61120  Biso   1.000  H
  C16      1.0000 0.84210  0.60350  0.32110  Biso   1.000  C
  H11      1.0000 0.80160  0.56450  0.24550  Biso   1.000  H
  C17      1.0000 0.82800  0.71840  0.34400  Biso   1.000  C
  H12      1.0000 0.86490  0.76270  0.41800  Biso   1.000  H
  N1       1.0000 0.57890  0.25790  0.87940  Biso   1.000  N
  C18      1.0000 0.66510  0.24860  0.79720  Biso   1.000  C
  H13      1.0000 0.65370  0.17460  0.74420  Biso   1.000  H
  C19      1.0000 0.76920  0.34210  0.78680  Biso   1.000  C
  H14      1.0000 0.82600  0.33100  0.72730  Biso   1.000  H
  C20      1.0000 0.79130  0.45370  0.86430  Biso   1.000  C
  C21      1.0000 0.70060  0.46330  0.94800  Biso   1.000  C
  H15      1.0000 0.70840  0.53650  0.00150  Biso   1.000  H
  C22      1.0000 0.59860  0.36450  0.95220  Biso   1.000  C
  H16      1.0000 0.53950  0.37330  0.01030  Biso   1.000  H
  C23      1.0000 0.90540  0.55870  0.85550  Biso   1.000  C
  H17      1.0000 0.98840  0.55010  0.90670  Biso   1.000  H
  H18      1.0000 0.92780  0.54870  0.77480  Biso   1.000  H
  C24      1.0000 0.87780  0.68090  0.88480  Biso   1.000  C
  H19      1.0000 0.85000  0.68960  0.96380  Biso   1.000  H
  H20      1.0000 0.79850  0.69150  0.83040  Biso   1.000  H
  N2       1.0000 0.22390  0.97600  0.88940  Biso   1.000  N
  C25      1.0000 0.99560  0.78450  0.88240  Biso   1.000  C
  C26      1.0000 0.06860  0.79980  0.78560  Biso   1.000  C
  H21      1.0000 0.03750  0.74850  0.71330  Biso   1.000  H
  C27      1.0000 0.18560  0.88950  0.79540  Biso   1.000  C
  H22      1.0000 0.23950  0.88900  0.73320  Biso   1.000  H
  C28      1.0000 0.17180  0.95370  0.99000  Biso   1.000  C
  H23      1.0000 0.21030  0.00400  0.06130  Biso   1.000  H
  C29      1.0000 0.06220  0.85780  0.98990  Biso   1.000  C
  H24      1.0000 0.03220  0.84160  0.06120  Biso   1.000  H
  C30      1.0000 0.98210  0.87680  0.80950  Biso   1.000  C
  H25      1.0000 0.89680  0.88010  0.76570  Biso   1.000  H
  C31      1.0000 0.10130  0.96820  0.81370  Biso   1.000  C
  H26      1.0000 0.09520  0.02830  0.76450  Biso   1.000  H
  C32      1.0000 0.21490  0.89720  0.95610  Biso   1.000  C
  H27      1.0000 0.29350  0.90100  0.01120  Biso   1.000  H
  C33      1.0000 0.11030  0.80180  0.95510  Biso   1.000  C
  H28      1.0000 0.12320  0.74410  0.00580  Biso   1.000  H
  Co2      1.0000 0.59767  0.88331  0.11104  Biso   1.000  Co
  O5       1.0000 0.48250  0.01260  0.16200  Biso   1.000  O
  O6       1.0000 0.43410  0.16670  0.06720  Biso   1.000  O
  O7       1.0000 0.72600  0.74060  0.13840  Biso   1.000  O
  O8       1.0000 0.68420  0.86180  0.29090  Biso   1.000  O
  C34      1.0000 0.46380  0.12190  0.15870  Biso   1.000  C
  C35      1.0000 0.47450  0.20400  0.27590  Biso   1.000  C
  H29      1.0000 0.48230  0.16790  0.34440  Biso   1.000  H
  C36      1.0000 0.47350  0.32220  0.28660  Biso   1.000  C
  H30      1.0000 0.46280  0.35490  0.21630  Biso   1.000  H
  C37      1.0000 0.48710  0.41190  0.39730  Biso   1.000  C
  C38      1.0000 0.49470  0.37570  0.50820  Biso   1.000  C
  H31      1.0000 0.49100  0.29180  0.51460  Biso   1.000  H
  C39      1.0000 0.49240  0.53740  0.39040  Biso   1.000  C
  H32      1.0000 0.48720  0.56350  0.31660  Biso   1.000  H
  C40      1.0000 0.73930  0.77400  0.24710  Biso   1.000  C
  C41      1.0000 0.80500  0.67600  0.30200  Biso   1.000  C
  H33      1.0000 0.79490  0.59570  0.25970  Biso   1.000  H
  C42      1.0000 0.88000  0.70660  0.39980  Biso   1.000  C
  H34      1.0000 0.89790  0.78730  0.44170  Biso   1.000  H
  C43      1.0000 0.94620  0.60810  0.45790  Biso   1.000  C
  C44      1.0000 0.05690  0.66720  0.54310  Biso   1.000  C
  H35      1.0000 0.08460  0.75300  0.55110  Biso   1.000  H
  C45      1.0000 0.12600  0.59830  0.61630  Biso   1.000  C
  H36      1.0000 0.20010  0.63780  0.67330  Biso   1.000  H
  C46      1.0000 0.08450  0.47020  0.60430  Biso   1.000  C
  C47      1.0000 0.97380  0.41100  0.51910  Biso   1.000  C
  H37      1.0000 0.94610  0.32530  0.51100  Biso   1.000  H
  C48      1.0000 0.90470  0.48000  0.44580  Biso   1.000  C
  H38      1.0000 0.83060  0.44040  0.38880  Biso   1.000  H
  C49      1.0000 0.15790  0.39650  0.67890  Biso   1.000  C
  H39      1.0000 0.19840  0.43550  0.75450  Biso   1.000  H
  C50      1.0000 0.17200  0.28160  0.65600  Biso   1.000  C
  H40      1.0000 0.13510  0.23730  0.58200  Biso   1.000  H
  N3       1.0000 0.42110  0.74210  0.12060  Biso   1.000  N
  C51      1.0000 0.33490  0.75140  0.20280  Biso   1.000  C
  H41      1.0000 0.34630  0.82540  0.25580  Biso   1.000  H
  C52      1.0000 0.23080  0.65790  0.21320  Biso   1.000  C
  H42      1.0000 0.17400  0.66900  0.27270  Biso   1.000  H
  C53      1.0000 0.20870  0.54630  0.13570  Biso   1.000  C
  C54      1.0000 0.29940  0.53670  0.05200  Biso   1.000  C
  H43      1.0000 0.29160  0.46350  0.99850  Biso   1.000  H
  C55      1.0000 0.40140  0.63550  0.04780  Biso   1.000  C
  H44      1.0000 0.46050  0.62670  0.98970  Biso   1.000  H
  C56      1.0000 0.09460  0.44130  0.14450  Biso   1.000  C
  H45      1.0000 0.01160  0.44990  0.09330  Biso   1.000  H
  H46      1.0000 0.07220  0.45130  0.22520  Biso   1.000  H
  C57      1.0000 0.12220  0.31910  0.11520  Biso   1.000  C
  H47      1.0000 0.15000  0.31040  0.03620  Biso   1.000  H
  H48      1.0000 0.20150  0.30850  0.16960  Biso   1.000  H
  N4       1.0000 0.77610  0.02400  0.11060  Biso   1.000  N
  C58      1.0000 0.00440  0.21550  0.11760  Biso   1.000  C
  C59      1.0000 0.93140  0.20020  0.21440  Biso   1.000  C
  H49      1.0000 0.96250  0.25150  0.28670  Biso   1.000  H
  C60      1.0000 0.81440  0.11050  0.20460  Biso   1.000  C
  H50      1.0000 0.76050  0.11100  0.26680  Biso   1.000  H
  C61      1.0000 0.82820  0.04630  0.01000  Biso   1.000  C
  H51      1.0000 0.78970  0.99600  0.93870  Biso   1.000  H
  C62      1.0000 0.93780  0.14220  0.01010  Biso   1.000  C
  H52      1.0000 0.96780  0.15840  0.93880  Biso   1.000  H
  C63      1.0000 0.01790  0.12320  0.19050  Biso   1.000  C
  H53      1.0000 0.10320  0.11990  0.23430  Biso   1.000  H
  C64      1.0000 0.89870  0.03180  0.18630  Biso   1.000  C
  H54      1.0000 0.90480  0.97170  0.23550  Biso   1.000  H
  C65      1.0000 0.78510  0.10280  0.04390  Biso   1.000  C
  H55      1.0000 0.70650  0.09900  0.98880  Biso   1.000  H
  C66      1.0000 0.88970  0.19820  0.04490  Biso   1.000  C
  H56      1.0000 0.87680  0.25590  0.99420  Biso   1.000  H
