data_image0
_cell_length_a       23.215
_cell_length_b       17.112
_cell_length_c       10.343
_cell_angle_alpha    90
_cell_angle_beta     94.529
_cell_angle_gamma    90

_symmetry_space_group_name_H-M    "P 1"
_symmetry_int_tables_number       1

loop_
  _symmetry_equiv_pos_as_xyz
  'x, y, z'

loop_
  _atom_site_label
  _atom_site_occupancy
  _atom_site_fract_x
  _atom_site_fract_y
  _atom_site_fract_z
  _atom_site_thermal_displace_type
  _atom_site_B_iso_or_equiv
  _atom_site_type_symbol
  Zn1      1.0000 0.56617  0.33345  0.22032  Biso   1.000  Zn
  Zn2      1.0000 0.95466  0.32323  0.13582  Biso   1.000  Zn
  Zn3      1.0000 0.52405  0.66789  0.11824  Biso   1.000  Zn
  Zn4      1.0000 0.95281  0.66860  0.15446  Biso   1.000  Zn
  P1       1.0000 0.60042  0.26788  0.96952  Biso   1.000  P
  P2       1.0000 0.92052  0.25443  0.87482  Biso   1.000  P
  P3       1.0000 0.91127  0.50172  0.02700  Biso   1.000  P
  P4       1.0000 0.59382  0.50852  0.11488  Biso   1.000  P
  P5       1.0000 0.56229  0.78680  0.34694  Biso   1.000  P
  P6       1.0000 0.91447  0.77466  0.37084  Biso   1.000  P
  O1       1.0000 0.59882  0.25484  0.11540  Biso   1.000  O
  O2       1.0000 0.58256  0.19205  0.90110  Biso   1.000  O
  O3       1.0000 0.56057  0.33599  0.92350  Biso   1.000  O
  O4       1.0000 0.92809  0.23940  0.02090  Biso   1.000  O
  O5       1.0000 0.96618  0.30960  0.82910  Biso   1.000  O
  O6       1.0000 0.92206  0.17580  0.80300  Biso   1.000  O
  O7       1.0000 0.92302  0.41820  0.05920  Biso   1.000  O
  O8       1.0000 0.94430  0.55680  0.12410  Biso   1.000  O
  O9       1.0000 0.92670  0.51820  0.88420  Biso   1.000  O
  H1       1.0000 0.91690  0.50380  0.80690  Biso   1.000  H
  O10      1.0000 0.59878  0.43768  0.20290  Biso   1.000  O
  O11      1.0000 0.59783  0.48340  0.97110  Biso   1.000  O
  H2       1.0000 0.58580  0.43730  0.96100  Biso   1.000  H
  O12      1.0000 0.53932  0.55498  0.13110  Biso   1.000  O
  O13      1.0000 0.54700  0.70568  0.29090  Biso   1.000  O
  O14      1.0000 0.51665  0.84781  0.30020  Biso   1.000  O
  O15      1.0000 0.56883  0.78214  0.49410  Biso   1.000  O
  O16      1.0000 0.92583  0.69160  0.32360  Biso   1.000  O
  O17      1.0000 0.96092  0.83310  0.33050  Biso   1.000  O
  O18      1.0000 0.91002  0.77470  0.51560  Biso   1.000  O
  C1       1.0000 0.67300  0.29080  0.93730  Biso   1.000  C
  H3       1.0000 0.67490  0.29650  0.84250  Biso   1.000  H
  H4       1.0000 0.68370  0.34170  0.97790  Biso   1.000  H
  C2       1.0000 0.71680  0.22950  0.98740  Biso   1.000  C
  H5       1.0000 0.71000  0.18090  0.93660  Biso   1.000  H
  H6       1.0000 0.71050  0.21750  0.07890  Biso   1.000  H
  C3       1.0000 0.77960  0.25480  0.97960  Biso   1.000  C
  H7       1.0000 0.78520  0.30700  0.01990  Biso   1.000  H
  H8       1.0000 0.80530  0.21750  0.02940  Biso   1.000  H
  C4       1.0000 0.79640  0.25830  0.83980  Biso   1.000  C
  H9       1.0000 0.76510  0.28430  0.78530  Biso   1.000  H
  H10      1.0000 0.80030  0.20440  0.80700  Biso   1.000  H
  C5       1.0000 0.85310  0.30220  0.82620  Biso   1.000  C
  H11      1.0000 0.85160  0.35120  0.87670  Biso   1.000  H
  H12      1.0000 0.85410  0.31720  0.73390  Biso   1.000  H
  C6       1.0000 0.83520  0.52100  0.03070  Biso   1.000  C
  H13      1.0000 0.82470  0.56900  0.98100  Biso   1.000  H
  H14      1.0000 0.81250  0.47700  0.99060  Biso   1.000  H
  C7       1.0000 0.82100  0.53130  0.17420  Biso   1.000  C
  H15      1.0000 0.82120  0.47940  0.21660  Biso   1.000  H
  H16      1.0000 0.85150  0.56340  0.22050  Biso   1.000  H
  C8       1.0000 0.76170  0.57050  0.18620  Biso   1.000  C
  H17      1.0000 0.75650  0.57910  0.27920  Biso   1.000  H
  H18      1.0000 0.76180  0.62230  0.14370  Biso   1.000  H
  C9       1.0000 0.71080  0.52390  0.12700  Biso   1.000  C
  H19      1.0000 0.70990  0.47150  0.16770  Biso   1.000  H
  H20      1.0000 0.71390  0.51700  0.03270  Biso   1.000  H
  C10      1.0000 0.65490  0.57000  0.15130  Biso   1.000  C
  H21      1.0000 0.65190  0.61710  0.09560  Biso   1.000  H
  H22      1.0000 0.65620  0.58700  0.24300  Biso   1.000  H
  C11      1.0000 0.62900  0.81970  0.28890  Biso   1.000  C
  H23      1.0000 0.62590  0.81550  0.19320  Biso   1.000  H
  H24      1.0000 0.63400  0.87570  0.31110  Biso   1.000  H
  C12      1.0000 0.68360  0.77540  0.34210  Biso   1.000  C
  H25      1.0000 0.68800  0.78070  0.43770  Biso   1.000  H
  H26      1.0000 0.67910  0.71920  0.32120  Biso   1.000  H
  C13      1.0000 0.73740  0.80620  0.28560  Biso   1.000  C
  H27      1.0000 0.73900  0.86350  0.29760  Biso   1.000  H
  H28      1.0000 0.73430  0.79560  0.19120  Biso   1.000  H
  C14      1.0000 0.79330  0.77090  0.34520  Biso   1.000  C
  H29      1.0000 0.79310  0.71400  0.32780  Biso   1.000  H
  H30      1.0000 0.79540  0.77830  0.44040  Biso   1.000  H
  C15      1.0000 0.84690  0.80750  0.29200  Biso   1.000  C
  H31      1.0000 0.84460  0.86500  0.30090  Biso   1.000  H
  H32      1.0000 0.84640  0.79540  0.19830  Biso   1.000  H
  H33      1.0000 0.69780  0.17770  0.98900  Biso   1.000  H
  H34      1.0000 0.73170  0.24270  0.07710  Biso   1.000  H
  C16      1.0000 0.76740  0.22620  0.89900  Biso   1.000  C
  H35      1.0000 0.79230  0.18060  0.92300  Biso   1.000  H
  H36      1.0000 0.75210  0.22000  0.80760  Biso   1.000  H
  C17      1.0000 0.80310  0.30100  0.91400  Biso   1.000  C
  H37      1.0000 0.77770  0.34690  0.89320  Biso   1.000  H
  H38      1.0000 0.81880  0.30670  0.00570  Biso   1.000  H
  H39      1.0000 0.86200  0.35760  0.80900  Biso   1.000  H
  H40      1.0000 0.83840  0.27900  0.74230  Biso   1.000  H
  H41      1.0000 0.82880  0.57820  0.03300  Biso   1.000  H
  H42      1.0000 0.81450  0.50050  0.95040  Biso   1.000  H
  C18      1.0000 0.80980  0.48300  0.14990  Biso   1.000  C
  H43      1.0000 0.82270  0.42790  0.15450  Biso   1.000  H
  H44      1.0000 0.82720  0.50950  0.22860  Biso   1.000  H
  C19      1.0000 0.74440  0.48380  0.15600  Biso   1.000  C
  H45      1.0000 0.72740  0.44010  0.10310  Biso   1.000  H
  H46      1.0000 0.73540  0.47490  0.24690  Biso   1.000  H
  C20      1.0000 0.71620  0.55990  0.10800  Biso   1.000  C
  H47      1.0000 0.71450  0.56120  0.01200  Biso   1.000  H
  H48      1.0000 0.74040  0.60440  0.14100  Biso   1.000  H
  H49      1.0000 0.64240  0.62280  0.12130  Biso   1.000  H
  H50      1.0000 0.65960  0.57290  0.24720  Biso   1.000  H
  Zn5      1.0000 0.43383  0.83345  0.27968  Biso   1.000  Zn
  Zn6      1.0000 0.04534  0.82323  0.36418  Biso   1.000  Zn
  Zn7      1.0000 0.47595  0.16789  0.38176  Biso   1.000  Zn
  Zn8      1.0000 0.04719  0.16860  0.34554  Biso   1.000  Zn
  P7       1.0000 0.39958  0.76788  0.53048  Biso   1.000  P
  P8       1.0000 0.07948  0.75443  0.62518  Biso   1.000  P
  P9       1.0000 0.08873  0.00172  0.47300  Biso   1.000  P
  P10      1.0000 0.40618  0.00852  0.38512  Biso   1.000  P
  P11      1.0000 0.43771  0.28680  0.15306  Biso   1.000  P
  P12      1.0000 0.08553  0.27466  0.12916  Biso   1.000  P
  O19      1.0000 0.40118  0.75484  0.38460  Biso   1.000  O
  O20      1.0000 0.41744  0.69205  0.59890  Biso   1.000  O
  O21      1.0000 0.43943  0.83599  0.57650  Biso   1.000  O
  O22      1.0000 0.07191  0.73940  0.47910  Biso   1.000  O
  O23      1.0000 0.03382  0.80960  0.67090  Biso   1.000  O
  O24      1.0000 0.07794  0.67580  0.69700  Biso   1.000  O
  O25      1.0000 0.07698  0.91820  0.44080  Biso   1.000  O
  O26      1.0000 0.05570  0.05680  0.37590  Biso   1.000  O
  O27      1.0000 0.07330  0.01820  0.61580  Biso   1.000  O
  H51      1.0000 0.08310  0.00380  0.69310  Biso   1.000  H
  O28      1.0000 0.40122  0.93768  0.29710  Biso   1.000  O
  O29      1.0000 0.40217  0.98340  0.52890  Biso   1.000  O
  H52      1.0000 0.41420  0.93730  0.53900  Biso   1.000  H
  O30      1.0000 0.46068  0.05498  0.36890  Biso   1.000  O
  O31      1.0000 0.45300  0.20568  0.20910  Biso   1.000  O
  O32      1.0000 0.48335  0.34781  0.19980  Biso   1.000  O
  O33      1.0000 0.43117  0.28214  0.00590  Biso   1.000  O
  O34      1.0000 0.07417  0.19160  0.17640  Biso   1.000  O
  O35      1.0000 0.03908  0.33310  0.16950  Biso   1.000  O
  O36      1.0000 0.08998  0.27470  0.98440  Biso   1.000  O
  C21      1.0000 0.32700  0.79080  0.56270  Biso   1.000  C
  H53      1.0000 0.32510  0.79650  0.65750  Biso   1.000  H
  H54      1.0000 0.31630  0.84170  0.52210  Biso   1.000  H
  C22      1.0000 0.28320  0.72950  0.51260  Biso   1.000  C
  H55      1.0000 0.29000  0.68090  0.56340  Biso   1.000  H
  H56      1.0000 0.28950  0.71750  0.42110  Biso   1.000  H
  C23      1.0000 0.22040  0.75480  0.52040  Biso   1.000  C
  H57      1.0000 0.21480  0.80700  0.48010  Biso   1.000  H
  H58      1.0000 0.19470  0.71750  0.47060  Biso   1.000  H
  C24      1.0000 0.20360  0.75830  0.66020  Biso   1.000  C
  H59      1.0000 0.23490  0.78430  0.71470  Biso   1.000  H
  H60      1.0000 0.19970  0.70440  0.69300  Biso   1.000  H
  C25      1.0000 0.14690  0.80220  0.67380  Biso   1.000  C
  H61      1.0000 0.14840  0.85120  0.62330  Biso   1.000  H
  H62      1.0000 0.14590  0.81720  0.76610  Biso   1.000  H
  C26      1.0000 0.16480  0.02100  0.46930  Biso   1.000  C
  H63      1.0000 0.17530  0.06900  0.51900  Biso   1.000  H
  H64      1.0000 0.18750  0.97700  0.50940  Biso   1.000  H
  C27      1.0000 0.17900  0.03130  0.32580  Biso   1.000  C
  H65      1.0000 0.17880  0.97940  0.28340  Biso   1.000  H
  H66      1.0000 0.14850  0.06340  0.27950  Biso   1.000  H
  C28      1.0000 0.23830  0.07050  0.31380  Biso   1.000  C
  H67      1.0000 0.24350  0.07910  0.22080  Biso   1.000  H
  H68      1.0000 0.23820  0.12230  0.35630  Biso   1.000  H
  C29      1.0000 0.28920  0.02390  0.37300  Biso   1.000  C
  H69      1.0000 0.29010  0.97150  0.33230  Biso   1.000  H
  H70      1.0000 0.28610  0.01700  0.46730  Biso   1.000  H
  C30      1.0000 0.34510  0.07000  0.34870  Biso   1.000  C
  H71      1.0000 0.34810  0.11710  0.40440  Biso   1.000  H
  H72      1.0000 0.34380  0.08700  0.25700  Biso   1.000  H
  C31      1.0000 0.37100  0.31970  0.21110  Biso   1.000  C
  H73      1.0000 0.37410  0.31550  0.30680  Biso   1.000  H
  H74      1.0000 0.36600  0.37570  0.18890  Biso   1.000  H
  C32      1.0000 0.31640  0.27540  0.15790  Biso   1.000  C
  H75      1.0000 0.31200  0.28070  0.06230  Biso   1.000  H
  H76      1.0000 0.32090  0.21920  0.17880  Biso   1.000  H
  C33      1.0000 0.26260  0.30620  0.21440  Biso   1.000  C
  H77      1.0000 0.26100  0.36350  0.20240  Biso   1.000  H
  H78      1.0000 0.26570  0.29560  0.30880  Biso   1.000  H
  C34      1.0000 0.20670  0.27090  0.15480  Biso   1.000  C
  H79      1.0000 0.20690  0.21400  0.17220  Biso   1.000  H
  H80      1.0000 0.20460  0.27830  0.05960  Biso   1.000  H
  C35      1.0000 0.15310  0.30750  0.20800  Biso   1.000  C
  H81      1.0000 0.15540  0.36500  0.19910  Biso   1.000  H
  H82      1.0000 0.15360  0.29540  0.30170  Biso   1.000  H
  H83      1.0000 0.30220  0.67770  0.51100  Biso   1.000  H
  H84      1.0000 0.26830  0.74270  0.42290  Biso   1.000  H
  C36      1.0000 0.23260  0.72620  0.60100  Biso   1.000  C
  H85      1.0000 0.20770  0.68060  0.57700  Biso   1.000  H
  H86      1.0000 0.24790  0.72000  0.69240  Biso   1.000  H
  C37      1.0000 0.19690  0.80100  0.58600  Biso   1.000  C
  H87      1.0000 0.22230  0.84690  0.60680  Biso   1.000  H
  H88      1.0000 0.18120  0.80670  0.49430  Biso   1.000  H
  H89      1.0000 0.13800  0.85760  0.69100  Biso   1.000  H
  H90      1.0000 0.16160  0.77900  0.75770  Biso   1.000  H
  H91      1.0000 0.17120  0.07820  0.46700  Biso   1.000  H
  H92      1.0000 0.18550  0.00050  0.54960  Biso   1.000  H
  C38      1.0000 0.19020  0.98300  0.35010  Biso   1.000  C
  H93      1.0000 0.17730  0.92790  0.34550  Biso   1.000  H
  H94      1.0000 0.17280  0.00950  0.27140  Biso   1.000  H
  C39      1.0000 0.25560  0.98380  0.34400  Biso   1.000  C
  H95      1.0000 0.27260  0.94010  0.39690  Biso   1.000  H
  H96      1.0000 0.26460  0.97490  0.25310  Biso   1.000  H
  C40      1.0000 0.28380  0.05990  0.39200  Biso   1.000  C
  H97      1.0000 0.28550  0.06120  0.48800  Biso   1.000  H
  H98      1.0000 0.25960  0.10440  0.35900  Biso   1.000  H
  H99      1.0000 0.35760  0.12280  0.37870  Biso   1.000  H
  H100     1.0000 0.34040  0.07290  0.25280  Biso   1.000  H
  Zn9      1.0000 0.43383  0.66655  0.77968  Biso   1.000  Zn
  Zn10     1.0000 0.04534  0.67677  0.86418  Biso   1.000  Zn
  Zn11     1.0000 0.47595  0.33211  0.88176  Biso   1.000  Zn
  Zn12     1.0000 0.04719  0.33140  0.84554  Biso   1.000  Zn
  P13      1.0000 0.39958  0.73212  0.03048  Biso   1.000  P
  P14      1.0000 0.07948  0.74557  0.12518  Biso   1.000  P
  P15      1.0000 0.08873  0.49828  0.97300  Biso   1.000  P
  P16      1.0000 0.40618  0.49148  0.88512  Biso   1.000  P
  P17      1.0000 0.43771  0.21320  0.65306  Biso   1.000  P
  P18      1.0000 0.08553  0.22534  0.62916  Biso   1.000  P
  O37      1.0000 0.40118  0.74516  0.88460  Biso   1.000  O
  O38      1.0000 0.41744  0.80795  0.09890  Biso   1.000  O
  O39      1.0000 0.43943  0.66401  0.07650  Biso   1.000  O
  O40      1.0000 0.07191  0.76060  0.97910  Biso   1.000  O
  O41      1.0000 0.03382  0.69040  0.17090  Biso   1.000  O
  O42      1.0000 0.07794  0.82420  0.19700  Biso   1.000  O
  O43      1.0000 0.07698  0.58180  0.94080  Biso   1.000  O
  O44      1.0000 0.05570  0.44320  0.87590  Biso   1.000  O
  O45      1.0000 0.07330  0.48180  0.11580  Biso   1.000  O
  H101     1.0000 0.08310  0.49620  0.19310  Biso   1.000  H
  O46      1.0000 0.40122  0.56232  0.79710  Biso   1.000  O
  O47      1.0000 0.40217  0.51660  0.02890  Biso   1.000  O
  H102     1.0000 0.41420  0.56270  0.03900  Biso   1.000  H
  O48      1.0000 0.46068  0.44502  0.86890  Biso   1.000  O
  O49      1.0000 0.45300  0.29432  0.70910  Biso   1.000  O
  O50      1.0000 0.48335  0.15219  0.69980  Biso   1.000  O
  O51      1.0000 0.43117  0.21786  0.50590  Biso   1.000  O
  O52      1.0000 0.07417  0.30840  0.67640  Biso   1.000  O
  O53      1.0000 0.03908  0.16690  0.66950  Biso   1.000  O
  O54      1.0000 0.08998  0.22530  0.48440  Biso   1.000  O
  C41      1.0000 0.32700  0.70920  0.06270  Biso   1.000  C
  H103     1.0000 0.32510  0.70350  0.15750  Biso   1.000  H
  H104     1.0000 0.31630  0.65830  0.02210  Biso   1.000  H
  C42      1.0000 0.28320  0.77050  0.01260  Biso   1.000  C
  H105     1.0000 0.29000  0.81910  0.06340  Biso   1.000  H
  H106     1.0000 0.28950  0.78250  0.92110  Biso   1.000  H
  C43      1.0000 0.22040  0.74520  0.02040  Biso   1.000  C
  H107     1.0000 0.21480  0.69300  0.98010  Biso   1.000  H
  H108     1.0000 0.19470  0.78250  0.97060  Biso   1.000  H
  C44      1.0000 0.20360  0.74170  0.16020  Biso   1.000  C
  H109     1.0000 0.23490  0.71570  0.21470  Biso   1.000  H
  H110     1.0000 0.19970  0.79560  0.19300  Biso   1.000  H
  C45      1.0000 0.14690  0.69780  0.17380  Biso   1.000  C
  H111     1.0000 0.14840  0.64880  0.12330  Biso   1.000  H
  H112     1.0000 0.14590  0.68280  0.26610  Biso   1.000  H
  C46      1.0000 0.16480  0.47900  0.96930  Biso   1.000  C
  H113     1.0000 0.17530  0.43100  0.01900  Biso   1.000  H
  H114     1.0000 0.18750  0.52300  0.00940  Biso   1.000  H
  C47      1.0000 0.17900  0.46870  0.82580  Biso   1.000  C
  H115     1.0000 0.17880  0.52060  0.78340  Biso   1.000  H
  H116     1.0000 0.14850  0.43660  0.77950  Biso   1.000  H
  C48      1.0000 0.23830  0.42950  0.81380  Biso   1.000  C
  H117     1.0000 0.24350  0.42090  0.72080  Biso   1.000  H
  H118     1.0000 0.23820  0.37770  0.85630  Biso   1.000  H
  C49      1.0000 0.28920  0.47610  0.87300  Biso   1.000  C
  H119     1.0000 0.29010  0.52850  0.83230  Biso   1.000  H
  H120     1.0000 0.28610  0.48300  0.96730  Biso   1.000  H
  C50      1.0000 0.34510  0.43000  0.84870  Biso   1.000  C
  H121     1.0000 0.34810  0.38290  0.90440  Biso   1.000  H
  H122     1.0000 0.34380  0.41300  0.75700  Biso   1.000  H
  C51      1.0000 0.37100  0.18030  0.71110  Biso   1.000  C
  H123     1.0000 0.37410  0.18450  0.80680  Biso   1.000  H
  H124     1.0000 0.36600  0.12430  0.68890  Biso   1.000  H
  C52      1.0000 0.31640  0.22460  0.65790  Biso   1.000  C
  H125     1.0000 0.31200  0.21930  0.56230  Biso   1.000  H
  H126     1.0000 0.32090  0.28080  0.67880  Biso   1.000  H
  C53      1.0000 0.26260  0.19380  0.71440  Biso   1.000  C
  H127     1.0000 0.26100  0.13650  0.70240  Biso   1.000  H
  H128     1.0000 0.26570  0.20440  0.80880  Biso   1.000  H
  C54      1.0000 0.20670  0.22910  0.65480  Biso   1.000  C
  H129     1.0000 0.20690  0.28600  0.67220  Biso   1.000  H
  H130     1.0000 0.20460  0.22170  0.55960  Biso   1.000  H
  C55      1.0000 0.15310  0.19250  0.70800  Biso   1.000  C
  H131     1.0000 0.15540  0.13500  0.69910  Biso   1.000  H
  H132     1.0000 0.15360  0.20460  0.80170  Biso   1.000  H
  H133     1.0000 0.30220  0.82230  0.01100  Biso   1.000  H
  H134     1.0000 0.26830  0.75730  0.92290  Biso   1.000  H
  C56      1.0000 0.23260  0.77380  0.10100  Biso   1.000  C
  H135     1.0000 0.20770  0.81940  0.07700  Biso   1.000  H
  H136     1.0000 0.24790  0.78000  0.19240  Biso   1.000  H
  C57      1.0000 0.19690  0.69900  0.08600  Biso   1.000  C
  H137     1.0000 0.22230  0.65310  0.10680  Biso   1.000  H
  H138     1.0000 0.18120  0.69330  0.99430  Biso   1.000  H
  H139     1.0000 0.13800  0.64240  0.19100  Biso   1.000  H
  H140     1.0000 0.16160  0.72100  0.25770  Biso   1.000  H
  H141     1.0000 0.17120  0.42180  0.96700  Biso   1.000  H
  H142     1.0000 0.18550  0.49950  0.04960  Biso   1.000  H
  C58      1.0000 0.19020  0.51700  0.85010  Biso   1.000  C
  H143     1.0000 0.17730  0.57210  0.84550  Biso   1.000  H
  H144     1.0000 0.17280  0.49050  0.77140  Biso   1.000  H
  C59      1.0000 0.25560  0.51620  0.84400  Biso   1.000  C
  H145     1.0000 0.27260  0.55990  0.89690  Biso   1.000  H
  H146     1.0000 0.26460  0.52510  0.75310  Biso   1.000  H
  C60      1.0000 0.28380  0.44010  0.89200  Biso   1.000  C
  H147     1.0000 0.28550  0.43880  0.98800  Biso   1.000  H
  H148     1.0000 0.25960  0.39560  0.85900  Biso   1.000  H
  H149     1.0000 0.35760  0.37720  0.87870  Biso   1.000  H
  H150     1.0000 0.34040  0.42710  0.75280  Biso   1.000  H
  Zn13     1.0000 0.56617  0.16655  0.72032  Biso   1.000  Zn
  Zn14     1.0000 0.95466  0.17677  0.63582  Biso   1.000  Zn
  Zn15     1.0000 0.52405  0.83211  0.61824  Biso   1.000  Zn
  Zn16     1.0000 0.95281  0.83140  0.65446  Biso   1.000  Zn
  P19      1.0000 0.60042  0.23212  0.46952  Biso   1.000  P
  P20      1.0000 0.92052  0.24557  0.37482  Biso   1.000  P
  P21      1.0000 0.91127  0.99828  0.52700  Biso   1.000  P
  P22      1.0000 0.59382  0.99148  0.61488  Biso   1.000  P
  P23      1.0000 0.56229  0.71320  0.84694  Biso   1.000  P
  P24      1.0000 0.91447  0.72534  0.87084  Biso   1.000  P
  O55      1.0000 0.59882  0.24516  0.61540  Biso   1.000  O
  O56      1.0000 0.58256  0.30795  0.40110  Biso   1.000  O
  O57      1.0000 0.56057  0.16401  0.42350  Biso   1.000  O
  O58      1.0000 0.92809  0.26060  0.52090  Biso   1.000  O
  O59      1.0000 0.96618  0.19040  0.32910  Biso   1.000  O
  O60      1.0000 0.92206  0.32420  0.30300  Biso   1.000  O
  O61      1.0000 0.92302  0.08180  0.55920  Biso   1.000  O
  O62      1.0000 0.94430  0.94320  0.62410  Biso   1.000  O
  O63      1.0000 0.92670  0.98180  0.38420  Biso   1.000  O
  H151     1.0000 0.91690  0.99620  0.30690  Biso   1.000  H
  O64      1.0000 0.59878  0.06232  0.70290  Biso   1.000  O
  O65      1.0000 0.59783  0.01660  0.47110  Biso   1.000  O
  H152     1.0000 0.58580  0.06270  0.46100  Biso   1.000  H
  O66      1.0000 0.53932  0.94502  0.63110  Biso   1.000  O
  O67      1.0000 0.54700  0.79432  0.79090  Biso   1.000  O
  O68      1.0000 0.51665  0.65219  0.80020  Biso   1.000  O
  O69      1.0000 0.56883  0.71786  0.99410  Biso   1.000  O
  O70      1.0000 0.92583  0.80840  0.82360  Biso   1.000  O
  O71      1.0000 0.96092  0.66690  0.83050  Biso   1.000  O
  O72      1.0000 0.91002  0.72530  0.01560  Biso   1.000  O
  C61      1.0000 0.67300  0.20920  0.43730  Biso   1.000  C
  H153     1.0000 0.67490  0.20350  0.34250  Biso   1.000  H
  H154     1.0000 0.68370  0.15830  0.47790  Biso   1.000  H
  C62      1.0000 0.71680  0.27050  0.48740  Biso   1.000  C
  H155     1.0000 0.71000  0.31910  0.43660  Biso   1.000  H
  H156     1.0000 0.71050  0.28250  0.57890  Biso   1.000  H
  C63      1.0000 0.77960  0.24520  0.47960  Biso   1.000  C
  H157     1.0000 0.78520  0.19300  0.51990  Biso   1.000  H
  H158     1.0000 0.80530  0.28250  0.52940  Biso   1.000  H
  C64      1.0000 0.79640  0.24170  0.33980  Biso   1.000  C
  H159     1.0000 0.76510  0.21570  0.28530  Biso   1.000  H
  H160     1.0000 0.80030  0.29560  0.30700  Biso   1.000  H
  C65      1.0000 0.85310  0.19780  0.32620  Biso   1.000  C
  H161     1.0000 0.85160  0.14880  0.37670  Biso   1.000  H
  H162     1.0000 0.85410  0.18280  0.23390  Biso   1.000  H
  C66      1.0000 0.83520  0.97900  0.53070  Biso   1.000  C
  H163     1.0000 0.82470  0.93100  0.48100  Biso   1.000  H
  H164     1.0000 0.81250  0.02300  0.49060  Biso   1.000  H
  C67      1.0000 0.82100  0.96870  0.67420  Biso   1.000  C
  H165     1.0000 0.82120  0.02060  0.71660  Biso   1.000  H
  H166     1.0000 0.85150  0.93660  0.72050  Biso   1.000  H
  C68      1.0000 0.76170  0.92950  0.68620  Biso   1.000  C
  H167     1.0000 0.75650  0.92090  0.77920  Biso   1.000  H
  H168     1.0000 0.76180  0.87770  0.64370  Biso   1.000  H
  C69      1.0000 0.71080  0.97610  0.62700  Biso   1.000  C
  H169     1.0000 0.70990  0.02850  0.66770  Biso   1.000  H
  H170     1.0000 0.71390  0.98300  0.53270  Biso   1.000  H
  C70      1.0000 0.65490  0.93000  0.65130  Biso   1.000  C
  H171     1.0000 0.65190  0.88290  0.59560  Biso   1.000  H
  H172     1.0000 0.65620  0.91300  0.74300  Biso   1.000  H
  C71      1.0000 0.62900  0.68030  0.78890  Biso   1.000  C
  H173     1.0000 0.62590  0.68450  0.69320  Biso   1.000  H
  H174     1.0000 0.63400  0.62430  0.81110  Biso   1.000  H
  C72      1.0000 0.68360  0.72460  0.84210  Biso   1.000  C
  H175     1.0000 0.68800  0.71930  0.93770  Biso   1.000  H
  H176     1.0000 0.67910  0.78080  0.82120  Biso   1.000  H
  C73      1.0000 0.73740  0.69380  0.78560  Biso   1.000  C
  H177     1.0000 0.73900  0.63650  0.79760  Biso   1.000  H
  H178     1.0000 0.73430  0.70440  0.69120  Biso   1.000  H
  C74      1.0000 0.79330  0.72910  0.84520  Biso   1.000  C
  H179     1.0000 0.79310  0.78600  0.82780  Biso   1.000  H
  H180     1.0000 0.79540  0.72170  0.94040  Biso   1.000  H
  C75      1.0000 0.84690  0.69250  0.79200  Biso   1.000  C
  H181     1.0000 0.84460  0.63500  0.80090  Biso   1.000  H
  H182     1.0000 0.84640  0.70460  0.69830  Biso   1.000  H
  H183     1.0000 0.69780  0.32230  0.48900  Biso   1.000  H
  H184     1.0000 0.73170  0.25730  0.57710  Biso   1.000  H
  C76      1.0000 0.76740  0.27380  0.39900  Biso   1.000  C
  H185     1.0000 0.79230  0.31940  0.42300  Biso   1.000  H
  H186     1.0000 0.75210  0.28000  0.30760  Biso   1.000  H
  C77      1.0000 0.80310  0.19900  0.41400  Biso   1.000  C
  H187     1.0000 0.77770  0.15310  0.39320  Biso   1.000  H
  H188     1.0000 0.81880  0.19330  0.50570  Biso   1.000  H
  H189     1.0000 0.86200  0.14240  0.30900  Biso   1.000  H
  H190     1.0000 0.83840  0.22100  0.24230  Biso   1.000  H
  H191     1.0000 0.82880  0.92180  0.53300  Biso   1.000  H
  H192     1.0000 0.81450  0.99950  0.45040  Biso   1.000  H
  C78      1.0000 0.80980  0.01700  0.64990  Biso   1.000  C
  H193     1.0000 0.82270  0.07210  0.65450  Biso   1.000  H
  H194     1.0000 0.82720  0.99050  0.72860  Biso   1.000  H
  C79      1.0000 0.74440  0.01620  0.65600  Biso   1.000  C
  H195     1.0000 0.72740  0.05990  0.60310  Biso   1.000  H
  H196     1.0000 0.73540  0.02510  0.74690  Biso   1.000  H
  C80      1.0000 0.71620  0.94010  0.60800  Biso   1.000  C
  H197     1.0000 0.71450  0.93880  0.51200  Biso   1.000  H
  H198     1.0000 0.74040  0.89560  0.64100  Biso   1.000  H
  H199     1.0000 0.64240  0.87720  0.62130  Biso   1.000  H
  H200     1.0000 0.65960  0.92710  0.74720  Biso   1.000  H
