data_image0
_cell_length_a       13.045
_cell_length_b       17.192
_cell_length_c       10.3905
_cell_angle_alpha    90
_cell_angle_beta     96.914
_cell_angle_gamma    90

_symmetry_space_group_name_H-M    "P 1"
_symmetry_int_tables_number       1

loop_
  _symmetry_equiv_pos_as_xyz
  'x, y, z'

loop_
  _atom_site_label
  _atom_site_occupancy
  _atom_site_fract_x
  _atom_site_fract_y
  _atom_site_fract_z
  _atom_site_thermal_displace_type
  _atom_site_B_iso_or_equiv
  _atom_site_type_symbol
  Zn1      1.0000 0.38067  0.83461  0.18706  Biso   1.000  Zn
  Zn2      1.0000 0.54611  0.66803  0.38630  Biso   1.000  Zn
  P1       1.0000 0.32315  0.72881  0.41721  Biso   1.000  P
  O1       1.0000 0.35690  0.80501  0.36040  Biso   1.000  O
  O2       1.0000 0.39600  0.66155  0.39180  Biso   1.000  O
  O3       1.0000 0.32010  0.74020  0.56250  Biso   1.000  O
  C1       1.0000 0.19750  0.70480  0.34230  Biso   1.000  C
  H1       1.0000 0.19910  0.70170  0.24740  Biso   1.000  H
  H2       1.0000 0.17880  0.65270  0.37250  Biso   1.000  H
  C2       1.0000 0.11310  0.76260  0.36940  Biso   1.000  C
  H3       1.0000 0.10480  0.76130  0.46280  Biso   1.000  H
  H4       1.0000 0.13450  0.81590  0.34800  Biso   1.000  H
  C3       1.0000 0.01030  0.74350  0.29010  Biso   1.000  C
  H5       1.0000 0.01830  0.74880  0.19700  Biso   1.000  H
  H6       1.0000 0.99310  0.68850  0.30590  Biso   1.000  H
  C4       1.0000 0.92120  0.79400  0.31970  Biso   1.000  C
  H7       1.0000 0.93670  0.84900  0.30140  Biso   1.000  H
  H8       1.0000 0.91330  0.78970  0.41300  Biso   1.000  H
  C5       1.0000 0.81980  0.77060  0.23930  Biso   1.000  C
  H9       1.0000 0.82840  0.77440  0.14610  Biso   1.000  H
  H10      1.0000 0.80460  0.71560  0.25810  Biso   1.000  H
  C6       1.0000 0.72880  0.82050  0.26580  Biso   1.000  C
  H11      1.0000 0.74260  0.87510  0.24350  Biso   1.000  H
  H12      1.0000 0.72190  0.81840  0.35960  Biso   1.000  H
  P2       1.0000 0.60946  0.79007  0.17604  Biso   1.000  P
  O4       1.0000 0.62490  0.78475  0.03330  Biso   1.000  O
  O5       1.0000 0.58030  0.70972  0.22410  Biso   1.000  O
  O6       1.0000 0.52810  0.85137  0.19930  Biso   1.000  O
  P3       1.0000 0.67217  0.50789  0.42641  Biso   1.000  P
  O7       1.0000 0.57960  0.55763  0.37630  Biso   1.000  O
  O8       1.0000 0.66680  0.48331  0.57040  Biso   1.000  O
  H13      1.0000 0.62990  0.44340  0.57210  Biso   1.000  H
  O9       1.0000 0.68150  0.43733  0.34130  Biso   1.000  O
  C7       1.0000 0.78600  0.56540  0.43240  Biso   1.000  C
  H14      1.0000 0.79740  0.57910  0.34260  Biso   1.000  H
  H15      1.0000 0.77460  0.61450  0.47840  Biso   1.000  H
  C8       1.0000 0.88340  0.52710  0.49850  Biso   1.000  C
  H16      1.0000 0.87160  0.51290  0.58790  Biso   1.000  H
  H17      1.0000 0.89510  0.47830  0.45180  Biso   1.000  H
  C9       1.0000 0.97620  0.57390  0.50510  Biso   1.000  C
  H18      1.0000 0.96310  0.62340  0.54910  Biso   1.000  H
  H19      1.0000 0.98840  0.58700  0.41540  Biso   1.000  H
  C10      1.0000 0.92480  0.46140  0.42600  Biso   1.000  C
  H20      1.0000 0.93770  0.56730  0.51440  Biso   1.000  H
  H21      1.0000 0.86890  0.50740  0.58400  Biso   1.000  H
  H22      1.0000 0.93840  0.48040  0.33970  Biso   1.000  H
  H23      1.0000 0.87150  0.42030  0.41230  Biso   1.000  H
  Zn3      1.0000 0.61933  0.33461  0.31294  Biso   1.000  Zn
  Zn4      1.0000 0.45389  0.16803  0.11370  Biso   1.000  Zn
  P4       1.0000 0.67685  0.22881  0.08279  Biso   1.000  P
  O10      1.0000 0.64310  0.30501  0.13960  Biso   1.000  O
  O11      1.0000 0.60400  0.16155  0.10820  Biso   1.000  O
  O12      1.0000 0.67990  0.24020  0.93750  Biso   1.000  O
  C11      1.0000 0.80250  0.20480  0.15770  Biso   1.000  C
  H24      1.0000 0.80090  0.20170  0.25260  Biso   1.000  H
  H25      1.0000 0.82120  0.15270  0.12750  Biso   1.000  H
  C12      1.0000 0.88690  0.26260  0.13060  Biso   1.000  C
  H26      1.0000 0.89520  0.26130  0.03720  Biso   1.000  H
  H27      1.0000 0.86550  0.31590  0.15200  Biso   1.000  H
  C13      1.0000 0.98970  0.24350  0.20990  Biso   1.000  C
  H28      1.0000 0.98170  0.24880  0.30300  Biso   1.000  H
  H29      1.0000 0.00690  0.18850  0.19410  Biso   1.000  H
  C14      1.0000 0.07880  0.29400  0.18030  Biso   1.000  C
  H30      1.0000 0.06330  0.34900  0.19860  Biso   1.000  H
  H31      1.0000 0.08670  0.28970  0.08700  Biso   1.000  H
  C15      1.0000 0.18020  0.27060  0.26070  Biso   1.000  C
  H32      1.0000 0.17160  0.27440  0.35390  Biso   1.000  H
  H33      1.0000 0.19540  0.21560  0.24190  Biso   1.000  H
  C16      1.0000 0.27120  0.32050  0.23420  Biso   1.000  C
  H34      1.0000 0.25740  0.37510  0.25650  Biso   1.000  H
  H35      1.0000 0.27810  0.31840  0.14040  Biso   1.000  H
  P5       1.0000 0.39054  0.29007  0.32396  Biso   1.000  P
  O13      1.0000 0.37510  0.28475  0.46670  Biso   1.000  O
  O14      1.0000 0.41970  0.20972  0.27590  Biso   1.000  O
  O15      1.0000 0.47190  0.35137  0.30070  Biso   1.000  O
  P6       1.0000 0.32783  0.00789  0.07359  Biso   1.000  P
  O16      1.0000 0.42040  0.05763  0.12370  Biso   1.000  O
  O17      1.0000 0.33320  0.98331  0.92960  Biso   1.000  O
  H36      1.0000 0.37010  0.94340  0.92790  Biso   1.000  H
  O18      1.0000 0.31850  0.93733  0.15870  Biso   1.000  O
  C17      1.0000 0.21400  0.06540  0.06760  Biso   1.000  C
  H37      1.0000 0.20260  0.07910  0.15740  Biso   1.000  H
  H38      1.0000 0.22540  0.11450  0.02160  Biso   1.000  H
  C18      1.0000 0.11660  0.02710  0.00150  Biso   1.000  C
  H39      1.0000 0.12840  0.01290  0.91210  Biso   1.000  H
  H40      1.0000 0.10490  0.97830  0.04820  Biso   1.000  H
  C19      1.0000 0.02380  0.07390  0.99490  Biso   1.000  C
  H41      1.0000 0.03690  0.12340  0.95090  Biso   1.000  H
  H42      1.0000 0.01160  0.08700  0.08460  Biso   1.000  H
  C20      1.0000 0.07520  0.96140  0.07400  Biso   1.000  C
  H43      1.0000 0.06230  0.06730  0.98560  Biso   1.000  H
  H44      1.0000 0.13110  0.00740  0.91600  Biso   1.000  H
  H45      1.0000 0.06160  0.98040  0.16030  Biso   1.000  H
  H46      1.0000 0.12850  0.92030  0.08770  Biso   1.000  H
  Zn5      1.0000 0.61933  0.16539  0.81294  Biso   1.000  Zn
  Zn6      1.0000 0.45389  0.33197  0.61370  Biso   1.000  Zn
  P7       1.0000 0.67685  0.27119  0.58279  Biso   1.000  P
  O19      1.0000 0.64310  0.19499  0.63960  Biso   1.000  O
  O20      1.0000 0.60400  0.33845  0.60820  Biso   1.000  O
  O21      1.0000 0.67990  0.25980  0.43750  Biso   1.000  O
  C21      1.0000 0.80250  0.29520  0.65770  Biso   1.000  C
  H47      1.0000 0.80090  0.29830  0.75260  Biso   1.000  H
  H48      1.0000 0.82120  0.34730  0.62750  Biso   1.000  H
  C22      1.0000 0.88690  0.23740  0.63060  Biso   1.000  C
  H49      1.0000 0.89520  0.23870  0.53720  Biso   1.000  H
  H50      1.0000 0.86550  0.18410  0.65200  Biso   1.000  H
  C23      1.0000 0.98970  0.25650  0.70990  Biso   1.000  C
  H51      1.0000 0.98170  0.25120  0.80300  Biso   1.000  H
  H52      1.0000 0.00690  0.31150  0.69410  Biso   1.000  H
  C24      1.0000 0.07880  0.20600  0.68030  Biso   1.000  C
  H53      1.0000 0.06330  0.15100  0.69860  Biso   1.000  H
  H54      1.0000 0.08670  0.21030  0.58700  Biso   1.000  H
  C25      1.0000 0.18020  0.22940  0.76070  Biso   1.000  C
  H55      1.0000 0.17160  0.22560  0.85390  Biso   1.000  H
  H56      1.0000 0.19540  0.28440  0.74190  Biso   1.000  H
  C26      1.0000 0.27120  0.17950  0.73420  Biso   1.000  C
  H57      1.0000 0.25740  0.12490  0.75650  Biso   1.000  H
  H58      1.0000 0.27810  0.18160  0.64040  Biso   1.000  H
  P8       1.0000 0.39054  0.20993  0.82396  Biso   1.000  P
  O22      1.0000 0.37510  0.21525  0.96670  Biso   1.000  O
  O23      1.0000 0.41970  0.29028  0.77590  Biso   1.000  O
  O24      1.0000 0.47190  0.14863  0.80070  Biso   1.000  O
  P9       1.0000 0.32783  0.49211  0.57359  Biso   1.000  P
  O25      1.0000 0.42040  0.44237  0.62370  Biso   1.000  O
  O26      1.0000 0.33320  0.51669  0.42960  Biso   1.000  O
  H59      1.0000 0.37010  0.55660  0.42790  Biso   1.000  H
  O27      1.0000 0.31850  0.56267  0.65870  Biso   1.000  O
  C27      1.0000 0.21400  0.43460  0.56760  Biso   1.000  C
  H60      1.0000 0.20260  0.42090  0.65740  Biso   1.000  H
  H61      1.0000 0.22540  0.38550  0.52160  Biso   1.000  H
  C28      1.0000 0.11660  0.47290  0.50150  Biso   1.000  C
  H62      1.0000 0.12840  0.48710  0.41210  Biso   1.000  H
  H63      1.0000 0.10490  0.52170  0.54820  Biso   1.000  H
  C29      1.0000 0.02380  0.42610  0.49490  Biso   1.000  C
  H64      1.0000 0.03690  0.37660  0.45090  Biso   1.000  H
  H65      1.0000 0.01160  0.41300  0.58460  Biso   1.000  H
  C30      1.0000 0.07520  0.53860  0.57400  Biso   1.000  C
  H66      1.0000 0.06230  0.43270  0.48560  Biso   1.000  H
  H67      1.0000 0.13110  0.49260  0.41600  Biso   1.000  H
  H68      1.0000 0.06160  0.51960  0.66030  Biso   1.000  H
  H69      1.0000 0.12850  0.57970  0.58770  Biso   1.000  H
  Zn7      1.0000 0.38067  0.66539  0.68706  Biso   1.000  Zn
  Zn8      1.0000 0.54611  0.83197  0.88630  Biso   1.000  Zn
  P10      1.0000 0.32315  0.77119  0.91721  Biso   1.000  P
  O28      1.0000 0.35690  0.69499  0.86040  Biso   1.000  O
  O29      1.0000 0.39600  0.83845  0.89180  Biso   1.000  O
  O30      1.0000 0.32010  0.75980  0.06250  Biso   1.000  O
  C31      1.0000 0.19750  0.79520  0.84230  Biso   1.000  C
  H70      1.0000 0.19910  0.79830  0.74740  Biso   1.000  H
  H71      1.0000 0.17880  0.84730  0.87250  Biso   1.000  H
  C32      1.0000 0.11310  0.73740  0.86940  Biso   1.000  C
  H72      1.0000 0.10480  0.73870  0.96280  Biso   1.000  H
  H73      1.0000 0.13450  0.68410  0.84800  Biso   1.000  H
  C33      1.0000 0.01030  0.75650  0.79010  Biso   1.000  C
  H74      1.0000 0.01830  0.75120  0.69700  Biso   1.000  H
  H75      1.0000 0.99310  0.81150  0.80590  Biso   1.000  H
  C34      1.0000 0.92120  0.70600  0.81970  Biso   1.000  C
  H76      1.0000 0.93670  0.65100  0.80140  Biso   1.000  H
  H77      1.0000 0.91330  0.71030  0.91300  Biso   1.000  H
  C35      1.0000 0.81980  0.72940  0.73930  Biso   1.000  C
  H78      1.0000 0.82840  0.72560  0.64610  Biso   1.000  H
  H79      1.0000 0.80460  0.78440  0.75810  Biso   1.000  H
  C36      1.0000 0.72880  0.67950  0.76580  Biso   1.000  C
  H80      1.0000 0.74260  0.62490  0.74350  Biso   1.000  H
  H81      1.0000 0.72190  0.68160  0.85960  Biso   1.000  H
  P11      1.0000 0.60946  0.70993  0.67604  Biso   1.000  P
  O31      1.0000 0.62490  0.71525  0.53330  Biso   1.000  O
  O32      1.0000 0.58030  0.79028  0.72410  Biso   1.000  O
  O33      1.0000 0.52810  0.64863  0.69930  Biso   1.000  O
  P12      1.0000 0.67217  0.99211  0.92641  Biso   1.000  P
  O34      1.0000 0.57960  0.94237  0.87630  Biso   1.000  O
  O35      1.0000 0.66680  0.01669  0.07040  Biso   1.000  O
  H82      1.0000 0.62990  0.05660  0.07210  Biso   1.000  H
  O36      1.0000 0.68150  0.06267  0.84130  Biso   1.000  O
  C37      1.0000 0.78600  0.93460  0.93240  Biso   1.000  C
  H83      1.0000 0.79740  0.92090  0.84260  Biso   1.000  H
  H84      1.0000 0.77460  0.88550  0.97840  Biso   1.000  H
  C38      1.0000 0.88340  0.97290  0.99850  Biso   1.000  C
  H85      1.0000 0.87160  0.98710  0.08790  Biso   1.000  H
  H86      1.0000 0.89510  0.02170  0.95180  Biso   1.000  H
  C39      1.0000 0.97620  0.92610  0.00510  Biso   1.000  C
  H87      1.0000 0.96310  0.87660  0.04910  Biso   1.000  H
  H88      1.0000 0.98840  0.91300  0.91540  Biso   1.000  H
  C40      1.0000 0.92480  0.03860  0.92600  Biso   1.000  C
  H89      1.0000 0.93770  0.93270  0.01440  Biso   1.000  H
  H90      1.0000 0.86890  0.99260  0.08400  Biso   1.000  H
  H91      1.0000 0.93840  0.01960  0.83970  Biso   1.000  H
  H92      1.0000 0.87150  0.07970  0.91230  Biso   1.000  H
