data_image0
_cell_length_a       6.9473
_cell_length_b       21.9479
_cell_length_c       23.1867
_cell_angle_alpha    90
_cell_angle_beta     90
_cell_angle_gamma    90

_symmetry_space_group_name_H-M    "P 1"
_symmetry_int_tables_number       1

loop_
  _symmetry_equiv_pos_as_xyz
  'x, y, z'

loop_
  _atom_site_label
  _atom_site_occupancy
  _atom_site_fract_x
  _atom_site_fract_y
  _atom_site_fract_z
  _atom_site_thermal_displace_type
  _atom_site_B_iso_or_equiv
  _atom_site_type_symbol
  Nd1      1.0000 0.57770  0.23194  0.05004  Biso   1.000  Nd
  O1       1.0000 0.59180  0.30994  0.64948  Biso   1.000  O
  O2       1.0000 0.56660  0.21100  0.64111  Biso   1.000  O
  C1       1.0000 0.57890  0.25760  0.67230  Biso   1.000  C
  C2       1.0000 0.57690  0.25110  0.73730  Biso   1.000  C
  C3       1.0000 0.57350  0.19350  0.76080  Biso   1.000  C
  H1       1.0000 0.57150  0.15920  0.73730  Biso   1.000  H
  C4       1.0000 0.57320  0.18780  0.81980  Biso   1.000  C
  N1       1.0000 0.52550  0.12600  0.84440  Biso   1.000  N
  O3       1.0000 0.56190  0.11710  0.89480  Biso   1.000  O
  O4       1.0000 0.45660  0.08570  0.81390  Biso   1.000  O
  C5       1.0000 0.57600  0.23670  0.85700  Biso   1.000  C
  C6       1.0000 0.57910  0.29560  0.83210  Biso   1.000  C
  H2       1.0000 0.58050  0.33010  0.85530  Biso   1.000  H
  C7       1.0000 0.57990  0.30130  0.77190  Biso   1.000  C
  H3       1.0000 0.58260  0.33980  0.75530  Biso   1.000  H
  C8       1.0000 0.57430  0.23350  0.92071  Biso   1.000  C
  O5       1.0000 0.41550  0.22670  0.94669  Biso   1.000  O
  O6       1.0000 0.72570  0.24156  0.94754  Biso   1.000  O
  O7       1.0000 0.29380  0.35226  0.96260  Biso   1.000  O
  O8       1.0000 0.54690  0.33601  0.02047  Biso   1.000  O
  C9       1.0000 0.42930  0.36990  0.99340  Biso   1.000  C
  C10      1.0000 0.46370  0.43740  0.99790  Biso   1.000  C
  C11      1.0000 0.57070  0.46250  0.04170  Biso   1.000  C
  H4       1.0000 0.62100  0.43740  0.07070  Biso   1.000  H
  C12      1.0000 0.39340  0.47530  0.95590  Biso   1.000  C
  H5       1.0000 0.32130  0.45930  0.92570  Biso   1.000  H
  N2       1.0000 0.63020  0.12620  0.84320  Biso   1.000  N
  O9       1.0000 0.65520  0.12070  0.89510  Biso   1.000  O
  O10      1.0000 0.63110  0.08230  0.81020  Biso   1.000  O
  N3       1.0000 0.62000  0.42950  0.09910  Biso   1.000  N
  O11      1.0000 0.50100  0.41940  0.13330  Biso   1.000  O
  O12      1.0000 0.78300  0.41890  0.10350  Biso   1.000  O
  Nd2      1.0000 0.92230  0.76806  0.55004  Biso   1.000  Nd
  O13      1.0000 0.90820  0.69006  0.14948  Biso   1.000  O
  O14      1.0000 0.93340  0.78900  0.14111  Biso   1.000  O
  C13      1.0000 0.92110  0.74240  0.17230  Biso   1.000  C
  C14      1.0000 0.92310  0.74890  0.23730  Biso   1.000  C
  C15      1.0000 0.92650  0.80650  0.26080  Biso   1.000  C
  H6       1.0000 0.92850  0.84080  0.23730  Biso   1.000  H
  C16      1.0000 0.92680  0.81220  0.31980  Biso   1.000  C
  N4       1.0000 0.97450  0.87400  0.34440  Biso   1.000  N
  O15      1.0000 0.93810  0.88290  0.39480  Biso   1.000  O
  O16      1.0000 0.04340  0.91430  0.31390  Biso   1.000  O
  C17      1.0000 0.92400  0.76330  0.35700  Biso   1.000  C
  C18      1.0000 0.92090  0.70440  0.33210  Biso   1.000  C
  H7       1.0000 0.91950  0.66990  0.35530  Biso   1.000  H
  C19      1.0000 0.92010  0.69870  0.27190  Biso   1.000  C
  H8       1.0000 0.91740  0.66020  0.25530  Biso   1.000  H
  C20      1.0000 0.92570  0.76650  0.42071  Biso   1.000  C
  O17      1.0000 0.08450  0.77330  0.44669  Biso   1.000  O
  O18      1.0000 0.77430  0.75844  0.44754  Biso   1.000  O
  O19      1.0000 0.20620  0.64774  0.46260  Biso   1.000  O
  O20      1.0000 0.95310  0.66399  0.52047  Biso   1.000  O
  C21      1.0000 0.07070  0.63010  0.49340  Biso   1.000  C
  C22      1.0000 0.03630  0.56260  0.49790  Biso   1.000  C
  C23      1.0000 0.92930  0.53750  0.54170  Biso   1.000  C
  H9       1.0000 0.87900  0.56260  0.57070  Biso   1.000  H
  C24      1.0000 0.10660  0.52470  0.45590  Biso   1.000  C
  H10      1.0000 0.17870  0.54070  0.42570  Biso   1.000  H
  N5       1.0000 0.86980  0.87380  0.34320  Biso   1.000  N
  O21      1.0000 0.84480  0.87930  0.39510  Biso   1.000  O
  O22      1.0000 0.86890  0.91770  0.31020  Biso   1.000  O
  N6       1.0000 0.88000  0.57050  0.59910  Biso   1.000  N
  O23      1.0000 0.99900  0.58060  0.63330  Biso   1.000  O
  O24      1.0000 0.71700  0.58110  0.60350  Biso   1.000  O
  Nd3      1.0000 0.42230  0.73194  0.44996  Biso   1.000  Nd
  O25      1.0000 0.40820  0.80994  0.85052  Biso   1.000  O
  O26      1.0000 0.43340  0.71100  0.85889  Biso   1.000  O
  C25      1.0000 0.42110  0.75760  0.82770  Biso   1.000  C
  C26      1.0000 0.42310  0.75110  0.76270  Biso   1.000  C
  C27      1.0000 0.42650  0.69350  0.73920  Biso   1.000  C
  H11      1.0000 0.42850  0.65920  0.76270  Biso   1.000  H
  C28      1.0000 0.42680  0.68780  0.68020  Biso   1.000  C
  N7       1.0000 0.47450  0.62600  0.65560  Biso   1.000  N
  O27      1.0000 0.43810  0.61710  0.60520  Biso   1.000  O
  O28      1.0000 0.54340  0.58570  0.68610  Biso   1.000  O
  C29      1.0000 0.42400  0.73670  0.64300  Biso   1.000  C
  C30      1.0000 0.42090  0.79560  0.66790  Biso   1.000  C
  H12      1.0000 0.41950  0.83010  0.64470  Biso   1.000  H
  C31      1.0000 0.42010  0.80130  0.72810  Biso   1.000  C
  H13      1.0000 0.41740  0.83980  0.74470  Biso   1.000  H
  C32      1.0000 0.42570  0.73350  0.57929  Biso   1.000  C
  O29      1.0000 0.58450  0.72670  0.55331  Biso   1.000  O
  O30      1.0000 0.27430  0.74156  0.55246  Biso   1.000  O
  O31      1.0000 0.70620  0.85226  0.53740  Biso   1.000  O
  O32      1.0000 0.45310  0.83601  0.47953  Biso   1.000  O
  C33      1.0000 0.57070  0.86990  0.50660  Biso   1.000  C
  C34      1.0000 0.53630  0.93740  0.50210  Biso   1.000  C
  C35      1.0000 0.42930  0.96250  0.45830  Biso   1.000  C
  H14      1.0000 0.37900  0.93740  0.42930  Biso   1.000  H
  C36      1.0000 0.60660  0.97530  0.54410  Biso   1.000  C
  H15      1.0000 0.67870  0.95930  0.57430  Biso   1.000  H
  N8       1.0000 0.36980  0.62620  0.65680  Biso   1.000  N
  O33      1.0000 0.34480  0.62070  0.60490  Biso   1.000  O
  O34      1.0000 0.36890  0.58230  0.68980  Biso   1.000  O
  N9       1.0000 0.38000  0.92950  0.40090  Biso   1.000  N
  O35      1.0000 0.49900  0.91940  0.36670  Biso   1.000  O
  O36      1.0000 0.21700  0.91890  0.39650  Biso   1.000  O
  Nd4      1.0000 0.07770  0.26806  0.94996  Biso   1.000  Nd
  O37      1.0000 0.09180  0.19006  0.35052  Biso   1.000  O
  O38      1.0000 0.06660  0.28900  0.35889  Biso   1.000  O
  C37      1.0000 0.07890  0.24240  0.32770  Biso   1.000  C
  C38      1.0000 0.07690  0.24890  0.26270  Biso   1.000  C
  C39      1.0000 0.07350  0.30650  0.23920  Biso   1.000  C
  H16      1.0000 0.07150  0.34080  0.26270  Biso   1.000  H
  C40      1.0000 0.07320  0.31220  0.18020  Biso   1.000  C
  N10      1.0000 0.02550  0.37400  0.15560  Biso   1.000  N
  O39      1.0000 0.06190  0.38290  0.10520  Biso   1.000  O
  O40      1.0000 0.95660  0.41430  0.18610  Biso   1.000  O
  C41      1.0000 0.07600  0.26330  0.14300  Biso   1.000  C
  C42      1.0000 0.07910  0.20440  0.16790  Biso   1.000  C
  H17      1.0000 0.08050  0.16990  0.14470  Biso   1.000  H
  C43      1.0000 0.07990  0.19870  0.22810  Biso   1.000  C
  H18      1.0000 0.08260  0.16020  0.24470  Biso   1.000  H
  C44      1.0000 0.07430  0.26650  0.07929  Biso   1.000  C
  O41      1.0000 0.91550  0.27330  0.05331  Biso   1.000  O
  O42      1.0000 0.22570  0.25844  0.05246  Biso   1.000  O
  O43      1.0000 0.79380  0.14774  0.03740  Biso   1.000  O
  O44      1.0000 0.04690  0.16399  0.97953  Biso   1.000  O
  C45      1.0000 0.92930  0.13010  0.00660  Biso   1.000  C
  C46      1.0000 0.96370  0.06260  0.00210  Biso   1.000  C
  C47      1.0000 0.07070  0.03750  0.95830  Biso   1.000  C
  H19      1.0000 0.12100  0.06260  0.92930  Biso   1.000  H
  C48      1.0000 0.89340  0.02470  0.04410  Biso   1.000  C
  H20      1.0000 0.82130  0.04070  0.07430  Biso   1.000  H
  N11      1.0000 0.13020  0.37380  0.15680  Biso   1.000  N
  O45      1.0000 0.15520  0.37930  0.10490  Biso   1.000  O
  O46      1.0000 0.13110  0.41770  0.18980  Biso   1.000  O
  N12      1.0000 0.12000  0.07050  0.90090  Biso   1.000  N
  O47      1.0000 0.00100  0.08060  0.86670  Biso   1.000  O
  O48      1.0000 0.28300  0.08110  0.89650  Biso   1.000  O
  Nd5      1.0000 0.42230  0.76806  0.94996  Biso   1.000  Nd
  O49      1.0000 0.40820  0.69006  0.35052  Biso   1.000  O
  O50      1.0000 0.43340  0.78900  0.35889  Biso   1.000  O
  C49      1.0000 0.42110  0.74240  0.32770  Biso   1.000  C
  C50      1.0000 0.42310  0.74890  0.26270  Biso   1.000  C
  C51      1.0000 0.42650  0.80650  0.23920  Biso   1.000  C
  H21      1.0000 0.42850  0.84080  0.26270  Biso   1.000  H
  C52      1.0000 0.42680  0.81220  0.18020  Biso   1.000  C
  N13      1.0000 0.47450  0.87400  0.15560  Biso   1.000  N
  O51      1.0000 0.43810  0.88290  0.10520  Biso   1.000  O
  O52      1.0000 0.54340  0.91430  0.18610  Biso   1.000  O
  C53      1.0000 0.42400  0.76330  0.14300  Biso   1.000  C
  C54      1.0000 0.42090  0.70440  0.16790  Biso   1.000  C
  H22      1.0000 0.41950  0.66990  0.14470  Biso   1.000  H
  C55      1.0000 0.42010  0.69870  0.22810  Biso   1.000  C
  H23      1.0000 0.41740  0.66020  0.24470  Biso   1.000  H
  C56      1.0000 0.42570  0.76650  0.07929  Biso   1.000  C
  O53      1.0000 0.58450  0.77330  0.05331  Biso   1.000  O
  O54      1.0000 0.27430  0.75844  0.05246  Biso   1.000  O
  O55      1.0000 0.70620  0.64774  0.03740  Biso   1.000  O
  O56      1.0000 0.45310  0.66399  0.97953  Biso   1.000  O
  C57      1.0000 0.57070  0.63010  0.00660  Biso   1.000  C
  C58      1.0000 0.53630  0.56260  0.00210  Biso   1.000  C
  C59      1.0000 0.42930  0.53750  0.95830  Biso   1.000  C
  H24      1.0000 0.37900  0.56260  0.92930  Biso   1.000  H
  C60      1.0000 0.60660  0.52470  0.04410  Biso   1.000  C
  H25      1.0000 0.67870  0.54070  0.07430  Biso   1.000  H
  N14      1.0000 0.36980  0.87380  0.15680  Biso   1.000  N
  O57      1.0000 0.34480  0.87930  0.10490  Biso   1.000  O
  O58      1.0000 0.36890  0.91770  0.18980  Biso   1.000  O
  N15      1.0000 0.38000  0.57050  0.90090  Biso   1.000  N
  O59      1.0000 0.49900  0.58060  0.86670  Biso   1.000  O
  O60      1.0000 0.21700  0.58110  0.89650  Biso   1.000  O
  Nd6      1.0000 0.07770  0.23194  0.44996  Biso   1.000  Nd
  O61      1.0000 0.09180  0.30994  0.85052  Biso   1.000  O
  O62      1.0000 0.06660  0.21100  0.85889  Biso   1.000  O
  C61      1.0000 0.07890  0.25760  0.82770  Biso   1.000  C
  C62      1.0000 0.07690  0.25110  0.76270  Biso   1.000  C
  C63      1.0000 0.07350  0.19350  0.73920  Biso   1.000  C
  H26      1.0000 0.07150  0.15920  0.76270  Biso   1.000  H
  C64      1.0000 0.07320  0.18780  0.68020  Biso   1.000  C
  N16      1.0000 0.02550  0.12600  0.65560  Biso   1.000  N
  O63      1.0000 0.06190  0.11710  0.60520  Biso   1.000  O
  O64      1.0000 0.95660  0.08570  0.68610  Biso   1.000  O
  C65      1.0000 0.07600  0.23670  0.64300  Biso   1.000  C
  C66      1.0000 0.07910  0.29560  0.66790  Biso   1.000  C
  H27      1.0000 0.08050  0.33010  0.64470  Biso   1.000  H
  C67      1.0000 0.07990  0.30130  0.72810  Biso   1.000  C
  H28      1.0000 0.08260  0.33980  0.74470  Biso   1.000  H
  C68      1.0000 0.07430  0.23350  0.57929  Biso   1.000  C
  O65      1.0000 0.91550  0.22670  0.55331  Biso   1.000  O
  O66      1.0000 0.22570  0.24156  0.55246  Biso   1.000  O
  O67      1.0000 0.79380  0.35226  0.53740  Biso   1.000  O
  O68      1.0000 0.04690  0.33601  0.47953  Biso   1.000  O
  C69      1.0000 0.92930  0.36990  0.50660  Biso   1.000  C
  C70      1.0000 0.96370  0.43740  0.50210  Biso   1.000  C
  C71      1.0000 0.07070  0.46250  0.45830  Biso   1.000  C
  H29      1.0000 0.12100  0.43740  0.42930  Biso   1.000  H
  C72      1.0000 0.89340  0.47530  0.54410  Biso   1.000  C
  H30      1.0000 0.82130  0.45930  0.57430  Biso   1.000  H
  N17      1.0000 0.13020  0.12620  0.65680  Biso   1.000  N
  O69      1.0000 0.15520  0.12070  0.60490  Biso   1.000  O
  O70      1.0000 0.13110  0.08230  0.68980  Biso   1.000  O
  N18      1.0000 0.12000  0.42950  0.40090  Biso   1.000  N
  O71      1.0000 0.00100  0.41940  0.36670  Biso   1.000  O
  O72      1.0000 0.28300  0.41890  0.39650  Biso   1.000  O
  Nd7      1.0000 0.57770  0.26806  0.55004  Biso   1.000  Nd
  O73      1.0000 0.59180  0.19006  0.14948  Biso   1.000  O
  O74      1.0000 0.56660  0.28900  0.14111  Biso   1.000  O
  C73      1.0000 0.57890  0.24240  0.17230  Biso   1.000  C
  C74      1.0000 0.57690  0.24890  0.23730  Biso   1.000  C
  C75      1.0000 0.57350  0.30650  0.26080  Biso   1.000  C
  H31      1.0000 0.57150  0.34080  0.23730  Biso   1.000  H
  C76      1.0000 0.57320  0.31220  0.31980  Biso   1.000  C
  N19      1.0000 0.52550  0.37400  0.34440  Biso   1.000  N
  O75      1.0000 0.56190  0.38290  0.39480  Biso   1.000  O
  O76      1.0000 0.45660  0.41430  0.31390  Biso   1.000  O
  C77      1.0000 0.57600  0.26330  0.35700  Biso   1.000  C
  C78      1.0000 0.57910  0.20440  0.33210  Biso   1.000  C
  H32      1.0000 0.58050  0.16990  0.35530  Biso   1.000  H
  C79      1.0000 0.57990  0.19870  0.27190  Biso   1.000  C
  H33      1.0000 0.58260  0.16020  0.25530  Biso   1.000  H
  C80      1.0000 0.57430  0.26650  0.42071  Biso   1.000  C
  O77      1.0000 0.41550  0.27330  0.44669  Biso   1.000  O
  O78      1.0000 0.72570  0.25844  0.44754  Biso   1.000  O
  O79      1.0000 0.29380  0.14774  0.46260  Biso   1.000  O
  O80      1.0000 0.54690  0.16399  0.52047  Biso   1.000  O
  C81      1.0000 0.42930  0.13010  0.49340  Biso   1.000  C
  C82      1.0000 0.46370  0.06260  0.49790  Biso   1.000  C
  C83      1.0000 0.57070  0.03750  0.54170  Biso   1.000  C
  H34      1.0000 0.62100  0.06260  0.57070  Biso   1.000  H
  C84      1.0000 0.39340  0.02470  0.45590  Biso   1.000  C
  H35      1.0000 0.32130  0.04070  0.42570  Biso   1.000  H
  N20      1.0000 0.63020  0.37380  0.34320  Biso   1.000  N
  O81      1.0000 0.65520  0.37930  0.39510  Biso   1.000  O
  O82      1.0000 0.63110  0.41770  0.31020  Biso   1.000  O
  N21      1.0000 0.62000  0.07050  0.59910  Biso   1.000  N
  O83      1.0000 0.50100  0.08060  0.63330  Biso   1.000  O
  O84      1.0000 0.78300  0.08110  0.60350  Biso   1.000  O
  Nd8      1.0000 0.92230  0.73194  0.05004  Biso   1.000  Nd
  O85      1.0000 0.90820  0.80994  0.64948  Biso   1.000  O
  O86      1.0000 0.93340  0.71100  0.64111  Biso   1.000  O
  C85      1.0000 0.92110  0.75760  0.67230  Biso   1.000  C
  C86      1.0000 0.92310  0.75110  0.73730  Biso   1.000  C
  C87      1.0000 0.92650  0.69350  0.76080  Biso   1.000  C
  H36      1.0000 0.92850  0.65920  0.73730  Biso   1.000  H
  C88      1.0000 0.92680  0.68780  0.81980  Biso   1.000  C
  N22      1.0000 0.97450  0.62600  0.84440  Biso   1.000  N
  O87      1.0000 0.93810  0.61710  0.89480  Biso   1.000  O
  O88      1.0000 0.04340  0.58570  0.81390  Biso   1.000  O
  C89      1.0000 0.92400  0.73670  0.85700  Biso   1.000  C
  C90      1.0000 0.92090  0.79560  0.83210  Biso   1.000  C
  H37      1.0000 0.91950  0.83010  0.85530  Biso   1.000  H
  C91      1.0000 0.92010  0.80130  0.77190  Biso   1.000  C
  H38      1.0000 0.91740  0.83980  0.75530  Biso   1.000  H
  C92      1.0000 0.92570  0.73350  0.92071  Biso   1.000  C
  O89      1.0000 0.08450  0.72670  0.94669  Biso   1.000  O
  O90      1.0000 0.77430  0.74156  0.94754  Biso   1.000  O
  O91      1.0000 0.20620  0.85226  0.96260  Biso   1.000  O
  O92      1.0000 0.95310  0.83601  0.02047  Biso   1.000  O
  C93      1.0000 0.07070  0.86990  0.99340  Biso   1.000  C
  C94      1.0000 0.03630  0.93740  0.99790  Biso   1.000  C
  C95      1.0000 0.92930  0.96250  0.04170  Biso   1.000  C
  H39      1.0000 0.87900  0.93740  0.07070  Biso   1.000  H
  C96      1.0000 0.10660  0.97530  0.95590  Biso   1.000  C
  H40      1.0000 0.17870  0.95930  0.92570  Biso   1.000  H
  N23      1.0000 0.86980  0.62620  0.84320  Biso   1.000  N
  O93      1.0000 0.84480  0.62070  0.89510  Biso   1.000  O
  O94      1.0000 0.86890  0.58230  0.81020  Biso   1.000  O
  N24      1.0000 0.88000  0.92950  0.09910  Biso   1.000  N
  O95      1.0000 0.99900  0.91940  0.13330  Biso   1.000  O
  O96      1.0000 0.71700  0.91890  0.10350  Biso   1.000  O
