data_image0
_cell_length_a       6.9737
_cell_length_b       21.963
_cell_length_c       23.279
_cell_angle_alpha    90
_cell_angle_beta     90
_cell_angle_gamma    90

_symmetry_space_group_name_H-M    "P 1"
_symmetry_int_tables_number       1

loop_
  _symmetry_equiv_pos_as_xyz
  'x, y, z'

loop_
  _atom_site_label
  _atom_site_occupancy
  _atom_site_fract_x
  _atom_site_fract_y
  _atom_site_fract_z
  _atom_site_thermal_displace_type
  _atom_site_B_iso_or_equiv
  _atom_site_type_symbol
  Pr1      1.0000 0.57816  0.23208  0.05066  Biso   1.000  Pr
  O1       1.0000 0.59510  0.30910  0.65130  Biso   1.000  O
  O2       1.0000 0.56330  0.20980  0.64180  Biso   1.000  O
  C1       1.0000 0.57750  0.25660  0.67360  Biso   1.000  C
  C2       1.0000 0.57700  0.25030  0.73790  Biso   1.000  C
  C3       1.0000 0.56710  0.19180  0.76100  Biso   1.000  C
  H1       1.0000 0.55960  0.15760  0.73750  Biso   1.000  H
  C4       1.0000 0.56880  0.18670  0.82010  Biso   1.000  C
  N1       1.0000 0.51400  0.12640  0.84410  Biso   1.000  N
  O3       1.0000 0.55900  0.11660  0.89440  Biso   1.000  O
  O4       1.0000 0.43900  0.08610  0.81580  Biso   1.000  O
  C5       1.0000 0.57320  0.23610  0.85750  Biso   1.000  C
  C6       1.0000 0.58550  0.29450  0.83280  Biso   1.000  C
  H2       1.0000 0.59470  0.32910  0.85570  Biso   1.000  H
  C7       1.0000 0.58360  0.29890  0.77270  Biso   1.000  C
  H3       1.0000 0.58710  0.33740  0.75620  Biso   1.000  H
  C8       1.0000 0.57190  0.23200  0.92050  Biso   1.000  C
  O5       1.0000 0.41580  0.22540  0.94670  Biso   1.000  O
  O6       1.0000 0.72680  0.23980  0.94741  Biso   1.000  O
  O7       1.0000 0.29460  0.35230  0.96180  Biso   1.000  O
  O8       1.0000 0.54750  0.33570  0.01900  Biso   1.000  O
  C9       1.0000 0.43100  0.37000  0.99260  Biso   1.000  C
  C10      1.0000 0.46420  0.43800  0.99790  Biso   1.000  C
  C11      1.0000 0.57860  0.46170  0.03940  Biso   1.000  C
  H4       1.0000 0.63270  0.43580  0.06660  Biso   1.000  H
  C12      1.0000 0.38340  0.47630  0.95760  Biso   1.000  C
  H5       1.0000 0.30440  0.46090  0.92890  Biso   1.000  H
  N2       1.0000 0.61400  0.12530  0.84410  Biso   1.000  N
  O9       1.0000 0.64100  0.12010  0.89540  Biso   1.000  O
  O10      1.0000 0.61400  0.08030  0.81210  Biso   1.000  O
  Pr2      1.0000 0.92184  0.76792  0.55066  Biso   1.000  Pr
  O11      1.0000 0.90490  0.69090  0.15130  Biso   1.000  O
  O12      1.0000 0.93670  0.79020  0.14180  Biso   1.000  O
  C13      1.0000 0.92250  0.74340  0.17360  Biso   1.000  C
  C14      1.0000 0.92300  0.74970  0.23790  Biso   1.000  C
  C15      1.0000 0.93290  0.80820  0.26100  Biso   1.000  C
  H6       1.0000 0.94040  0.84240  0.23750  Biso   1.000  H
  C16      1.0000 0.93120  0.81330  0.32010  Biso   1.000  C
  N3       1.0000 0.98600  0.87360  0.34410  Biso   1.000  N
  O13      1.0000 0.94100  0.88340  0.39440  Biso   1.000  O
  O14      1.0000 0.06100  0.91390  0.31580  Biso   1.000  O
  C17      1.0000 0.92680  0.76390  0.35750  Biso   1.000  C
  C18      1.0000 0.91450  0.70550  0.33280  Biso   1.000  C
  H7       1.0000 0.90530  0.67090  0.35570  Biso   1.000  H
  C19      1.0000 0.91640  0.70110  0.27270  Biso   1.000  C
  H8       1.0000 0.91290  0.66260  0.25620  Biso   1.000  H
  C20      1.0000 0.92810  0.76800  0.42050  Biso   1.000  C
  O15      1.0000 0.08420  0.77460  0.44670  Biso   1.000  O
  O16      1.0000 0.77320  0.76020  0.44741  Biso   1.000  O
  O17      1.0000 0.20540  0.64770  0.46180  Biso   1.000  O
  O18      1.0000 0.95250  0.66430  0.51900  Biso   1.000  O
  C21      1.0000 0.06900  0.63000  0.49260  Biso   1.000  C
  C22      1.0000 0.03580  0.56200  0.49790  Biso   1.000  C
  C23      1.0000 0.92140  0.53830  0.53940  Biso   1.000  C
  H9       1.0000 0.86730  0.56420  0.56660  Biso   1.000  H
  C24      1.0000 0.11660  0.52370  0.45760  Biso   1.000  C
  H10      1.0000 0.19560  0.53910  0.42890  Biso   1.000  H
  N4       1.0000 0.88600  0.87470  0.34410  Biso   1.000  N
  O19      1.0000 0.85900  0.87990  0.39540  Biso   1.000  O
  O20      1.0000 0.88600  0.91970  0.31210  Biso   1.000  O
  Pr3      1.0000 0.42184  0.73208  0.44934  Biso   1.000  Pr
  O21      1.0000 0.40490  0.80910  0.84870  Biso   1.000  O
  O22      1.0000 0.43670  0.70980  0.85820  Biso   1.000  O
  C25      1.0000 0.42250  0.75660  0.82640  Biso   1.000  C
  C26      1.0000 0.42300  0.75030  0.76210  Biso   1.000  C
  C27      1.0000 0.43290  0.69180  0.73900  Biso   1.000  C
  H11      1.0000 0.44040  0.65760  0.76250  Biso   1.000  H
  C28      1.0000 0.43120  0.68670  0.67990  Biso   1.000  C
  N5       1.0000 0.48600  0.62640  0.65590  Biso   1.000  N
  O23      1.0000 0.44100  0.61660  0.60560  Biso   1.000  O
  O24      1.0000 0.56100  0.58610  0.68420  Biso   1.000  O
  C29      1.0000 0.42680  0.73610  0.64250  Biso   1.000  C
  C30      1.0000 0.41450  0.79450  0.66720  Biso   1.000  C
  H12      1.0000 0.40530  0.82910  0.64430  Biso   1.000  H
  C31      1.0000 0.41640  0.79890  0.72730  Biso   1.000  C
  H13      1.0000 0.41290  0.83740  0.74380  Biso   1.000  H
  C32      1.0000 0.42810  0.73200  0.57950  Biso   1.000  C
  O25      1.0000 0.58420  0.72540  0.55330  Biso   1.000  O
  O26      1.0000 0.27320  0.73980  0.55259  Biso   1.000  O
  O27      1.0000 0.70540  0.85230  0.53820  Biso   1.000  O
  O28      1.0000 0.45250  0.83570  0.48100  Biso   1.000  O
  C33      1.0000 0.56900  0.87000  0.50740  Biso   1.000  C
  C34      1.0000 0.53580  0.93800  0.50210  Biso   1.000  C
  C35      1.0000 0.42140  0.96170  0.46060  Biso   1.000  C
  H14      1.0000 0.36730  0.93580  0.43340  Biso   1.000  H
  C36      1.0000 0.61660  0.97630  0.54240  Biso   1.000  C
  H15      1.0000 0.69560  0.96090  0.57110  Biso   1.000  H
  N6       1.0000 0.38600  0.62530  0.65590  Biso   1.000  N
  O29      1.0000 0.35900  0.62010  0.60460  Biso   1.000  O
  O30      1.0000 0.38600  0.58030  0.68790  Biso   1.000  O
  Pr4      1.0000 0.07816  0.26792  0.94934  Biso   1.000  Pr
  O31      1.0000 0.09510  0.19090  0.34870  Biso   1.000  O
  O32      1.0000 0.06330  0.29020  0.35820  Biso   1.000  O
  C37      1.0000 0.07750  0.24340  0.32640  Biso   1.000  C
  C38      1.0000 0.07700  0.24970  0.26210  Biso   1.000  C
  C39      1.0000 0.06710  0.30820  0.23900  Biso   1.000  C
  H16      1.0000 0.05960  0.34240  0.26250  Biso   1.000  H
  C40      1.0000 0.06880  0.31330  0.17990  Biso   1.000  C
  N7       1.0000 0.01400  0.37360  0.15590  Biso   1.000  N
  O33      1.0000 0.05900  0.38340  0.10560  Biso   1.000  O
  O34      1.0000 0.93900  0.41390  0.18420  Biso   1.000  O
  C41      1.0000 0.07320  0.26390  0.14250  Biso   1.000  C
  C42      1.0000 0.08550  0.20550  0.16720  Biso   1.000  C
  H17      1.0000 0.09470  0.17090  0.14430  Biso   1.000  H
  C43      1.0000 0.08360  0.20110  0.22730  Biso   1.000  C
  H18      1.0000 0.08710  0.16260  0.24380  Biso   1.000  H
  C44      1.0000 0.07190  0.26800  0.07950  Biso   1.000  C
  O35      1.0000 0.91580  0.27460  0.05330  Biso   1.000  O
  O36      1.0000 0.22680  0.26020  0.05259  Biso   1.000  O
  O37      1.0000 0.79460  0.14770  0.03820  Biso   1.000  O
  O38      1.0000 0.04750  0.16430  0.98100  Biso   1.000  O
  C45      1.0000 0.93100  0.13000  0.00740  Biso   1.000  C
  C46      1.0000 0.96420  0.06200  0.00210  Biso   1.000  C
  C47      1.0000 0.07860  0.03830  0.96060  Biso   1.000  C
  H19      1.0000 0.13270  0.06420  0.93340  Biso   1.000  H
  C48      1.0000 0.88340  0.02370  0.04240  Biso   1.000  C
  H20      1.0000 0.80440  0.03910  0.07110  Biso   1.000  H
  N8       1.0000 0.11400  0.37470  0.15590  Biso   1.000  N
  O39      1.0000 0.14100  0.37990  0.10460  Biso   1.000  O
  O40      1.0000 0.11400  0.41970  0.18790  Biso   1.000  O
  Pr5      1.0000 0.42184  0.76792  0.94934  Biso   1.000  Pr
  O41      1.0000 0.40490  0.69090  0.34870  Biso   1.000  O
  O42      1.0000 0.43670  0.79020  0.35820  Biso   1.000  O
  C49      1.0000 0.42250  0.74340  0.32640  Biso   1.000  C
  C50      1.0000 0.42300  0.74970  0.26210  Biso   1.000  C
  C51      1.0000 0.43290  0.80820  0.23900  Biso   1.000  C
  H21      1.0000 0.44040  0.84240  0.26250  Biso   1.000  H
  C52      1.0000 0.43120  0.81330  0.17990  Biso   1.000  C
  N9       1.0000 0.48600  0.87360  0.15590  Biso   1.000  N
  O43      1.0000 0.44100  0.88340  0.10560  Biso   1.000  O
  O44      1.0000 0.56100  0.91390  0.18420  Biso   1.000  O
  C53      1.0000 0.42680  0.76390  0.14250  Biso   1.000  C
  C54      1.0000 0.41450  0.70550  0.16720  Biso   1.000  C
  H22      1.0000 0.40530  0.67090  0.14430  Biso   1.000  H
  C55      1.0000 0.41640  0.70110  0.22730  Biso   1.000  C
  H23      1.0000 0.41290  0.66260  0.24380  Biso   1.000  H
  C56      1.0000 0.42810  0.76800  0.07950  Biso   1.000  C
  O45      1.0000 0.58420  0.77460  0.05330  Biso   1.000  O
  O46      1.0000 0.27320  0.76020  0.05259  Biso   1.000  O
  O47      1.0000 0.70540  0.64770  0.03820  Biso   1.000  O
  O48      1.0000 0.45250  0.66430  0.98100  Biso   1.000  O
  C57      1.0000 0.56900  0.63000  0.00740  Biso   1.000  C
  C58      1.0000 0.53580  0.56200  0.00210  Biso   1.000  C
  C59      1.0000 0.42140  0.53830  0.96060  Biso   1.000  C
  H24      1.0000 0.36730  0.56420  0.93340  Biso   1.000  H
  C60      1.0000 0.61660  0.52370  0.04240  Biso   1.000  C
  H25      1.0000 0.69560  0.53910  0.07110  Biso   1.000  H
  N10      1.0000 0.38600  0.87470  0.15590  Biso   1.000  N
  O49      1.0000 0.35900  0.87990  0.10460  Biso   1.000  O
  O50      1.0000 0.38600  0.91970  0.18790  Biso   1.000  O
  Pr6      1.0000 0.07816  0.23208  0.44934  Biso   1.000  Pr
  O51      1.0000 0.09510  0.30910  0.84870  Biso   1.000  O
  O52      1.0000 0.06330  0.20980  0.85820  Biso   1.000  O
  C61      1.0000 0.07750  0.25660  0.82640  Biso   1.000  C
  C62      1.0000 0.07700  0.25030  0.76210  Biso   1.000  C
  C63      1.0000 0.06710  0.19180  0.73900  Biso   1.000  C
  H26      1.0000 0.05960  0.15760  0.76250  Biso   1.000  H
  C64      1.0000 0.06880  0.18670  0.67990  Biso   1.000  C
  N11      1.0000 0.01400  0.12640  0.65590  Biso   1.000  N
  O53      1.0000 0.05900  0.11660  0.60560  Biso   1.000  O
  O54      1.0000 0.93900  0.08610  0.68420  Biso   1.000  O
  C65      1.0000 0.07320  0.23610  0.64250  Biso   1.000  C
  C66      1.0000 0.08550  0.29450  0.66720  Biso   1.000  C
  H27      1.0000 0.09470  0.32910  0.64430  Biso   1.000  H
  C67      1.0000 0.08360  0.29890  0.72730  Biso   1.000  C
  H28      1.0000 0.08710  0.33740  0.74380  Biso   1.000  H
  C68      1.0000 0.07190  0.23200  0.57950  Biso   1.000  C
  O55      1.0000 0.91580  0.22540  0.55330  Biso   1.000  O
  O56      1.0000 0.22680  0.23980  0.55259  Biso   1.000  O
  O57      1.0000 0.79460  0.35230  0.53820  Biso   1.000  O
  O58      1.0000 0.04750  0.33570  0.48100  Biso   1.000  O
  C69      1.0000 0.93100  0.37000  0.50740  Biso   1.000  C
  C70      1.0000 0.96420  0.43800  0.50210  Biso   1.000  C
  C71      1.0000 0.07860  0.46170  0.46060  Biso   1.000  C
  H29      1.0000 0.13270  0.43580  0.43340  Biso   1.000  H
  C72      1.0000 0.88340  0.47630  0.54240  Biso   1.000  C
  H30      1.0000 0.80440  0.46090  0.57110  Biso   1.000  H
  N12      1.0000 0.11400  0.12530  0.65590  Biso   1.000  N
  O59      1.0000 0.14100  0.12010  0.60460  Biso   1.000  O
  O60      1.0000 0.11400  0.08030  0.68790  Biso   1.000  O
  Pr7      1.0000 0.57816  0.26792  0.55066  Biso   1.000  Pr
  O61      1.0000 0.59510  0.19090  0.15130  Biso   1.000  O
  O62      1.0000 0.56330  0.29020  0.14180  Biso   1.000  O
  C73      1.0000 0.57750  0.24340  0.17360  Biso   1.000  C
  C74      1.0000 0.57700  0.24970  0.23790  Biso   1.000  C
  C75      1.0000 0.56710  0.30820  0.26100  Biso   1.000  C
  H31      1.0000 0.55960  0.34240  0.23750  Biso   1.000  H
  C76      1.0000 0.56880  0.31330  0.32010  Biso   1.000  C
  N13      1.0000 0.51400  0.37360  0.34410  Biso   1.000  N
  O63      1.0000 0.55900  0.38340  0.39440  Biso   1.000  O
  O64      1.0000 0.43900  0.41390  0.31580  Biso   1.000  O
  C77      1.0000 0.57320  0.26390  0.35750  Biso   1.000  C
  C78      1.0000 0.58550  0.20550  0.33280  Biso   1.000  C
  H32      1.0000 0.59470  0.17090  0.35570  Biso   1.000  H
  C79      1.0000 0.58360  0.20110  0.27270  Biso   1.000  C
  H33      1.0000 0.58710  0.16260  0.25620  Biso   1.000  H
  C80      1.0000 0.57190  0.26800  0.42050  Biso   1.000  C
  O65      1.0000 0.41580  0.27460  0.44670  Biso   1.000  O
  O66      1.0000 0.72680  0.26020  0.44741  Biso   1.000  O
  O67      1.0000 0.29460  0.14770  0.46180  Biso   1.000  O
  O68      1.0000 0.54750  0.16430  0.51900  Biso   1.000  O
  C81      1.0000 0.43100  0.13000  0.49260  Biso   1.000  C
  C82      1.0000 0.46420  0.06200  0.49790  Biso   1.000  C
  C83      1.0000 0.57860  0.03830  0.53940  Biso   1.000  C
  H34      1.0000 0.63270  0.06420  0.56660  Biso   1.000  H
  C84      1.0000 0.38340  0.02370  0.45760  Biso   1.000  C
  H35      1.0000 0.30440  0.03910  0.42890  Biso   1.000  H
  N14      1.0000 0.61400  0.37470  0.34410  Biso   1.000  N
  O69      1.0000 0.64100  0.37990  0.39540  Biso   1.000  O
  O70      1.0000 0.61400  0.41970  0.31210  Biso   1.000  O
  Pr8      1.0000 0.92184  0.73208  0.05066  Biso   1.000  Pr
  O71      1.0000 0.90490  0.80910  0.65130  Biso   1.000  O
  O72      1.0000 0.93670  0.70980  0.64180  Biso   1.000  O
  C85      1.0000 0.92250  0.75660  0.67360  Biso   1.000  C
  C86      1.0000 0.92300  0.75030  0.73790  Biso   1.000  C
  C87      1.0000 0.93290  0.69180  0.76100  Biso   1.000  C
  H36      1.0000 0.94040  0.65760  0.73750  Biso   1.000  H
  C88      1.0000 0.93120  0.68670  0.82010  Biso   1.000  C
  N15      1.0000 0.98600  0.62640  0.84410  Biso   1.000  N
  O73      1.0000 0.94100  0.61660  0.89440  Biso   1.000  O
  O74      1.0000 0.06100  0.58610  0.81580  Biso   1.000  O
  C89      1.0000 0.92680  0.73610  0.85750  Biso   1.000  C
  C90      1.0000 0.91450  0.79450  0.83280  Biso   1.000  C
  H37      1.0000 0.90530  0.82910  0.85570  Biso   1.000  H
  C91      1.0000 0.91640  0.79890  0.77270  Biso   1.000  C
  H38      1.0000 0.91290  0.83740  0.75620  Biso   1.000  H
  C92      1.0000 0.92810  0.73200  0.92050  Biso   1.000  C
  O75      1.0000 0.08420  0.72540  0.94670  Biso   1.000  O
  O76      1.0000 0.77320  0.73980  0.94741  Biso   1.000  O
  O77      1.0000 0.20540  0.85230  0.96180  Biso   1.000  O
  O78      1.0000 0.95250  0.83570  0.01900  Biso   1.000  O
  C93      1.0000 0.06900  0.87000  0.99260  Biso   1.000  C
  C94      1.0000 0.03580  0.93800  0.99790  Biso   1.000  C
  C95      1.0000 0.92140  0.96170  0.03940  Biso   1.000  C
  H39      1.0000 0.86730  0.93580  0.06660  Biso   1.000  H
  C96      1.0000 0.11660  0.97630  0.95760  Biso   1.000  C
  H40      1.0000 0.19560  0.96090  0.92890  Biso   1.000  H
  N16      1.0000 0.88600  0.62530  0.84410  Biso   1.000  N
  O79      1.0000 0.85900  0.62010  0.89540  Biso   1.000  O
  O80      1.0000 0.88600  0.58030  0.81210  Biso   1.000  O
