data_image0
_cell_length_a       6.8391
_cell_length_b       21.7447
_cell_length_c       22.9299
_cell_angle_alpha    90
_cell_angle_beta     90
_cell_angle_gamma    90

_symmetry_space_group_name_H-M    "P 1"
_symmetry_int_tables_number       1

loop_
  _symmetry_equiv_pos_as_xyz
  'x, y, z'

loop_
  _atom_site_label
  _atom_site_occupancy
  _atom_site_fract_x
  _atom_site_fract_y
  _atom_site_fract_z
  _atom_site_thermal_displace_type
  _atom_site_B_iso_or_equiv
  _atom_site_type_symbol
  Gd1      1.0000 0.57145  0.23258  0.04897  Biso   1.000  Gd
  O1       1.0000 0.59390  0.30876  0.64714  Biso   1.000  O
  O2       1.0000 0.55760  0.20977  0.63863  Biso   1.000  O
  C1       1.0000 0.57440  0.25650  0.66996  Biso   1.000  C
  C2       1.0000 0.57100  0.25050  0.73489  Biso   1.000  C
  C3       1.0000 0.55890  0.19180  0.75939  Biso   1.000  C
  H1       1.0000 0.55180  0.15710  0.73580  Biso   1.000  H
  C4       1.0000 0.55760  0.18650  0.81923  Biso   1.000  C
  N1       1.0000 0.50160  0.12470  0.84410  Biso   1.000  N
  O3       1.0000 0.54410  0.11580  0.89480  Biso   1.000  O
  O4       1.0000 0.43560  0.08500  0.81420  Biso   1.000  O
  C5       1.0000 0.56840  0.23720  0.85553  Biso   1.000  C
  C6       1.0000 0.57970  0.29510  0.83090  Biso   1.000  C
  H2       1.0000 0.58580  0.32980  0.85450  Biso   1.000  H
  C7       1.0000 0.58170  0.30100  0.77022  Biso   1.000  C
  H3       1.0000 0.59050  0.34000  0.75360  Biso   1.000  H
  C8       1.0000 0.56610  0.23345  0.92080  Biso   1.000  C
  O5       1.0000 0.40740  0.22742  0.94708  Biso   1.000  O
  O6       1.0000 0.72450  0.24073  0.94778  Biso   1.000  O
  O7       1.0000 0.28050  0.35234  0.96363  Biso   1.000  O
  O8       1.0000 0.54270  0.33506  0.01910  Biso   1.000  O
  C9       1.0000 0.42310  0.36961  0.99319  Biso   1.000  C
  C10      1.0000 0.45940  0.43742  0.99730  Biso   1.000  C
  C11      1.0000 0.57960  0.46100  0.03990  Biso   1.000  C
  H4       1.0000 0.63400  0.43460  0.06790  Biso   1.000  H
  C12      1.0000 0.38170  0.47680  0.95730  Biso   1.000  C
  H5       1.0000 0.30200  0.46150  0.92780  Biso   1.000  H
  N2       1.0000 0.60500  0.12470  0.84290  Biso   1.000  N
  O9       1.0000 0.62420  0.11850  0.89500  Biso   1.000  O
  O10      1.0000 0.60360  0.08030  0.80930  Biso   1.000  O
  N3       1.0000 0.59500  0.42980  0.10230  Biso   1.000  N
  O11      1.0000 0.44300  0.41590  0.13540  Biso   1.000  O
  O12      1.0000 0.75700  0.42230  0.11600  Biso   1.000  O
  Gd2      1.0000 0.92855  0.76742  0.54897  Biso   1.000  Gd
  O13      1.0000 0.90610  0.69124  0.14714  Biso   1.000  O
  O14      1.0000 0.94240  0.79023  0.13863  Biso   1.000  O
  C13      1.0000 0.92560  0.74350  0.16996  Biso   1.000  C
  C14      1.0000 0.92900  0.74950  0.23489  Biso   1.000  C
  C15      1.0000 0.94110  0.80820  0.25939  Biso   1.000  C
  H6       1.0000 0.94820  0.84290  0.23580  Biso   1.000  H
  C16      1.0000 0.94240  0.81350  0.31923  Biso   1.000  C
  N4       1.0000 0.99840  0.87530  0.34410  Biso   1.000  N
  O15      1.0000 0.95590  0.88420  0.39480  Biso   1.000  O
  O16      1.0000 0.06440  0.91500  0.31420  Biso   1.000  O
  C17      1.0000 0.93160  0.76280  0.35553  Biso   1.000  C
  C18      1.0000 0.92030  0.70490  0.33090  Biso   1.000  C
  H7       1.0000 0.91420  0.67020  0.35450  Biso   1.000  H
  C19      1.0000 0.91830  0.69900  0.27022  Biso   1.000  C
  H8       1.0000 0.90950  0.66000  0.25360  Biso   1.000  H
  C20      1.0000 0.93390  0.76655  0.42080  Biso   1.000  C
  O17      1.0000 0.09260  0.77258  0.44708  Biso   1.000  O
  O18      1.0000 0.77550  0.75927  0.44778  Biso   1.000  O
  O19      1.0000 0.21950  0.64766  0.46363  Biso   1.000  O
  O20      1.0000 0.95730  0.66494  0.51910  Biso   1.000  O
  C21      1.0000 0.07690  0.63039  0.49319  Biso   1.000  C
  C22      1.0000 0.04060  0.56258  0.49730  Biso   1.000  C
  C23      1.0000 0.92040  0.53900  0.53990  Biso   1.000  C
  H9       1.0000 0.86600  0.56540  0.56790  Biso   1.000  H
  C24      1.0000 0.11830  0.52320  0.45730  Biso   1.000  C
  H10      1.0000 0.19800  0.53850  0.42780  Biso   1.000  H
  N5       1.0000 0.89500  0.87530  0.34290  Biso   1.000  N
  O21      1.0000 0.87580  0.88150  0.39500  Biso   1.000  O
  O22      1.0000 0.89640  0.91970  0.30930  Biso   1.000  O
  N6       1.0000 0.90500  0.57020  0.60230  Biso   1.000  N
  O23      1.0000 0.05700  0.58410  0.63540  Biso   1.000  O
  O24      1.0000 0.74300  0.57770  0.61600  Biso   1.000  O
  Gd3      1.0000 0.42855  0.73258  0.45103  Biso   1.000  Gd
  O25      1.0000 0.40610  0.80876  0.85286  Biso   1.000  O
  O26      1.0000 0.44240  0.70977  0.86137  Biso   1.000  O
  C25      1.0000 0.42560  0.75650  0.83004  Biso   1.000  C
  C26      1.0000 0.42900  0.75050  0.76511  Biso   1.000  C
  C27      1.0000 0.44110  0.69180  0.74061  Biso   1.000  C
  H11      1.0000 0.44820  0.65710  0.76420  Biso   1.000  H
  C28      1.0000 0.44240  0.68650  0.68077  Biso   1.000  C
  N7       1.0000 0.49840  0.62470  0.65590  Biso   1.000  N
  O27      1.0000 0.45590  0.61580  0.60520  Biso   1.000  O
  O28      1.0000 0.56440  0.58500  0.68580  Biso   1.000  O
  C29      1.0000 0.43160  0.73720  0.64447  Biso   1.000  C
  C30      1.0000 0.42030  0.79510  0.66910  Biso   1.000  C
  H12      1.0000 0.41420  0.82980  0.64550  Biso   1.000  H
  C31      1.0000 0.41830  0.80100  0.72978  Biso   1.000  C
  H13      1.0000 0.40950  0.84000  0.74640  Biso   1.000  H
  C32      1.0000 0.43390  0.73345  0.57920  Biso   1.000  C
  O29      1.0000 0.59260  0.72742  0.55292  Biso   1.000  O
  O30      1.0000 0.27550  0.74073  0.55222  Biso   1.000  O
  O31      1.0000 0.71950  0.85234  0.53637  Biso   1.000  O
  O32      1.0000 0.45730  0.83506  0.48090  Biso   1.000  O
  C33      1.0000 0.57690  0.86961  0.50681  Biso   1.000  C
  C34      1.0000 0.54060  0.93742  0.50270  Biso   1.000  C
  C35      1.0000 0.42040  0.96100  0.46010  Biso   1.000  C
  H14      1.0000 0.36600  0.93460  0.43210  Biso   1.000  H
  C36      1.0000 0.61830  0.97680  0.54270  Biso   1.000  C
  H15      1.0000 0.69800  0.96150  0.57220  Biso   1.000  H
  N8       1.0000 0.39500  0.62470  0.65710  Biso   1.000  N
  O33      1.0000 0.37580  0.61850  0.60500  Biso   1.000  O
  O34      1.0000 0.39640  0.58030  0.69070  Biso   1.000  O
  N9       1.0000 0.40500  0.92980  0.39770  Biso   1.000  N
  O35      1.0000 0.55700  0.91590  0.36460  Biso   1.000  O
  O36      1.0000 0.24300  0.92230  0.38400  Biso   1.000  O
  Gd4      1.0000 0.07145  0.26742  0.95103  Biso   1.000  Gd
  O37      1.0000 0.09390  0.19124  0.35286  Biso   1.000  O
  O38      1.0000 0.05760  0.29023  0.36137  Biso   1.000  O
  C37      1.0000 0.07440  0.24350  0.33004  Biso   1.000  C
  C38      1.0000 0.07100  0.24950  0.26511  Biso   1.000  C
  C39      1.0000 0.05890  0.30820  0.24061  Biso   1.000  C
  H16      1.0000 0.05180  0.34290  0.26420  Biso   1.000  H
  C40      1.0000 0.05760  0.31350  0.18077  Biso   1.000  C
  N10      1.0000 0.00160  0.37530  0.15590  Biso   1.000  N
  O39      1.0000 0.04410  0.38420  0.10520  Biso   1.000  O
  O40      1.0000 0.93560  0.41500  0.18580  Biso   1.000  O
  C41      1.0000 0.06840  0.26280  0.14447  Biso   1.000  C
  C42      1.0000 0.07970  0.20490  0.16910  Biso   1.000  C
  H17      1.0000 0.08580  0.17020  0.14550  Biso   1.000  H
  C43      1.0000 0.08170  0.19900  0.22978  Biso   1.000  C
  H18      1.0000 0.09050  0.16000  0.24640  Biso   1.000  H
  C44      1.0000 0.06610  0.26655  0.07920  Biso   1.000  C
  O41      1.0000 0.90740  0.27258  0.05292  Biso   1.000  O
  O42      1.0000 0.22450  0.25927  0.05222  Biso   1.000  O
  O43      1.0000 0.78050  0.14766  0.03637  Biso   1.000  O
  O44      1.0000 0.04270  0.16494  0.98090  Biso   1.000  O
  C45      1.0000 0.92310  0.13039  0.00681  Biso   1.000  C
  C46      1.0000 0.95940  0.06258  0.00270  Biso   1.000  C
  C47      1.0000 0.07960  0.03900  0.96010  Biso   1.000  C
  H19      1.0000 0.13400  0.06540  0.93210  Biso   1.000  H
  C48      1.0000 0.88170  0.02320  0.04270  Biso   1.000  C
  H20      1.0000 0.80200  0.03850  0.07220  Biso   1.000  H
  N11      1.0000 0.10500  0.37530  0.15710  Biso   1.000  N
  O45      1.0000 0.12420  0.38150  0.10500  Biso   1.000  O
  O46      1.0000 0.10360  0.41970  0.19070  Biso   1.000  O
  N12      1.0000 0.09500  0.07020  0.89770  Biso   1.000  N
  O47      1.0000 0.94300  0.08410  0.86460  Biso   1.000  O
  O48      1.0000 0.25700  0.07770  0.88400  Biso   1.000  O
  Gd5      1.0000 0.42855  0.76742  0.95103  Biso   1.000  Gd
  O49      1.0000 0.40610  0.69124  0.35286  Biso   1.000  O
  O50      1.0000 0.44240  0.79023  0.36137  Biso   1.000  O
  C49      1.0000 0.42560  0.74350  0.33004  Biso   1.000  C
  C50      1.0000 0.42900  0.74950  0.26511  Biso   1.000  C
  C51      1.0000 0.44110  0.80820  0.24061  Biso   1.000  C
  H21      1.0000 0.44820  0.84290  0.26420  Biso   1.000  H
  C52      1.0000 0.44240  0.81350  0.18077  Biso   1.000  C
  N13      1.0000 0.49840  0.87530  0.15590  Biso   1.000  N
  O51      1.0000 0.45590  0.88420  0.10520  Biso   1.000  O
  O52      1.0000 0.56440  0.91500  0.18580  Biso   1.000  O
  C53      1.0000 0.43160  0.76280  0.14447  Biso   1.000  C
  C54      1.0000 0.42030  0.70490  0.16910  Biso   1.000  C
  H22      1.0000 0.41420  0.67020  0.14550  Biso   1.000  H
  C55      1.0000 0.41830  0.69900  0.22978  Biso   1.000  C
  H23      1.0000 0.40950  0.66000  0.24640  Biso   1.000  H
  C56      1.0000 0.43390  0.76655  0.07920  Biso   1.000  C
  O53      1.0000 0.59260  0.77258  0.05292  Biso   1.000  O
  O54      1.0000 0.27550  0.75927  0.05222  Biso   1.000  O
  O55      1.0000 0.71950  0.64766  0.03637  Biso   1.000  O
  O56      1.0000 0.45730  0.66494  0.98090  Biso   1.000  O
  C57      1.0000 0.57690  0.63039  0.00681  Biso   1.000  C
  C58      1.0000 0.54060  0.56258  0.00270  Biso   1.000  C
  C59      1.0000 0.42040  0.53900  0.96010  Biso   1.000  C
  H24      1.0000 0.36600  0.56540  0.93210  Biso   1.000  H
  C60      1.0000 0.61830  0.52320  0.04270  Biso   1.000  C
  H25      1.0000 0.69800  0.53850  0.07220  Biso   1.000  H
  N14      1.0000 0.39500  0.87530  0.15710  Biso   1.000  N
  O57      1.0000 0.37580  0.88150  0.10500  Biso   1.000  O
  O58      1.0000 0.39640  0.91970  0.19070  Biso   1.000  O
  N15      1.0000 0.40500  0.57020  0.89770  Biso   1.000  N
  O59      1.0000 0.55700  0.58410  0.86460  Biso   1.000  O
  O60      1.0000 0.24300  0.57770  0.88400  Biso   1.000  O
  Gd6      1.0000 0.07145  0.23258  0.45103  Biso   1.000  Gd
  O61      1.0000 0.09390  0.30876  0.85286  Biso   1.000  O
  O62      1.0000 0.05760  0.20977  0.86137  Biso   1.000  O
  C61      1.0000 0.07440  0.25650  0.83004  Biso   1.000  C
  C62      1.0000 0.07100  0.25050  0.76511  Biso   1.000  C
  C63      1.0000 0.05890  0.19180  0.74061  Biso   1.000  C
  H26      1.0000 0.05180  0.15710  0.76420  Biso   1.000  H
  C64      1.0000 0.05760  0.18650  0.68077  Biso   1.000  C
  N16      1.0000 0.00160  0.12470  0.65590  Biso   1.000  N
  O63      1.0000 0.04410  0.11580  0.60520  Biso   1.000  O
  O64      1.0000 0.93560  0.08500  0.68580  Biso   1.000  O
  C65      1.0000 0.06840  0.23720  0.64447  Biso   1.000  C
  C66      1.0000 0.07970  0.29510  0.66910  Biso   1.000  C
  H27      1.0000 0.08580  0.32980  0.64550  Biso   1.000  H
  C67      1.0000 0.08170  0.30100  0.72978  Biso   1.000  C
  H28      1.0000 0.09050  0.34000  0.74640  Biso   1.000  H
  C68      1.0000 0.06610  0.23345  0.57920  Biso   1.000  C
  O65      1.0000 0.90740  0.22742  0.55292  Biso   1.000  O
  O66      1.0000 0.22450  0.24073  0.55222  Biso   1.000  O
  O67      1.0000 0.78050  0.35234  0.53637  Biso   1.000  O
  O68      1.0000 0.04270  0.33506  0.48090  Biso   1.000  O
  C69      1.0000 0.92310  0.36961  0.50681  Biso   1.000  C
  C70      1.0000 0.95940  0.43742  0.50270  Biso   1.000  C
  C71      1.0000 0.07960  0.46100  0.46010  Biso   1.000  C
  H29      1.0000 0.13400  0.43460  0.43210  Biso   1.000  H
  C72      1.0000 0.88170  0.47680  0.54270  Biso   1.000  C
  H30      1.0000 0.80200  0.46150  0.57220  Biso   1.000  H
  N17      1.0000 0.10500  0.12470  0.65710  Biso   1.000  N
  O69      1.0000 0.12420  0.11850  0.60500  Biso   1.000  O
  O70      1.0000 0.10360  0.08030  0.69070  Biso   1.000  O
  N18      1.0000 0.09500  0.42980  0.39770  Biso   1.000  N
  O71      1.0000 0.94300  0.41590  0.36460  Biso   1.000  O
  O72      1.0000 0.25700  0.42230  0.38400  Biso   1.000  O
  Gd7      1.0000 0.57145  0.26742  0.54897  Biso   1.000  Gd
  O73      1.0000 0.59390  0.19124  0.14714  Biso   1.000  O
  O74      1.0000 0.55760  0.29023  0.13863  Biso   1.000  O
  C73      1.0000 0.57440  0.24350  0.16996  Biso   1.000  C
  C74      1.0000 0.57100  0.24950  0.23489  Biso   1.000  C
  C75      1.0000 0.55890  0.30820  0.25939  Biso   1.000  C
  H31      1.0000 0.55180  0.34290  0.23580  Biso   1.000  H
  C76      1.0000 0.55760  0.31350  0.31923  Biso   1.000  C
  N19      1.0000 0.50160  0.37530  0.34410  Biso   1.000  N
  O75      1.0000 0.54410  0.38420  0.39480  Biso   1.000  O
  O76      1.0000 0.43560  0.41500  0.31420  Biso   1.000  O
  C77      1.0000 0.56840  0.26280  0.35553  Biso   1.000  C
  C78      1.0000 0.57970  0.20490  0.33090  Biso   1.000  C
  H32      1.0000 0.58580  0.17020  0.35450  Biso   1.000  H
  C79      1.0000 0.58170  0.19900  0.27022  Biso   1.000  C
  H33      1.0000 0.59050  0.16000  0.25360  Biso   1.000  H
  C80      1.0000 0.56610  0.26655  0.42080  Biso   1.000  C
  O77      1.0000 0.40740  0.27258  0.44708  Biso   1.000  O
  O78      1.0000 0.72450  0.25927  0.44778  Biso   1.000  O
  O79      1.0000 0.28050  0.14766  0.46363  Biso   1.000  O
  O80      1.0000 0.54270  0.16494  0.51910  Biso   1.000  O
  C81      1.0000 0.42310  0.13039  0.49319  Biso   1.000  C
  C82      1.0000 0.45940  0.06258  0.49730  Biso   1.000  C
  C83      1.0000 0.57960  0.03900  0.53990  Biso   1.000  C
  H34      1.0000 0.63400  0.06540  0.56790  Biso   1.000  H
  C84      1.0000 0.38170  0.02320  0.45730  Biso   1.000  C
  H35      1.0000 0.30200  0.03850  0.42780  Biso   1.000  H
  N20      1.0000 0.60500  0.37530  0.34290  Biso   1.000  N
  O81      1.0000 0.62420  0.38150  0.39500  Biso   1.000  O
  O82      1.0000 0.60360  0.41970  0.30930  Biso   1.000  O
  N21      1.0000 0.59500  0.07020  0.60230  Biso   1.000  N
  O83      1.0000 0.44300  0.08410  0.63540  Biso   1.000  O
  O84      1.0000 0.75700  0.07770  0.61600  Biso   1.000  O
  Gd8      1.0000 0.92855  0.73258  0.04897  Biso   1.000  Gd
  O85      1.0000 0.90610  0.80876  0.64714  Biso   1.000  O
  O86      1.0000 0.94240  0.70977  0.63863  Biso   1.000  O
  C85      1.0000 0.92560  0.75650  0.66996  Biso   1.000  C
  C86      1.0000 0.92900  0.75050  0.73489  Biso   1.000  C
  C87      1.0000 0.94110  0.69180  0.75939  Biso   1.000  C
  H36      1.0000 0.94820  0.65710  0.73580  Biso   1.000  H
  C88      1.0000 0.94240  0.68650  0.81923  Biso   1.000  C
  N22      1.0000 0.99840  0.62470  0.84410  Biso   1.000  N
  O87      1.0000 0.95590  0.61580  0.89480  Biso   1.000  O
  O88      1.0000 0.06440  0.58500  0.81420  Biso   1.000  O
  C89      1.0000 0.93160  0.73720  0.85553  Biso   1.000  C
  C90      1.0000 0.92030  0.79510  0.83090  Biso   1.000  C
  H37      1.0000 0.91420  0.82980  0.85450  Biso   1.000  H
  C91      1.0000 0.91830  0.80100  0.77022  Biso   1.000  C
  H38      1.0000 0.90950  0.84000  0.75360  Biso   1.000  H
  C92      1.0000 0.93390  0.73345  0.92080  Biso   1.000  C
  O89      1.0000 0.09260  0.72742  0.94708  Biso   1.000  O
  O90      1.0000 0.77550  0.74073  0.94778  Biso   1.000  O
  O91      1.0000 0.21950  0.85234  0.96363  Biso   1.000  O
  O92      1.0000 0.95730  0.83506  0.01910  Biso   1.000  O
  C93      1.0000 0.07690  0.86961  0.99319  Biso   1.000  C
  C94      1.0000 0.04060  0.93742  0.99730  Biso   1.000  C
  C95      1.0000 0.92040  0.96100  0.03990  Biso   1.000  C
  H39      1.0000 0.86600  0.93460  0.06790  Biso   1.000  H
  C96      1.0000 0.11830  0.97680  0.95730  Biso   1.000  C
  H40      1.0000 0.19800  0.96150  0.92780  Biso   1.000  H
  N23      1.0000 0.89500  0.62470  0.84290  Biso   1.000  N
  O93      1.0000 0.87580  0.61850  0.89500  Biso   1.000  O
  O94      1.0000 0.89640  0.58030  0.80930  Biso   1.000  O
  N24      1.0000 0.90500  0.92980  0.10230  Biso   1.000  N
  O95      1.0000 0.05700  0.91590  0.13540  Biso   1.000  O
  O96      1.0000 0.74300  0.92230  0.11600  Biso   1.000  O
