data_image0
_cell_length_a       6.8904
_cell_length_b       21.8211
_cell_length_c       23.0642
_cell_angle_alpha    90
_cell_angle_beta     90
_cell_angle_gamma    90

_symmetry_space_group_name_H-M    "P 1"
_symmetry_int_tables_number       1

loop_
  _symmetry_equiv_pos_as_xyz
  'x, y, z'

loop_
  _atom_site_label
  _atom_site_occupancy
  _atom_site_fract_x
  _atom_site_fract_y
  _atom_site_fract_z
  _atom_site_thermal_displace_type
  _atom_site_B_iso_or_equiv
  _atom_site_type_symbol
  Sm1      1.0000 0.57470  0.23229  0.04955  Biso   1.000  Sm
  O1       1.0000 0.59280  0.30930  0.64840  Biso   1.000  O
  O2       1.0000 0.56090  0.21050  0.63980  Biso   1.000  O
  C1       1.0000 0.57820  0.25720  0.67100  Biso   1.000  C
  C2       1.0000 0.57270  0.25180  0.73680  Biso   1.000  C
  C3       1.0000 0.56600  0.19190  0.76000  Biso   1.000  C
  H1       1.0000 0.56260  0.15750  0.73610  Biso   1.000  H
  C4       1.0000 0.56480  0.18670  0.81920  Biso   1.000  C
  N1       1.0000 0.51000  0.12470  0.84360  Biso   1.000  N
  O3       1.0000 0.55200  0.11600  0.89490  Biso   1.000  O
  O4       1.0000 0.44100  0.08580  0.81400  Biso   1.000  O
  C5       1.0000 0.57180  0.23690  0.85640  Biso   1.000  C
  C6       1.0000 0.57940  0.29550  0.83270  Biso   1.000  C
  H2       1.0000 0.58390  0.33000  0.85640  Biso   1.000  H
  C7       1.0000 0.58030  0.30080  0.77140  Biso   1.000  C
  H3       1.0000 0.58620  0.33960  0.75490  Biso   1.000  H
  C8       1.0000 0.57090  0.23280  0.92100  Biso   1.000  C
  O5       1.0000 0.41240  0.22650  0.94680  Biso   1.000  O
  O6       1.0000 0.72690  0.24110  0.94781  Biso   1.000  O
  O7       1.0000 0.28720  0.35220  0.96320  Biso   1.000  O
  O8       1.0000 0.54450  0.33550  0.01950  Biso   1.000  O
  C9       1.0000 0.42620  0.36980  0.99330  Biso   1.000  C
  C10      1.0000 0.46070  0.43750  0.99760  Biso   1.000  C
  C11      1.0000 0.57410  0.46180  0.04110  Biso   1.000  C
  H4       1.0000 0.62500  0.43630  0.06990  Biso   1.000  H
  C12      1.0000 0.38800  0.47600  0.95630  Biso   1.000  C
  H5       1.0000 0.31260  0.46040  0.92630  Biso   1.000  H
  N2       1.0000 0.61700  0.12510  0.84310  Biso   1.000  N
  O9       1.0000 0.64400  0.11970  0.89520  Biso   1.000  O
  O10      1.0000 0.61700  0.08090  0.80950  Biso   1.000  O
  N3       1.0000 0.60400  0.43050  0.10500  Biso   1.000  N
  O11      1.0000 0.46900  0.41660  0.13420  Biso   1.000  O
  O12      1.0000 0.77900  0.41790  0.10380  Biso   1.000  O
  Sm2      1.0000 0.92530  0.76771  0.54955  Biso   1.000  Sm
  O13      1.0000 0.90720  0.69070  0.14840  Biso   1.000  O
  O14      1.0000 0.93910  0.78950  0.13980  Biso   1.000  O
  C13      1.0000 0.92180  0.74280  0.17100  Biso   1.000  C
  C14      1.0000 0.92730  0.74820  0.23680  Biso   1.000  C
  C15      1.0000 0.93400  0.80810  0.26000  Biso   1.000  C
  H6       1.0000 0.93740  0.84250  0.23610  Biso   1.000  H
  C16      1.0000 0.93520  0.81330  0.31920  Biso   1.000  C
  N4       1.0000 0.99000  0.87530  0.34360  Biso   1.000  N
  O15      1.0000 0.94800  0.88400  0.39490  Biso   1.000  O
  O16      1.0000 0.05900  0.91420  0.31400  Biso   1.000  O
  C17      1.0000 0.92820  0.76310  0.35640  Biso   1.000  C
  C18      1.0000 0.92060  0.70450  0.33270  Biso   1.000  C
  H7       1.0000 0.91610  0.67000  0.35640  Biso   1.000  H
  C19      1.0000 0.91970  0.69920  0.27140  Biso   1.000  C
  H8       1.0000 0.91380  0.66040  0.25490  Biso   1.000  H
  C20      1.0000 0.92910  0.76720  0.42100  Biso   1.000  C
  O17      1.0000 0.08760  0.77350  0.44680  Biso   1.000  O
  O18      1.0000 0.77310  0.75890  0.44781  Biso   1.000  O
  O19      1.0000 0.21280  0.64780  0.46320  Biso   1.000  O
  O20      1.0000 0.95550  0.66450  0.51950  Biso   1.000  O
  C21      1.0000 0.07380  0.63020  0.49330  Biso   1.000  C
  C22      1.0000 0.03930  0.56250  0.49760  Biso   1.000  C
  C23      1.0000 0.92590  0.53820  0.54110  Biso   1.000  C
  H9       1.0000 0.87500  0.56370  0.56990  Biso   1.000  H
  C24      1.0000 0.11200  0.52400  0.45630  Biso   1.000  C
  H10      1.0000 0.18740  0.53960  0.42630  Biso   1.000  H
  N5       1.0000 0.88300  0.87490  0.34310  Biso   1.000  N
  O21      1.0000 0.85600  0.88030  0.39520  Biso   1.000  O
  O22      1.0000 0.88300  0.91910  0.30950  Biso   1.000  O
  N6       1.0000 0.89600  0.56950  0.60500  Biso   1.000  N
  O23      1.0000 0.03100  0.58340  0.63420  Biso   1.000  O
  O24      1.0000 0.72100  0.58210  0.60380  Biso   1.000  O
  Sm3      1.0000 0.42530  0.73229  0.45045  Biso   1.000  Sm
  O25      1.0000 0.40720  0.80930  0.85160  Biso   1.000  O
  O26      1.0000 0.43910  0.71050  0.86020  Biso   1.000  O
  C25      1.0000 0.42180  0.75720  0.82900  Biso   1.000  C
  C26      1.0000 0.42730  0.75180  0.76320  Biso   1.000  C
  C27      1.0000 0.43400  0.69190  0.74000  Biso   1.000  C
  H11      1.0000 0.43740  0.65750  0.76390  Biso   1.000  H
  C28      1.0000 0.43520  0.68670  0.68080  Biso   1.000  C
  N7       1.0000 0.49000  0.62470  0.65640  Biso   1.000  N
  O27      1.0000 0.44800  0.61600  0.60510  Biso   1.000  O
  O28      1.0000 0.55900  0.58580  0.68600  Biso   1.000  O
  C29      1.0000 0.42820  0.73690  0.64360  Biso   1.000  C
  C30      1.0000 0.42060  0.79550  0.66730  Biso   1.000  C
  H12      1.0000 0.41610  0.83000  0.64360  Biso   1.000  H
  C31      1.0000 0.41970  0.80080  0.72860  Biso   1.000  C
  H13      1.0000 0.41380  0.83960  0.74510  Biso   1.000  H
  C32      1.0000 0.42910  0.73280  0.57900  Biso   1.000  C
  O29      1.0000 0.58760  0.72650  0.55320  Biso   1.000  O
  O30      1.0000 0.27310  0.74110  0.55219  Biso   1.000  O
  O31      1.0000 0.71280  0.85220  0.53680  Biso   1.000  O
  O32      1.0000 0.45550  0.83550  0.48050  Biso   1.000  O
  C33      1.0000 0.57380  0.86980  0.50670  Biso   1.000  C
  C34      1.0000 0.53930  0.93750  0.50240  Biso   1.000  C
  C35      1.0000 0.42590  0.96180  0.45890  Biso   1.000  C
  H14      1.0000 0.37500  0.93630  0.43010  Biso   1.000  H
  C36      1.0000 0.61200  0.97600  0.54370  Biso   1.000  C
  H15      1.0000 0.68740  0.96040  0.57370  Biso   1.000  H
  N8       1.0000 0.38300  0.62510  0.65690  Biso   1.000  N
  O33      1.0000 0.35600  0.61970  0.60480  Biso   1.000  O
  O34      1.0000 0.38300  0.58090  0.69050  Biso   1.000  O
  N9       1.0000 0.39600  0.93050  0.39500  Biso   1.000  N
  O35      1.0000 0.53100  0.91660  0.36580  Biso   1.000  O
  O36      1.0000 0.22100  0.91790  0.39620  Biso   1.000  O
  Sm4      1.0000 0.07470  0.26771  0.95045  Biso   1.000  Sm
  O37      1.0000 0.09280  0.19070  0.35160  Biso   1.000  O
  O38      1.0000 0.06090  0.28950  0.36020  Biso   1.000  O
  C37      1.0000 0.07820  0.24280  0.32900  Biso   1.000  C
  C38      1.0000 0.07270  0.24820  0.26320  Biso   1.000  C
  C39      1.0000 0.06600  0.30810  0.24000  Biso   1.000  C
  H16      1.0000 0.06260  0.34250  0.26390  Biso   1.000  H
  C40      1.0000 0.06480  0.31330  0.18080  Biso   1.000  C
  N10      1.0000 0.01000  0.37530  0.15640  Biso   1.000  N
  O39      1.0000 0.05200  0.38400  0.10510  Biso   1.000  O
  O40      1.0000 0.94100  0.41420  0.18600  Biso   1.000  O
  C41      1.0000 0.07180  0.26310  0.14360  Biso   1.000  C
  C42      1.0000 0.07940  0.20450  0.16730  Biso   1.000  C
  H17      1.0000 0.08390  0.17000  0.14360  Biso   1.000  H
  C43      1.0000 0.08030  0.19920  0.22860  Biso   1.000  C
  H18      1.0000 0.08620  0.16040  0.24510  Biso   1.000  H
  C44      1.0000 0.07090  0.26720  0.07900  Biso   1.000  C
  O41      1.0000 0.91240  0.27350  0.05320  Biso   1.000  O
  O42      1.0000 0.22690  0.25890  0.05219  Biso   1.000  O
  O43      1.0000 0.78720  0.14780  0.03680  Biso   1.000  O
  O44      1.0000 0.04450  0.16450  0.98050  Biso   1.000  O
  C45      1.0000 0.92620  0.13020  0.00670  Biso   1.000  C
  C46      1.0000 0.96070  0.06250  0.00240  Biso   1.000  C
  C47      1.0000 0.07410  0.03820  0.95890  Biso   1.000  C
  H19      1.0000 0.12500  0.06370  0.93010  Biso   1.000  H
  C48      1.0000 0.88800  0.02400  0.04370  Biso   1.000  C
  H20      1.0000 0.81260  0.03960  0.07370  Biso   1.000  H
  N11      1.0000 0.11700  0.37490  0.15690  Biso   1.000  N
  O45      1.0000 0.14400  0.38030  0.10480  Biso   1.000  O
  O46      1.0000 0.11700  0.41910  0.19050  Biso   1.000  O
  N12      1.0000 0.10400  0.06950  0.89500  Biso   1.000  N
  O47      1.0000 0.96900  0.08340  0.86580  Biso   1.000  O
  O48      1.0000 0.27900  0.08210  0.89620  Biso   1.000  O
  Sm5      1.0000 0.42530  0.76771  0.95045  Biso   1.000  Sm
  O49      1.0000 0.40720  0.69070  0.35160  Biso   1.000  O
  O50      1.0000 0.43910  0.78950  0.36020  Biso   1.000  O
  C49      1.0000 0.42180  0.74280  0.32900  Biso   1.000  C
  C50      1.0000 0.42730  0.74820  0.26320  Biso   1.000  C
  C51      1.0000 0.43400  0.80810  0.24000  Biso   1.000  C
  H21      1.0000 0.43740  0.84250  0.26390  Biso   1.000  H
  C52      1.0000 0.43520  0.81330  0.18080  Biso   1.000  C
  N13      1.0000 0.49000  0.87530  0.15640  Biso   1.000  N
  O51      1.0000 0.44800  0.88400  0.10510  Biso   1.000  O
  O52      1.0000 0.55900  0.91420  0.18600  Biso   1.000  O
  C53      1.0000 0.42820  0.76310  0.14360  Biso   1.000  C
  C54      1.0000 0.42060  0.70450  0.16730  Biso   1.000  C
  H22      1.0000 0.41610  0.67000  0.14360  Biso   1.000  H
  C55      1.0000 0.41970  0.69920  0.22860  Biso   1.000  C
  H23      1.0000 0.41380  0.66040  0.24510  Biso   1.000  H
  C56      1.0000 0.42910  0.76720  0.07900  Biso   1.000  C
  O53      1.0000 0.58760  0.77350  0.05320  Biso   1.000  O
  O54      1.0000 0.27310  0.75890  0.05219  Biso   1.000  O
  O55      1.0000 0.71280  0.64780  0.03680  Biso   1.000  O
  O56      1.0000 0.45550  0.66450  0.98050  Biso   1.000  O
  C57      1.0000 0.57380  0.63020  0.00670  Biso   1.000  C
  C58      1.0000 0.53930  0.56250  0.00240  Biso   1.000  C
  C59      1.0000 0.42590  0.53820  0.95890  Biso   1.000  C
  H24      1.0000 0.37500  0.56370  0.93010  Biso   1.000  H
  C60      1.0000 0.61200  0.52400  0.04370  Biso   1.000  C
  H25      1.0000 0.68740  0.53960  0.07370  Biso   1.000  H
  N14      1.0000 0.38300  0.87490  0.15690  Biso   1.000  N
  O57      1.0000 0.35600  0.88030  0.10480  Biso   1.000  O
  O58      1.0000 0.38300  0.91910  0.19050  Biso   1.000  O
  N15      1.0000 0.39600  0.56950  0.89500  Biso   1.000  N
  O59      1.0000 0.53100  0.58340  0.86580  Biso   1.000  O
  O60      1.0000 0.22100  0.58210  0.89620  Biso   1.000  O
  Sm6      1.0000 0.07470  0.23229  0.45045  Biso   1.000  Sm
  O61      1.0000 0.09280  0.30930  0.85160  Biso   1.000  O
  O62      1.0000 0.06090  0.21050  0.86020  Biso   1.000  O
  C61      1.0000 0.07820  0.25720  0.82900  Biso   1.000  C
  C62      1.0000 0.07270  0.25180  0.76320  Biso   1.000  C
  C63      1.0000 0.06600  0.19190  0.74000  Biso   1.000  C
  H26      1.0000 0.06260  0.15750  0.76390  Biso   1.000  H
  C64      1.0000 0.06480  0.18670  0.68080  Biso   1.000  C
  N16      1.0000 0.01000  0.12470  0.65640  Biso   1.000  N
  O63      1.0000 0.05200  0.11600  0.60510  Biso   1.000  O
  O64      1.0000 0.94100  0.08580  0.68600  Biso   1.000  O
  C65      1.0000 0.07180  0.23690  0.64360  Biso   1.000  C
  C66      1.0000 0.07940  0.29550  0.66730  Biso   1.000  C
  H27      1.0000 0.08390  0.33000  0.64360  Biso   1.000  H
  C67      1.0000 0.08030  0.30080  0.72860  Biso   1.000  C
  H28      1.0000 0.08620  0.33960  0.74510  Biso   1.000  H
  C68      1.0000 0.07090  0.23280  0.57900  Biso   1.000  C
  O65      1.0000 0.91240  0.22650  0.55320  Biso   1.000  O
  O66      1.0000 0.22690  0.24110  0.55219  Biso   1.000  O
  O67      1.0000 0.78720  0.35220  0.53680  Biso   1.000  O
  O68      1.0000 0.04450  0.33550  0.48050  Biso   1.000  O
  C69      1.0000 0.92620  0.36980  0.50670  Biso   1.000  C
  C70      1.0000 0.96070  0.43750  0.50240  Biso   1.000  C
  C71      1.0000 0.07410  0.46180  0.45890  Biso   1.000  C
  H29      1.0000 0.12500  0.43630  0.43010  Biso   1.000  H
  C72      1.0000 0.88800  0.47600  0.54370  Biso   1.000  C
  H30      1.0000 0.81260  0.46040  0.57370  Biso   1.000  H
  N17      1.0000 0.11700  0.12510  0.65690  Biso   1.000  N
  O69      1.0000 0.14400  0.11970  0.60480  Biso   1.000  O
  O70      1.0000 0.11700  0.08090  0.69050  Biso   1.000  O
  N18      1.0000 0.10400  0.43050  0.39500  Biso   1.000  N
  O71      1.0000 0.96900  0.41660  0.36580  Biso   1.000  O
  O72      1.0000 0.27900  0.41790  0.39620  Biso   1.000  O
  Sm7      1.0000 0.57470  0.26771  0.54955  Biso   1.000  Sm
  O73      1.0000 0.59280  0.19070  0.14840  Biso   1.000  O
  O74      1.0000 0.56090  0.28950  0.13980  Biso   1.000  O
  C73      1.0000 0.57820  0.24280  0.17100  Biso   1.000  C
  C74      1.0000 0.57270  0.24820  0.23680  Biso   1.000  C
  C75      1.0000 0.56600  0.30810  0.26000  Biso   1.000  C
  H31      1.0000 0.56260  0.34250  0.23610  Biso   1.000  H
  C76      1.0000 0.56480  0.31330  0.31920  Biso   1.000  C
  N19      1.0000 0.51000  0.37530  0.34360  Biso   1.000  N
  O75      1.0000 0.55200  0.38400  0.39490  Biso   1.000  O
  O76      1.0000 0.44100  0.41420  0.31400  Biso   1.000  O
  C77      1.0000 0.57180  0.26310  0.35640  Biso   1.000  C
  C78      1.0000 0.57940  0.20450  0.33270  Biso   1.000  C
  H32      1.0000 0.58390  0.17000  0.35640  Biso   1.000  H
  C79      1.0000 0.58030  0.19920  0.27140  Biso   1.000  C
  H33      1.0000 0.58620  0.16040  0.25490  Biso   1.000  H
  C80      1.0000 0.57090  0.26720  0.42100  Biso   1.000  C
  O77      1.0000 0.41240  0.27350  0.44680  Biso   1.000  O
  O78      1.0000 0.72690  0.25890  0.44781  Biso   1.000  O
  O79      1.0000 0.28720  0.14780  0.46320  Biso   1.000  O
  O80      1.0000 0.54450  0.16450  0.51950  Biso   1.000  O
  C81      1.0000 0.42620  0.13020  0.49330  Biso   1.000  C
  C82      1.0000 0.46070  0.06250  0.49760  Biso   1.000  C
  C83      1.0000 0.57410  0.03820  0.54110  Biso   1.000  C
  H34      1.0000 0.62500  0.06370  0.56990  Biso   1.000  H
  C84      1.0000 0.38800  0.02400  0.45630  Biso   1.000  C
  H35      1.0000 0.31260  0.03960  0.42630  Biso   1.000  H
  N20      1.0000 0.61700  0.37490  0.34310  Biso   1.000  N
  O81      1.0000 0.64400  0.38030  0.39520  Biso   1.000  O
  O82      1.0000 0.61700  0.41910  0.30950  Biso   1.000  O
  N21      1.0000 0.60400  0.06950  0.60500  Biso   1.000  N
  O83      1.0000 0.46900  0.08340  0.63420  Biso   1.000  O
  O84      1.0000 0.77900  0.08210  0.60380  Biso   1.000  O
  Sm8      1.0000 0.92530  0.73229  0.04955  Biso   1.000  Sm
  O85      1.0000 0.90720  0.80930  0.64840  Biso   1.000  O
  O86      1.0000 0.93910  0.71050  0.63980  Biso   1.000  O
  C85      1.0000 0.92180  0.75720  0.67100  Biso   1.000  C
  C86      1.0000 0.92730  0.75180  0.73680  Biso   1.000  C
  C87      1.0000 0.93400  0.69190  0.76000  Biso   1.000  C
  H36      1.0000 0.93740  0.65750  0.73610  Biso   1.000  H
  C88      1.0000 0.93520  0.68670  0.81920  Biso   1.000  C
  N22      1.0000 0.99000  0.62470  0.84360  Biso   1.000  N
  O87      1.0000 0.94800  0.61600  0.89490  Biso   1.000  O
  O88      1.0000 0.05900  0.58580  0.81400  Biso   1.000  O
  C89      1.0000 0.92820  0.73690  0.85640  Biso   1.000  C
  C90      1.0000 0.92060  0.79550  0.83270  Biso   1.000  C
  H37      1.0000 0.91610  0.83000  0.85640  Biso   1.000  H
  C91      1.0000 0.91970  0.80080  0.77140  Biso   1.000  C
  H38      1.0000 0.91380  0.83960  0.75490  Biso   1.000  H
  C92      1.0000 0.92910  0.73280  0.92100  Biso   1.000  C
  O89      1.0000 0.08760  0.72650  0.94680  Biso   1.000  O
  O90      1.0000 0.77310  0.74110  0.94781  Biso   1.000  O
  O91      1.0000 0.21280  0.85220  0.96320  Biso   1.000  O
  O92      1.0000 0.95550  0.83550  0.01950  Biso   1.000  O
  C93      1.0000 0.07380  0.86980  0.99330  Biso   1.000  C
  C94      1.0000 0.03930  0.93750  0.99760  Biso   1.000  C
  C95      1.0000 0.92590  0.96180  0.04110  Biso   1.000  C
  H39      1.0000 0.87500  0.93630  0.06990  Biso   1.000  H
  C96      1.0000 0.11200  0.97600  0.95630  Biso   1.000  C
  H40      1.0000 0.18740  0.96040  0.92630  Biso   1.000  H
  N23      1.0000 0.88300  0.62510  0.84310  Biso   1.000  N
  O93      1.0000 0.85600  0.61970  0.89520  Biso   1.000  O
  O94      1.0000 0.88300  0.58090  0.80950  Biso   1.000  O
  N24      1.0000 0.89600  0.93050  0.10500  Biso   1.000  N
  O95      1.0000 0.03100  0.91660  0.13420  Biso   1.000  O
  O96      1.0000 0.72100  0.91790  0.10380  Biso   1.000  O
