data_image0
_cell_length_a       41.702
_cell_length_b       9.8988
_cell_length_c       18.444
_cell_angle_alpha    90
_cell_angle_beta     103.422
_cell_angle_gamma    90

_symmetry_space_group_name_H-M    "P 1"
_symmetry_int_tables_number       1

loop_
  _symmetry_equiv_pos_as_xyz
  'x, y, z'

loop_
  _atom_site_label
  _atom_site_occupancy
  _atom_site_fract_x
  _atom_site_fract_y
  _atom_site_fract_z
  _atom_site_thermal_displace_type
  _atom_site_B_iso_or_equiv
  _atom_site_type_symbol
  Cd1      1.0000 0.66146  0.32227  0.45308  Biso   1.000  Cd
  O1       1.0000 0.66430  0.16520  0.37040  Biso   1.000  O
  O2       1.0000 0.71597  0.11130  0.42080  Biso   1.000  O
  O3       1.0000 0.67050  0.81070  0.05250  Biso   1.000  O
  O4       1.0000 0.72510  0.78660  0.09350  Biso   1.000  O
  O5       1.0000 0.71262  0.41750  0.45390  Biso   1.000  O
  O6       1.0000 0.68049  0.53060  0.51230  Biso   1.000  O
  C1       1.0000 0.69100  0.11220  0.36950  Biso   1.000  C
  C2       1.0000 0.69350  0.03780  0.30050  Biso   1.000  C
  C3       1.0000 0.72230  0.98340  0.29160  Biso   1.000  C
  H1       1.0000 0.74170  0.99150  0.33040  Biso   1.000  H
  C4       1.0000 0.72370  0.91560  0.22570  Biso   1.000  C
  H2       1.0000 0.74400  0.87860  0.22030  Biso   1.000  H
  C5       1.0000 0.69630  0.90180  0.16920  Biso   1.000  C
  C6       1.0000 0.66670  0.95530  0.17830  Biso   1.000  C
  H3       1.0000 0.64740  0.94540  0.13980  Biso   1.000  H
  C7       1.0000 0.66530  0.02250  0.24250  Biso   1.000  C
  H4       1.0000 0.64490  0.05900  0.24780  Biso   1.000  H
  C8       1.0000 0.69770  0.82660  0.09960  Biso   1.000  C
  C9       1.0000 0.70680  0.52390  0.48870  Biso   1.000  C
  C10      1.0000 0.72910  0.64000  0.49490  Biso   1.000  C
  C11      1.0000 0.72600  0.74910  0.54140  Biso   1.000  C
  H5       1.0000 0.70980  0.74750  0.57020  Biso   1.000  H
  C12      1.0000 0.74670  0.85880  0.54480  Biso   1.000  C
  H6       1.0000 0.74430  0.93430  0.57490  Biso   1.000  H
  N1       1.0000 0.60740  0.38760  0.45930  Biso   1.000  N
  C13      1.0000 0.59310  0.49890  0.41840  Biso   1.000  C
  H7       1.0000 0.60330  0.53860  0.38260  Biso   1.000  H
  C14      1.0000 0.56380  0.55190  0.42980  Biso   1.000  C
  H8       1.0000 0.55400  0.62800  0.40180  Biso   1.000  H
  C15      1.0000 0.54880  0.49370  0.48220  Biso   1.000  C
  C16      1.0000 0.56320  0.38250  0.52310  Biso   1.000  C
  H9       1.0000 0.55300  0.34270  0.55890  Biso   1.000  H
  C17      1.0000 0.59250  0.32940  0.51170  Biso   1.000  C
  H10      1.0000 0.60230  0.25330  0.53970  Biso   1.000  H
  N2       1.0000 0.38870  0.68750  0.53340  Biso   1.000  N
  C18      1.0000 0.40690  0.57160  0.52870  Biso   1.000  C
  H11      1.0000 0.39660  0.48550  0.52520  Biso   1.000  H
  C19      1.0000 0.44020  0.58170  0.52920  Biso   1.000  C
  H12      1.0000 0.45270  0.50240  0.52600  Biso   1.000  H
  C20      1.0000 0.45530  0.70770  0.53430  Biso   1.000  C
  C21      1.0000 0.43710  0.82360  0.53900  Biso   1.000  C
  H13      1.0000 0.44740  0.90970  0.54250  Biso   1.000  H
  C22      1.0000 0.40380  0.81350  0.53850  Biso   1.000  C
  H14      1.0000 0.39130  0.89280  0.54170  Biso   1.000  H
  F1       1.0000 0.47330  0.92200  0.40900  Biso   1.000  F
  C23      1.0000 0.51540  0.55700  0.49370  Biso   1.000  C
  H15      1.0000 0.49690  0.49300  0.47340  Biso   1.000  H
  C24      1.0000 0.50480  0.70200  0.46510  Biso   1.000  C
  H16      1.0000 0.52450  0.76080  0.46610  Biso   1.000  H
  C25      1.0000 0.49130  0.72400  0.53480  Biso   1.000  C
  H17      1.0000 0.50020  0.80920  0.56060  Biso   1.000  H
  C26      1.0000 0.51380  0.59700  0.57040  Biso   1.000  C
  H18      1.0000 0.50050  0.53070  0.59180  Biso   1.000  H
  C27      1.0000 0.48190  0.70100  0.38920  Biso   1.000  C
  C28      1.0000 0.46720  0.82700  0.37000  Biso   1.000  C
  C29      1.0000 0.44240  0.84000  0.30500  Biso   1.000  C
  H19      1.0000 0.43240  0.92570  0.29230  Biso   1.000  H
  C30      1.0000 0.43230  0.72900  0.26020  Biso   1.000  C
  H20      1.0000 0.41530  0.73790  0.21610  Biso   1.000  H
  C31      1.0000 0.44690  0.60400  0.27940  Biso   1.000  C
  H21      1.0000 0.44000  0.52730  0.24850  Biso   1.000  H
  C32      1.0000 0.47170  0.59000  0.34390  Biso   1.000  C
  H22      1.0000 0.48170  0.50440  0.35710  Biso   1.000  H
  F2       1.0000 0.51960  0.57400  0.73110  Biso   1.000  F
  C33      1.0000 0.54180  0.65300  0.63110  Biso   1.000  C
  C34      1.0000 0.54320  0.63100  0.70620  Biso   1.000  C
  C35      1.0000 0.56840  0.68800  0.76020  Biso   1.000  C
  H23      1.0000 0.56930  0.67260  0.81150  Biso   1.000  H
  C36      1.0000 0.59230  0.76600  0.73910  Biso   1.000  C
  H24      1.0000 0.60960  0.80530  0.77600  Biso   1.000  H
  C37      1.0000 0.59090  0.78800  0.66400  Biso   1.000  C
  H25      1.0000 0.60720  0.84220  0.64950  Biso   1.000  H
  C38      1.0000 0.56570  0.73100  0.61000  Biso   1.000  C
  H26      1.0000 0.56470  0.74630  0.55860  Biso   1.000  H
  Cd2      1.0000 0.16146  0.82227  0.45308  Biso   1.000  Cd
  O7       1.0000 0.16430  0.66520  0.37040  Biso   1.000  O
  O8       1.0000 0.21597  0.61130  0.42080  Biso   1.000  O
  O9       1.0000 0.17050  0.31070  0.05250  Biso   1.000  O
  O10      1.0000 0.22510  0.28660  0.09350  Biso   1.000  O
  O11      1.0000 0.21262  0.91750  0.45390  Biso   1.000  O
  O12      1.0000 0.18049  0.03060  0.51230  Biso   1.000  O
  C39      1.0000 0.19100  0.61220  0.36950  Biso   1.000  C
  C40      1.0000 0.19350  0.53780  0.30050  Biso   1.000  C
  C41      1.0000 0.22230  0.48340  0.29160  Biso   1.000  C
  H27      1.0000 0.24170  0.49150  0.33040  Biso   1.000  H
  C42      1.0000 0.22370  0.41560  0.22570  Biso   1.000  C
  H28      1.0000 0.24400  0.37860  0.22030  Biso   1.000  H
  C43      1.0000 0.19630  0.40180  0.16920  Biso   1.000  C
  C44      1.0000 0.16670  0.45530  0.17830  Biso   1.000  C
  H29      1.0000 0.14740  0.44540  0.13980  Biso   1.000  H
  C45      1.0000 0.16530  0.52250  0.24250  Biso   1.000  C
  H30      1.0000 0.14490  0.55900  0.24780  Biso   1.000  H
  C46      1.0000 0.19770  0.32660  0.09960  Biso   1.000  C
  C47      1.0000 0.20680  0.02390  0.48870  Biso   1.000  C
  C48      1.0000 0.22910  0.14000  0.49490  Biso   1.000  C
  C49      1.0000 0.22600  0.24910  0.54140  Biso   1.000  C
  H31      1.0000 0.20980  0.24750  0.57020  Biso   1.000  H
  C50      1.0000 0.24670  0.35880  0.54480  Biso   1.000  C
  H32      1.0000 0.24430  0.43430  0.57490  Biso   1.000  H
  N3       1.0000 0.10740  0.88760  0.45930  Biso   1.000  N
  C51      1.0000 0.09310  0.99890  0.41840  Biso   1.000  C
  H33      1.0000 0.10330  0.03860  0.38260  Biso   1.000  H
  C52      1.0000 0.06380  0.05190  0.42980  Biso   1.000  C
  H34      1.0000 0.05400  0.12800  0.40180  Biso   1.000  H
  C53      1.0000 0.04880  0.99370  0.48220  Biso   1.000  C
  C54      1.0000 0.06320  0.88250  0.52310  Biso   1.000  C
  H35      1.0000 0.05300  0.84270  0.55890  Biso   1.000  H
  C55      1.0000 0.09250  0.82940  0.51170  Biso   1.000  C
  H36      1.0000 0.10230  0.75330  0.53970  Biso   1.000  H
  N4       1.0000 0.88870  0.18750  0.53340  Biso   1.000  N
  C56      1.0000 0.90690  0.07160  0.52870  Biso   1.000  C
  H37      1.0000 0.89660  0.98550  0.52520  Biso   1.000  H
  C57      1.0000 0.94020  0.08170  0.52920  Biso   1.000  C
  H38      1.0000 0.95270  0.00240  0.52600  Biso   1.000  H
  C58      1.0000 0.95530  0.20770  0.53430  Biso   1.000  C
  C59      1.0000 0.93710  0.32360  0.53900  Biso   1.000  C
  H39      1.0000 0.94740  0.40970  0.54250  Biso   1.000  H
  C60      1.0000 0.90380  0.31350  0.53850  Biso   1.000  C
  H40      1.0000 0.89130  0.39280  0.54170  Biso   1.000  H
  F3       1.0000 0.97330  0.42200  0.40900  Biso   1.000  F
  C61      1.0000 0.01540  0.05700  0.49370  Biso   1.000  C
  H41      1.0000 0.99690  0.99300  0.47340  Biso   1.000  H
  C62      1.0000 0.00480  0.20200  0.46510  Biso   1.000  C
  H42      1.0000 0.02450  0.26080  0.46610  Biso   1.000  H
  C63      1.0000 0.99130  0.22400  0.53480  Biso   1.000  C
  H43      1.0000 0.00020  0.30920  0.56060  Biso   1.000  H
  C64      1.0000 0.01380  0.09700  0.57040  Biso   1.000  C
  H44      1.0000 0.00050  0.03070  0.59180  Biso   1.000  H
  C65      1.0000 0.98190  0.20100  0.38920  Biso   1.000  C
  C66      1.0000 0.96720  0.32700  0.37000  Biso   1.000  C
  C67      1.0000 0.94240  0.34000  0.30500  Biso   1.000  C
  H45      1.0000 0.93240  0.42570  0.29230  Biso   1.000  H
  C68      1.0000 0.93230  0.22900  0.26020  Biso   1.000  C
  H46      1.0000 0.91530  0.23790  0.21610  Biso   1.000  H
  C69      1.0000 0.94690  0.10400  0.27940  Biso   1.000  C
  H47      1.0000 0.94000  0.02730  0.24850  Biso   1.000  H
  C70      1.0000 0.97170  0.09000  0.34390  Biso   1.000  C
  H48      1.0000 0.98170  0.00440  0.35710  Biso   1.000  H
  F4       1.0000 0.01960  0.07400  0.73110  Biso   1.000  F
  C71      1.0000 0.04180  0.15300  0.63110  Biso   1.000  C
  C72      1.0000 0.04320  0.13100  0.70620  Biso   1.000  C
  C73      1.0000 0.06840  0.18800  0.76020  Biso   1.000  C
  H49      1.0000 0.06930  0.17260  0.81150  Biso   1.000  H
  C74      1.0000 0.09230  0.26600  0.73910  Biso   1.000  C
  H50      1.0000 0.10960  0.30530  0.77600  Biso   1.000  H
  C75      1.0000 0.09090  0.28800  0.66400  Biso   1.000  C
  H51      1.0000 0.10720  0.34220  0.64950  Biso   1.000  H
  C76      1.0000 0.06570  0.23100  0.61000  Biso   1.000  C
  H52      1.0000 0.06470  0.24630  0.55860  Biso   1.000  H
  Cd3      1.0000 0.33854  0.32227  0.04692  Biso   1.000  Cd
  O13      1.0000 0.33570  0.16520  0.12960  Biso   1.000  O
  O14      1.0000 0.28403  0.11130  0.07920  Biso   1.000  O
  O15      1.0000 0.32950  0.81070  0.44750  Biso   1.000  O
  O16      1.0000 0.27490  0.78660  0.40650  Biso   1.000  O
  O17      1.0000 0.28738  0.41750  0.04610  Biso   1.000  O
  O18      1.0000 0.31951  0.53060  0.98770  Biso   1.000  O
  C77      1.0000 0.30900  0.11220  0.13050  Biso   1.000  C
  C78      1.0000 0.30650  0.03780  0.19950  Biso   1.000  C
  C79      1.0000 0.27770  0.98340  0.20840  Biso   1.000  C
  H53      1.0000 0.25830  0.99150  0.16960  Biso   1.000  H
  C80      1.0000 0.27630  0.91560  0.27430  Biso   1.000  C
  H54      1.0000 0.25600  0.87860  0.27970  Biso   1.000  H
  C81      1.0000 0.30370  0.90180  0.33080  Biso   1.000  C
  C82      1.0000 0.33330  0.95530  0.32170  Biso   1.000  C
  H55      1.0000 0.35260  0.94540  0.36020  Biso   1.000  H
  C83      1.0000 0.33470  0.02250  0.25750  Biso   1.000  C
  H56      1.0000 0.35510  0.05900  0.25220  Biso   1.000  H
  C84      1.0000 0.30230  0.82660  0.40040  Biso   1.000  C
  C85      1.0000 0.29320  0.52390  0.01130  Biso   1.000  C
  C86      1.0000 0.27090  0.64000  0.00510  Biso   1.000  C
  C87      1.0000 0.27400  0.74910  0.95860  Biso   1.000  C
  H57      1.0000 0.29020  0.74750  0.92980  Biso   1.000  H
  C88      1.0000 0.25330  0.85880  0.95520  Biso   1.000  C
  H58      1.0000 0.25570  0.93430  0.92510  Biso   1.000  H
  N5       1.0000 0.39260  0.38760  0.04070  Biso   1.000  N
  C89      1.0000 0.40690  0.49890  0.08160  Biso   1.000  C
  H59      1.0000 0.39670  0.53860  0.11740  Biso   1.000  H
  C90      1.0000 0.43620  0.55190  0.07020  Biso   1.000  C
  H60      1.0000 0.44600  0.62800  0.09820  Biso   1.000  H
  C91      1.0000 0.45120  0.49370  0.01780  Biso   1.000  C
  C92      1.0000 0.43680  0.38250  0.97690  Biso   1.000  C
  H61      1.0000 0.44700  0.34270  0.94110  Biso   1.000  H
  C93      1.0000 0.40750  0.32940  0.98830  Biso   1.000  C
  H62      1.0000 0.39770  0.25330  0.96030  Biso   1.000  H
  N6       1.0000 0.61130  0.68750  0.96660  Biso   1.000  N
  C94      1.0000 0.59310  0.57160  0.97130  Biso   1.000  C
  H63      1.0000 0.60340  0.48550  0.97480  Biso   1.000  H
  C95      1.0000 0.55980  0.58170  0.97080  Biso   1.000  C
  H64      1.0000 0.54730  0.50240  0.97400  Biso   1.000  H
  C96      1.0000 0.54470  0.70770  0.96570  Biso   1.000  C
  C97      1.0000 0.56290  0.82360  0.96100  Biso   1.000  C
  H65      1.0000 0.55260  0.90970  0.95750  Biso   1.000  H
  C98      1.0000 0.59620  0.81350  0.96150  Biso   1.000  C
  H66      1.0000 0.60870  0.89280  0.95830  Biso   1.000  H
  F5       1.0000 0.52670  0.92200  0.09100  Biso   1.000  F
  C99      1.0000 0.48460  0.55700  0.00630  Biso   1.000  C
  H67      1.0000 0.50310  0.49300  0.02660  Biso   1.000  H
  C100     1.0000 0.49520  0.70200  0.03490  Biso   1.000  C
  H68      1.0000 0.47550  0.76080  0.03390  Biso   1.000  H
  C101     1.0000 0.50870  0.72400  0.96520  Biso   1.000  C
  H69      1.0000 0.49980  0.80920  0.93940  Biso   1.000  H
  C102     1.0000 0.48620  0.59700  0.92960  Biso   1.000  C
  H70      1.0000 0.49950  0.53070  0.90820  Biso   1.000  H
  C103     1.0000 0.51810  0.70100  0.11080  Biso   1.000  C
  C104     1.0000 0.53280  0.82700  0.13000  Biso   1.000  C
  C105     1.0000 0.55760  0.84000  0.19500  Biso   1.000  C
  H71      1.0000 0.56760  0.92570  0.20770  Biso   1.000  H
  C106     1.0000 0.56770  0.72900  0.23980  Biso   1.000  C
  H72      1.0000 0.58470  0.73790  0.28390  Biso   1.000  H
  C107     1.0000 0.55310  0.60400  0.22060  Biso   1.000  C
  H73      1.0000 0.56000  0.52730  0.25150  Biso   1.000  H
  C108     1.0000 0.52830  0.59000  0.15610  Biso   1.000  C
  H74      1.0000 0.51830  0.50440  0.14290  Biso   1.000  H
  F6       1.0000 0.48040  0.57400  0.76890  Biso   1.000  F
  C109     1.0000 0.45820  0.65300  0.86890  Biso   1.000  C
  C110     1.0000 0.45680  0.63100  0.79380  Biso   1.000  C
  C111     1.0000 0.43160  0.68800  0.73980  Biso   1.000  C
  H75      1.0000 0.43070  0.67260  0.68850  Biso   1.000  H
  C112     1.0000 0.40770  0.76600  0.76090  Biso   1.000  C
  H76      1.0000 0.39040  0.80530  0.72400  Biso   1.000  H
  C113     1.0000 0.40910  0.78800  0.83600  Biso   1.000  C
  H77      1.0000 0.39280  0.84220  0.85050  Biso   1.000  H
  C114     1.0000 0.43430  0.73100  0.89000  Biso   1.000  C
  H78      1.0000 0.43530  0.74630  0.94140  Biso   1.000  H
  Cd4      1.0000 0.83854  0.82227  0.04692  Biso   1.000  Cd
  O19      1.0000 0.83570  0.66520  0.12960  Biso   1.000  O
  O20      1.0000 0.78403  0.61130  0.07920  Biso   1.000  O
  O21      1.0000 0.82950  0.31070  0.44750  Biso   1.000  O
  O22      1.0000 0.77490  0.28660  0.40650  Biso   1.000  O
  O23      1.0000 0.78738  0.91750  0.04610  Biso   1.000  O
  O24      1.0000 0.81951  0.03060  0.98770  Biso   1.000  O
  C115     1.0000 0.80900  0.61220  0.13050  Biso   1.000  C
  C116     1.0000 0.80650  0.53780  0.19950  Biso   1.000  C
  C117     1.0000 0.77770  0.48340  0.20840  Biso   1.000  C
  H79      1.0000 0.75830  0.49150  0.16960  Biso   1.000  H
  C118     1.0000 0.77630  0.41560  0.27430  Biso   1.000  C
  H80      1.0000 0.75600  0.37860  0.27970  Biso   1.000  H
  C119     1.0000 0.80370  0.40180  0.33080  Biso   1.000  C
  C120     1.0000 0.83330  0.45530  0.32170  Biso   1.000  C
  H81      1.0000 0.85260  0.44540  0.36020  Biso   1.000  H
  C121     1.0000 0.83470  0.52250  0.25750  Biso   1.000  C
  H82      1.0000 0.85510  0.55900  0.25220  Biso   1.000  H
  C122     1.0000 0.80230  0.32660  0.40040  Biso   1.000  C
  C123     1.0000 0.79320  0.02390  0.01130  Biso   1.000  C
  C124     1.0000 0.77090  0.14000  0.00510  Biso   1.000  C
  C125     1.0000 0.77400  0.24910  0.95860  Biso   1.000  C
  H83      1.0000 0.79020  0.24750  0.92980  Biso   1.000  H
  C126     1.0000 0.75330  0.35880  0.95520  Biso   1.000  C
  H84      1.0000 0.75570  0.43430  0.92510  Biso   1.000  H
  N7       1.0000 0.89260  0.88760  0.04070  Biso   1.000  N
  C127     1.0000 0.90690  0.99890  0.08160  Biso   1.000  C
  H85      1.0000 0.89670  0.03860  0.11740  Biso   1.000  H
  C128     1.0000 0.93620  0.05190  0.07020  Biso   1.000  C
  H86      1.0000 0.94600  0.12800  0.09820  Biso   1.000  H
  C129     1.0000 0.95120  0.99370  0.01780  Biso   1.000  C
  C130     1.0000 0.93680  0.88250  0.97690  Biso   1.000  C
  H87      1.0000 0.94700  0.84270  0.94110  Biso   1.000  H
  C131     1.0000 0.90750  0.82940  0.98830  Biso   1.000  C
  H88      1.0000 0.89770  0.75330  0.96030  Biso   1.000  H
  N8       1.0000 0.11130  0.18750  0.96660  Biso   1.000  N
  C132     1.0000 0.09310  0.07160  0.97130  Biso   1.000  C
  H89      1.0000 0.10340  0.98550  0.97480  Biso   1.000  H
  C133     1.0000 0.05980  0.08170  0.97080  Biso   1.000  C
  H90      1.0000 0.04730  0.00240  0.97400  Biso   1.000  H
  C134     1.0000 0.04470  0.20770  0.96570  Biso   1.000  C
  C135     1.0000 0.06290  0.32360  0.96100  Biso   1.000  C
  H91      1.0000 0.05260  0.40970  0.95750  Biso   1.000  H
  C136     1.0000 0.09620  0.31350  0.96150  Biso   1.000  C
  H92      1.0000 0.10870  0.39280  0.95830  Biso   1.000  H
  F7       1.0000 0.02670  0.42200  0.09100  Biso   1.000  F
  C137     1.0000 0.98460  0.05700  0.00630  Biso   1.000  C
  H93      1.0000 0.00310  0.99300  0.02660  Biso   1.000  H
  C138     1.0000 0.99520  0.20200  0.03490  Biso   1.000  C
  H94      1.0000 0.97550  0.26080  0.03390  Biso   1.000  H
  C139     1.0000 0.00870  0.22400  0.96520  Biso   1.000  C
  H95      1.0000 0.99980  0.30920  0.93940  Biso   1.000  H
  C140     1.0000 0.98620  0.09700  0.92960  Biso   1.000  C
  H96      1.0000 0.99950  0.03070  0.90820  Biso   1.000  H
  C141     1.0000 0.01810  0.20100  0.11080  Biso   1.000  C
  C142     1.0000 0.03280  0.32700  0.13000  Biso   1.000  C
  C143     1.0000 0.05760  0.34000  0.19500  Biso   1.000  C
  H97      1.0000 0.06760  0.42570  0.20770  Biso   1.000  H
  C144     1.0000 0.06770  0.22900  0.23980  Biso   1.000  C
  H98      1.0000 0.08470  0.23790  0.28390  Biso   1.000  H
  C145     1.0000 0.05310  0.10400  0.22060  Biso   1.000  C
  H99      1.0000 0.06000  0.02730  0.25150  Biso   1.000  H
  C146     1.0000 0.02830  0.09000  0.15610  Biso   1.000  C
  H100     1.0000 0.01830  0.00440  0.14290  Biso   1.000  H
  F8       1.0000 0.98040  0.07400  0.76890  Biso   1.000  F
  C147     1.0000 0.95820  0.15300  0.86890  Biso   1.000  C
  C148     1.0000 0.95680  0.13100  0.79380  Biso   1.000  C
  C149     1.0000 0.93160  0.18800  0.73980  Biso   1.000  C
  H101     1.0000 0.93070  0.17260  0.68850  Biso   1.000  H
  C150     1.0000 0.90770  0.26600  0.76090  Biso   1.000  C
  H102     1.0000 0.89040  0.30530  0.72400  Biso   1.000  H
  C151     1.0000 0.90910  0.28800  0.83600  Biso   1.000  C
  H103     1.0000 0.89280  0.34220  0.85050  Biso   1.000  H
  C152     1.0000 0.93430  0.23100  0.89000  Biso   1.000  C
  H104     1.0000 0.93530  0.24630  0.94140  Biso   1.000  H
  Cd5      1.0000 0.33854  0.67773  0.54692  Biso   1.000  Cd
  O25      1.0000 0.33570  0.83480  0.62960  Biso   1.000  O
  O26      1.0000 0.28403  0.88870  0.57920  Biso   1.000  O
  O27      1.0000 0.32950  0.18930  0.94750  Biso   1.000  O
  O28      1.0000 0.27490  0.21340  0.90650  Biso   1.000  O
  O29      1.0000 0.28738  0.58250  0.54610  Biso   1.000  O
  O30      1.0000 0.31951  0.46940  0.48770  Biso   1.000  O
  C153     1.0000 0.30900  0.88780  0.63050  Biso   1.000  C
  C154     1.0000 0.30650  0.96220  0.69950  Biso   1.000  C
  C155     1.0000 0.27770  0.01660  0.70840  Biso   1.000  C
  H105     1.0000 0.25830  0.00850  0.66960  Biso   1.000  H
  C156     1.0000 0.27630  0.08440  0.77430  Biso   1.000  C
  H106     1.0000 0.25600  0.12140  0.77970  Biso   1.000  H
  C157     1.0000 0.30370  0.09820  0.83080  Biso   1.000  C
  C158     1.0000 0.33330  0.04470  0.82170  Biso   1.000  C
  H107     1.0000 0.35260  0.05460  0.86020  Biso   1.000  H
  C159     1.0000 0.33470  0.97750  0.75750  Biso   1.000  C
  H108     1.0000 0.35510  0.94100  0.75220  Biso   1.000  H
  C160     1.0000 0.30230  0.17340  0.90040  Biso   1.000  C
  C161     1.0000 0.29320  0.47610  0.51130  Biso   1.000  C
  C162     1.0000 0.27090  0.36000  0.50510  Biso   1.000  C
  C163     1.0000 0.27400  0.25090  0.45860  Biso   1.000  C
  H109     1.0000 0.29020  0.25250  0.42980  Biso   1.000  H
  C164     1.0000 0.25330  0.14120  0.45520  Biso   1.000  C
  H110     1.0000 0.25570  0.06570  0.42510  Biso   1.000  H
  N9       1.0000 0.39260  0.61240  0.54070  Biso   1.000  N
  C165     1.0000 0.40690  0.50110  0.58160  Biso   1.000  C
  H111     1.0000 0.39670  0.46140  0.61740  Biso   1.000  H
  C166     1.0000 0.43620  0.44810  0.57020  Biso   1.000  C
  H112     1.0000 0.44600  0.37200  0.59820  Biso   1.000  H
  C167     1.0000 0.45120  0.50630  0.51780  Biso   1.000  C
  C168     1.0000 0.43680  0.61750  0.47690  Biso   1.000  C
  H113     1.0000 0.44700  0.65730  0.44110  Biso   1.000  H
  C169     1.0000 0.40750  0.67060  0.48830  Biso   1.000  C
  H114     1.0000 0.39770  0.74670  0.46030  Biso   1.000  H
  N10      1.0000 0.61130  0.31250  0.46660  Biso   1.000  N
  C170     1.0000 0.59310  0.42840  0.47130  Biso   1.000  C
  H115     1.0000 0.60340  0.51450  0.47480  Biso   1.000  H
  C171     1.0000 0.55980  0.41830  0.47080  Biso   1.000  C
  H116     1.0000 0.54730  0.49760  0.47400  Biso   1.000  H
  C172     1.0000 0.54470  0.29230  0.46570  Biso   1.000  C
  C173     1.0000 0.56290  0.17640  0.46100  Biso   1.000  C
  H117     1.0000 0.55260  0.09030  0.45750  Biso   1.000  H
  C174     1.0000 0.59620  0.18650  0.46150  Biso   1.000  C
  H118     1.0000 0.60870  0.10720  0.45830  Biso   1.000  H
  F9       1.0000 0.52670  0.07800  0.59100  Biso   1.000  F
  C175     1.0000 0.48460  0.44300  0.50630  Biso   1.000  C
  H119     1.0000 0.50310  0.50700  0.52660  Biso   1.000  H
  C176     1.0000 0.49520  0.29800  0.53490  Biso   1.000  C
  H120     1.0000 0.47550  0.23920  0.53390  Biso   1.000  H
  C177     1.0000 0.50870  0.27600  0.46520  Biso   1.000  C
  H121     1.0000 0.49980  0.19080  0.43940  Biso   1.000  H
  C178     1.0000 0.48620  0.40300  0.42960  Biso   1.000  C
  H122     1.0000 0.49950  0.46930  0.40820  Biso   1.000  H
  C179     1.0000 0.51810  0.29900  0.61080  Biso   1.000  C
  C180     1.0000 0.53280  0.17300  0.63000  Biso   1.000  C
  C181     1.0000 0.55760  0.16000  0.69500  Biso   1.000  C
  H123     1.0000 0.56760  0.07430  0.70770  Biso   1.000  H
  C182     1.0000 0.56770  0.27100  0.73980  Biso   1.000  C
  H124     1.0000 0.58470  0.26210  0.78390  Biso   1.000  H
  C183     1.0000 0.55310  0.39600  0.72060  Biso   1.000  C
  H125     1.0000 0.56000  0.47270  0.75150  Biso   1.000  H
  C184     1.0000 0.52830  0.41000  0.65610  Biso   1.000  C
  H126     1.0000 0.51830  0.49560  0.64290  Biso   1.000  H
  F10      1.0000 0.48040  0.42600  0.26890  Biso   1.000  F
  C185     1.0000 0.45820  0.34700  0.36890  Biso   1.000  C
  C186     1.0000 0.45680  0.36900  0.29380  Biso   1.000  C
  C187     1.0000 0.43160  0.31200  0.23980  Biso   1.000  C
  H127     1.0000 0.43070  0.32740  0.18850  Biso   1.000  H
  C188     1.0000 0.40770  0.23400  0.26090  Biso   1.000  C
  H128     1.0000 0.39040  0.19470  0.22400  Biso   1.000  H
  C189     1.0000 0.40910  0.21200  0.33600  Biso   1.000  C
  H129     1.0000 0.39280  0.15780  0.35050  Biso   1.000  H
  C190     1.0000 0.43430  0.26900  0.39000  Biso   1.000  C
  H130     1.0000 0.43530  0.25370  0.44140  Biso   1.000  H
  Cd6      1.0000 0.83854  0.17773  0.54692  Biso   1.000  Cd
  O31      1.0000 0.83570  0.33480  0.62960  Biso   1.000  O
  O32      1.0000 0.78403  0.38870  0.57920  Biso   1.000  O
  O33      1.0000 0.82950  0.68930  0.94750  Biso   1.000  O
  O34      1.0000 0.77490  0.71340  0.90650  Biso   1.000  O
  O35      1.0000 0.78738  0.08250  0.54610  Biso   1.000  O
  O36      1.0000 0.81951  0.96940  0.48770  Biso   1.000  O
  C191     1.0000 0.80900  0.38780  0.63050  Biso   1.000  C
  C192     1.0000 0.80650  0.46220  0.69950  Biso   1.000  C
  C193     1.0000 0.77770  0.51660  0.70840  Biso   1.000  C
  H131     1.0000 0.75830  0.50850  0.66960  Biso   1.000  H
  C194     1.0000 0.77630  0.58440  0.77430  Biso   1.000  C
  H132     1.0000 0.75600  0.62140  0.77970  Biso   1.000  H
  C195     1.0000 0.80370  0.59820  0.83080  Biso   1.000  C
  C196     1.0000 0.83330  0.54470  0.82170  Biso   1.000  C
  H133     1.0000 0.85260  0.55460  0.86020  Biso   1.000  H
  C197     1.0000 0.83470  0.47750  0.75750  Biso   1.000  C
  H134     1.0000 0.85510  0.44100  0.75220  Biso   1.000  H
  C198     1.0000 0.80230  0.67340  0.90040  Biso   1.000  C
  C199     1.0000 0.79320  0.97610  0.51130  Biso   1.000  C
  C200     1.0000 0.77090  0.86000  0.50510  Biso   1.000  C
  C201     1.0000 0.77400  0.75090  0.45860  Biso   1.000  C
  H135     1.0000 0.79020  0.75250  0.42980  Biso   1.000  H
  C202     1.0000 0.75330  0.64120  0.45520  Biso   1.000  C
  H136     1.0000 0.75570  0.56570  0.42510  Biso   1.000  H
  N11      1.0000 0.89260  0.11240  0.54070  Biso   1.000  N
  C203     1.0000 0.90690  0.00110  0.58160  Biso   1.000  C
  H137     1.0000 0.89670  0.96140  0.61740  Biso   1.000  H
  C204     1.0000 0.93620  0.94810  0.57020  Biso   1.000  C
  H138     1.0000 0.94600  0.87200  0.59820  Biso   1.000  H
  C205     1.0000 0.95120  0.00630  0.51780  Biso   1.000  C
  C206     1.0000 0.93680  0.11750  0.47690  Biso   1.000  C
  H139     1.0000 0.94700  0.15730  0.44110  Biso   1.000  H
  C207     1.0000 0.90750  0.17060  0.48830  Biso   1.000  C
  H140     1.0000 0.89770  0.24670  0.46030  Biso   1.000  H
  N12      1.0000 0.11130  0.81250  0.46660  Biso   1.000  N
  C208     1.0000 0.09310  0.92840  0.47130  Biso   1.000  C
  H141     1.0000 0.10340  0.01450  0.47480  Biso   1.000  H
  C209     1.0000 0.05980  0.91830  0.47080  Biso   1.000  C
  H142     1.0000 0.04730  0.99760  0.47400  Biso   1.000  H
  C210     1.0000 0.04470  0.79230  0.46570  Biso   1.000  C
  C211     1.0000 0.06290  0.67640  0.46100  Biso   1.000  C
  H143     1.0000 0.05260  0.59030  0.45750  Biso   1.000  H
  C212     1.0000 0.09620  0.68650  0.46150  Biso   1.000  C
  H144     1.0000 0.10870  0.60720  0.45830  Biso   1.000  H
  F11      1.0000 0.02670  0.57800  0.59100  Biso   1.000  F
  C213     1.0000 0.98460  0.94300  0.50630  Biso   1.000  C
  H145     1.0000 0.00310  0.00700  0.52660  Biso   1.000  H
  C214     1.0000 0.99520  0.79800  0.53490  Biso   1.000  C
  H146     1.0000 0.97550  0.73920  0.53390  Biso   1.000  H
  C215     1.0000 0.00870  0.77600  0.46520  Biso   1.000  C
  H147     1.0000 0.99980  0.69080  0.43940  Biso   1.000  H
  C216     1.0000 0.98620  0.90300  0.42960  Biso   1.000  C
  H148     1.0000 0.99950  0.96930  0.40820  Biso   1.000  H
  C217     1.0000 0.01810  0.79900  0.61080  Biso   1.000  C
  C218     1.0000 0.03280  0.67300  0.63000  Biso   1.000  C
  C219     1.0000 0.05760  0.66000  0.69500  Biso   1.000  C
  H149     1.0000 0.06760  0.57430  0.70770  Biso   1.000  H
  C220     1.0000 0.06770  0.77100  0.73980  Biso   1.000  C
  H150     1.0000 0.08470  0.76210  0.78390  Biso   1.000  H
  C221     1.0000 0.05310  0.89600  0.72060  Biso   1.000  C
  H151     1.0000 0.06000  0.97270  0.75150  Biso   1.000  H
  C222     1.0000 0.02830  0.91000  0.65610  Biso   1.000  C
  H152     1.0000 0.01830  0.99560  0.64290  Biso   1.000  H
  F12      1.0000 0.98040  0.92600  0.26890  Biso   1.000  F
  C223     1.0000 0.95820  0.84700  0.36890  Biso   1.000  C
  C224     1.0000 0.95680  0.86900  0.29380  Biso   1.000  C
  C225     1.0000 0.93160  0.81200  0.23980  Biso   1.000  C
  H153     1.0000 0.93070  0.82740  0.18850  Biso   1.000  H
  C226     1.0000 0.90770  0.73400  0.26090  Biso   1.000  C
  H154     1.0000 0.89040  0.69470  0.22400  Biso   1.000  H
  C227     1.0000 0.90910  0.71200  0.33600  Biso   1.000  C
  H155     1.0000 0.89280  0.65780  0.35050  Biso   1.000  H
  C228     1.0000 0.93430  0.76900  0.39000  Biso   1.000  C
  H156     1.0000 0.93530  0.75370  0.44140  Biso   1.000  H
  Cd7      1.0000 0.66146  0.67773  0.95308  Biso   1.000  Cd
  O37      1.0000 0.66430  0.83480  0.87040  Biso   1.000  O
  O38      1.0000 0.71597  0.88870  0.92080  Biso   1.000  O
  O39      1.0000 0.67050  0.18930  0.55250  Biso   1.000  O
  O40      1.0000 0.72510  0.21340  0.59350  Biso   1.000  O
  O41      1.0000 0.71262  0.58250  0.95390  Biso   1.000  O
  O42      1.0000 0.68049  0.46940  0.01230  Biso   1.000  O
  C229     1.0000 0.69100  0.88780  0.86950  Biso   1.000  C
  C230     1.0000 0.69350  0.96220  0.80050  Biso   1.000  C
  C231     1.0000 0.72230  0.01660  0.79160  Biso   1.000  C
  H157     1.0000 0.74170  0.00850  0.83040  Biso   1.000  H
  C232     1.0000 0.72370  0.08440  0.72570  Biso   1.000  C
  H158     1.0000 0.74400  0.12140  0.72030  Biso   1.000  H
  C233     1.0000 0.69630  0.09820  0.66920  Biso   1.000  C
  C234     1.0000 0.66670  0.04470  0.67830  Biso   1.000  C
  H159     1.0000 0.64740  0.05460  0.63980  Biso   1.000  H
  C235     1.0000 0.66530  0.97750  0.74250  Biso   1.000  C
  H160     1.0000 0.64490  0.94100  0.74780  Biso   1.000  H
  C236     1.0000 0.69770  0.17340  0.59960  Biso   1.000  C
  C237     1.0000 0.70680  0.47610  0.98870  Biso   1.000  C
  C238     1.0000 0.72910  0.36000  0.99490  Biso   1.000  C
  C239     1.0000 0.72600  0.25090  0.04140  Biso   1.000  C
  H161     1.0000 0.70980  0.25250  0.07020  Biso   1.000  H
  C240     1.0000 0.74670  0.14120  0.04480  Biso   1.000  C
  H162     1.0000 0.74430  0.06570  0.07490  Biso   1.000  H
  N13      1.0000 0.60740  0.61240  0.95930  Biso   1.000  N
  C241     1.0000 0.59310  0.50110  0.91840  Biso   1.000  C
  H163     1.0000 0.60330  0.46140  0.88260  Biso   1.000  H
  C242     1.0000 0.56380  0.44810  0.92980  Biso   1.000  C
  H164     1.0000 0.55400  0.37200  0.90180  Biso   1.000  H
  C243     1.0000 0.54880  0.50630  0.98220  Biso   1.000  C
  C244     1.0000 0.56320  0.61750  0.02310  Biso   1.000  C
  H165     1.0000 0.55300  0.65730  0.05890  Biso   1.000  H
  C245     1.0000 0.59250  0.67060  0.01170  Biso   1.000  C
  H166     1.0000 0.60230  0.74670  0.03970  Biso   1.000  H
  N14      1.0000 0.38870  0.31250  0.03340  Biso   1.000  N
  C246     1.0000 0.40690  0.42840  0.02870  Biso   1.000  C
  H167     1.0000 0.39660  0.51450  0.02520  Biso   1.000  H
  C247     1.0000 0.44020  0.41830  0.02920  Biso   1.000  C
  H168     1.0000 0.45270  0.49760  0.02600  Biso   1.000  H
  C248     1.0000 0.45530  0.29230  0.03430  Biso   1.000  C
  C249     1.0000 0.43710  0.17640  0.03900  Biso   1.000  C
  H169     1.0000 0.44740  0.09030  0.04250  Biso   1.000  H
  C250     1.0000 0.40380  0.18650  0.03850  Biso   1.000  C
  H170     1.0000 0.39130  0.10720  0.04170  Biso   1.000  H
  F13      1.0000 0.47330  0.07800  0.90900  Biso   1.000  F
  C251     1.0000 0.51540  0.44300  0.99370  Biso   1.000  C
  H171     1.0000 0.49690  0.50700  0.97340  Biso   1.000  H
  C252     1.0000 0.50480  0.29800  0.96510  Biso   1.000  C
  H172     1.0000 0.52450  0.23920  0.96610  Biso   1.000  H
  C253     1.0000 0.49130  0.27600  0.03480  Biso   1.000  C
  H173     1.0000 0.50020  0.19080  0.06060  Biso   1.000  H
  C254     1.0000 0.51380  0.40300  0.07040  Biso   1.000  C
  H174     1.0000 0.50050  0.46930  0.09180  Biso   1.000  H
  C255     1.0000 0.48190  0.29900  0.88920  Biso   1.000  C
  C256     1.0000 0.46720  0.17300  0.87000  Biso   1.000  C
  C257     1.0000 0.44240  0.16000  0.80500  Biso   1.000  C
  H175     1.0000 0.43240  0.07430  0.79230  Biso   1.000  H
  C258     1.0000 0.43230  0.27100  0.76020  Biso   1.000  C
  H176     1.0000 0.41530  0.26210  0.71610  Biso   1.000  H
  C259     1.0000 0.44690  0.39600  0.77940  Biso   1.000  C
  H177     1.0000 0.44000  0.47270  0.74850  Biso   1.000  H
  C260     1.0000 0.47170  0.41000  0.84390  Biso   1.000  C
  H178     1.0000 0.48170  0.49560  0.85710  Biso   1.000  H
  F14      1.0000 0.51960  0.42600  0.23110  Biso   1.000  F
  C261     1.0000 0.54180  0.34700  0.13110  Biso   1.000  C
  C262     1.0000 0.54320  0.36900  0.20620  Biso   1.000  C
  C263     1.0000 0.56840  0.31200  0.26020  Biso   1.000  C
  H179     1.0000 0.56930  0.32740  0.31150  Biso   1.000  H
  C264     1.0000 0.59230  0.23400  0.23910  Biso   1.000  C
  H180     1.0000 0.60960  0.19470  0.27600  Biso   1.000  H
  C265     1.0000 0.59090  0.21200  0.16400  Biso   1.000  C
  H181     1.0000 0.60720  0.15780  0.14950  Biso   1.000  H
  C266     1.0000 0.56570  0.26900  0.11000  Biso   1.000  C
  H182     1.0000 0.56470  0.25370  0.05860  Biso   1.000  H
  Cd8      1.0000 0.16146  0.17773  0.95308  Biso   1.000  Cd
  O43      1.0000 0.16430  0.33480  0.87040  Biso   1.000  O
  O44      1.0000 0.21597  0.38870  0.92080  Biso   1.000  O
  O45      1.0000 0.17050  0.68930  0.55250  Biso   1.000  O
  O46      1.0000 0.22510  0.71340  0.59350  Biso   1.000  O
  O47      1.0000 0.21262  0.08250  0.95390  Biso   1.000  O
  O48      1.0000 0.18049  0.96940  0.01230  Biso   1.000  O
  C267     1.0000 0.19100  0.38780  0.86950  Biso   1.000  C
  C268     1.0000 0.19350  0.46220  0.80050  Biso   1.000  C
  C269     1.0000 0.22230  0.51660  0.79160  Biso   1.000  C
  H183     1.0000 0.24170  0.50850  0.83040  Biso   1.000  H
  C270     1.0000 0.22370  0.58440  0.72570  Biso   1.000  C
  H184     1.0000 0.24400  0.62140  0.72030  Biso   1.000  H
  C271     1.0000 0.19630  0.59820  0.66920  Biso   1.000  C
  C272     1.0000 0.16670  0.54470  0.67830  Biso   1.000  C
  H185     1.0000 0.14740  0.55460  0.63980  Biso   1.000  H
  C273     1.0000 0.16530  0.47750  0.74250  Biso   1.000  C
  H186     1.0000 0.14490  0.44100  0.74780  Biso   1.000  H
  C274     1.0000 0.19770  0.67340  0.59960  Biso   1.000  C
  C275     1.0000 0.20680  0.97610  0.98870  Biso   1.000  C
  C276     1.0000 0.22910  0.86000  0.99490  Biso   1.000  C
  C277     1.0000 0.22600  0.75090  0.04140  Biso   1.000  C
  H187     1.0000 0.20980  0.75250  0.07020  Biso   1.000  H
  C278     1.0000 0.24670  0.64120  0.04480  Biso   1.000  C
  H188     1.0000 0.24430  0.56570  0.07490  Biso   1.000  H
  N15      1.0000 0.10740  0.11240  0.95930  Biso   1.000  N
  C279     1.0000 0.09310  0.00110  0.91840  Biso   1.000  C
  H189     1.0000 0.10330  0.96140  0.88260  Biso   1.000  H
  C280     1.0000 0.06380  0.94810  0.92980  Biso   1.000  C
  H190     1.0000 0.05400  0.87200  0.90180  Biso   1.000  H
  C281     1.0000 0.04880  0.00630  0.98220  Biso   1.000  C
  C282     1.0000 0.06320  0.11750  0.02310  Biso   1.000  C
  H191     1.0000 0.05300  0.15730  0.05890  Biso   1.000  H
  C283     1.0000 0.09250  0.17060  0.01170  Biso   1.000  C
  H192     1.0000 0.10230  0.24670  0.03970  Biso   1.000  H
  N16      1.0000 0.88870  0.81250  0.03340  Biso   1.000  N
  C284     1.0000 0.90690  0.92840  0.02870  Biso   1.000  C
  H193     1.0000 0.89660  0.01450  0.02520  Biso   1.000  H
  C285     1.0000 0.94020  0.91830  0.02920  Biso   1.000  C
  H194     1.0000 0.95270  0.99760  0.02600  Biso   1.000  H
  C286     1.0000 0.95530  0.79230  0.03430  Biso   1.000  C
  C287     1.0000 0.93710  0.67640  0.03900  Biso   1.000  C
  H195     1.0000 0.94740  0.59030  0.04250  Biso   1.000  H
  C288     1.0000 0.90380  0.68650  0.03850  Biso   1.000  C
  H196     1.0000 0.89130  0.60720  0.04170  Biso   1.000  H
  F15      1.0000 0.97330  0.57800  0.90900  Biso   1.000  F
  C289     1.0000 0.01540  0.94300  0.99370  Biso   1.000  C
  H197     1.0000 0.99690  0.00700  0.97340  Biso   1.000  H
  C290     1.0000 0.00480  0.79800  0.96510  Biso   1.000  C
  H198     1.0000 0.02450  0.73920  0.96610  Biso   1.000  H
  C291     1.0000 0.99130  0.77600  0.03480  Biso   1.000  C
  H199     1.0000 0.00020  0.69080  0.06060  Biso   1.000  H
  C292     1.0000 0.01380  0.90300  0.07040  Biso   1.000  C
  H200     1.0000 0.00050  0.96930  0.09180  Biso   1.000  H
  C293     1.0000 0.98190  0.79900  0.88920  Biso   1.000  C
  C294     1.0000 0.96720  0.67300  0.87000  Biso   1.000  C
  C295     1.0000 0.94240  0.66000  0.80500  Biso   1.000  C
  H201     1.0000 0.93240  0.57430  0.79230  Biso   1.000  H
  C296     1.0000 0.93230  0.77100  0.76020  Biso   1.000  C
  H202     1.0000 0.91530  0.76210  0.71610  Biso   1.000  H
  C297     1.0000 0.94690  0.89600  0.77940  Biso   1.000  C
  H203     1.0000 0.94000  0.97270  0.74850  Biso   1.000  H
  C298     1.0000 0.97170  0.91000  0.84390  Biso   1.000  C
  H204     1.0000 0.98170  0.99560  0.85710  Biso   1.000  H
  F16      1.0000 0.01960  0.92600  0.23110  Biso   1.000  F
  C299     1.0000 0.04180  0.84700  0.13110  Biso   1.000  C
  C300     1.0000 0.04320  0.86900  0.20620  Biso   1.000  C
  C301     1.0000 0.06840  0.81200  0.26020  Biso   1.000  C
  H205     1.0000 0.06930  0.82740  0.31150  Biso   1.000  H
  C302     1.0000 0.09230  0.73400  0.23910  Biso   1.000  C
  H206     1.0000 0.10960  0.69470  0.27600  Biso   1.000  H
  C303     1.0000 0.09090  0.71200  0.16400  Biso   1.000  C
  H207     1.0000 0.10720  0.65780  0.14950  Biso   1.000  H
  C304     1.0000 0.06570  0.76900  0.11000  Biso   1.000  C
  H208     1.0000 0.06470  0.75370  0.05860  Biso   1.000  H
  Cd9      1.0000 0.75000  0.25000  0.50000  Biso   1.000  Cd
  Cd10     1.0000 0.25000  0.25000  0.00000  Biso   1.000  Cd
  Cd11     1.0000 0.25000  0.75000  0.50000  Biso   1.000  Cd
  Cd12     1.0000 0.75000  0.75000  0.00000  Biso   1.000  Cd
