data_image0
_cell_length_a       16.3128
_cell_length_b       16.4758
_cell_length_c       29.1404
_cell_angle_alpha    90
_cell_angle_beta     91.924
_cell_angle_gamma    90

_symmetry_space_group_name_H-M    "P 1"
_symmetry_int_tables_number       1

loop_
  _symmetry_equiv_pos_as_xyz
  'x, y, z'

loop_
  _atom_site_label
  _atom_site_occupancy
  _atom_site_fract_x
  _atom_site_fract_y
  _atom_site_fract_z
  _atom_site_thermal_displace_type
  _atom_site_B_iso_or_equiv
  _atom_site_type_symbol
  Li1      1.0000 0.85610  0.37780  0.07736  Biso   1.000  Li
  Li2      1.0000 0.84780  0.21620  0.13654  Biso   1.000  Li
  Li3      1.0000 0.40380  0.31490  0.24456  Biso   1.000  Li
  Li4      1.0000 0.15030  0.70870  0.19147  Biso   1.000  Li
  Li5      1.0000 0.34340  0.24340  0.96767  Biso   1.000  Li
  O1       1.0000 0.94334  0.38522  0.12224  Biso   1.000  O
  O2       1.0000 0.95680  0.25693  0.14615  Biso   1.000  O
  C1       1.0000 0.97877  0.32966  0.14442  Biso   1.000  C
  O3       1.0000 0.20534  0.17362  0.23144  Biso   1.000  O
  O4       1.0000 0.29712  0.26386  0.25676  Biso   1.000  O
  C2       1.0000 0.23157  0.24446  0.23615  Biso   1.000  C
  O5       1.0000 0.22849  0.54683  0.24584  Biso   1.000  O
  O6       1.0000 0.13351  0.59485  0.19608  Biso   1.000  O
  C3       1.0000 0.16898  0.53895  0.21535  Biso   1.000  C
  C4       1.0000 0.05615  0.35253  0.17215  Biso   1.000  C
  C5       1.0000 0.10677  0.29112  0.19030  Biso   1.000  C
  H1       1.0000 0.09250  0.23590  0.18520  Biso   1.000  H
  C6       1.0000 0.17822  0.31045  0.21586  Biso   1.000  C
  C7       1.0000 0.19775  0.39132  0.22408  Biso   1.000  C
  H2       1.0000 0.24560  0.40480  0.24200  Biso   1.000  H
  C8       1.0000 0.14742  0.45279  0.20622  Biso   1.000  C
  C9       1.0000 0.07717  0.43307  0.17985  Biso   1.000  C
  H3       1.0000 0.04360  0.47510  0.16710  Biso   1.000  H
  O7       1.0000 0.79536  0.27141  0.08282  Biso   1.000  O
  O8       1.0000 0.66395  0.24240  0.09337  Biso   1.000  O
  C10      1.0000 0.72318  0.26010  0.06864  Biso   1.000  C
  O9       1.0000 0.45906  0.27020  0.96679  Biso   1.000  O
  O10      1.0000 0.50358  0.30240  0.89779  Biso   1.000  O
  C11      1.0000 0.51381  0.28310  0.94011  Biso   1.000  C
  O11      1.0000 0.79443  0.27687  0.86454  Biso   1.000  O
  O12      1.0000 0.88425  0.25182  0.92201  Biso   1.000  O
  C12      1.0000 0.81064  0.26645  0.90514  Biso   1.000  C
  C13      1.0000 0.70288  0.26560  0.01813  Biso   1.000  C
  C14      1.0000 0.62146  0.27022  0.00267  Biso   1.000  C
  H4       1.0000 0.57880  0.26850  0.02410  Biso   1.000  H
  C15      1.0000 0.60213  0.27740  0.95583  Biso   1.000  C
  C16      1.0000 0.66454  0.27692  0.92440  Biso   1.000  C
  H5       1.0000 0.65170  0.28190  0.89250  Biso   1.000  H
  C17      1.0000 0.74576  0.26915  0.93985  Biso   1.000  C
  C18      1.0000 0.76498  0.26452  0.98664  Biso   1.000  C
  H6       1.0000 0.82060  0.26060  0.99710  Biso   1.000  H
  O13      1.0000 0.78629  0.23040  0.19170  Biso   1.000  O
  O14      1.0000 0.65319  0.24540  0.17613  Biso   1.000  O
  C19      1.0000 0.71595  0.23840  0.20386  Biso   1.000  C
  O15      1.0000 0.45365  0.26341  0.29886  Biso   1.000  O
  O16      1.0000 0.50114  0.25340  0.37099  Biso   1.000  O
  C20      1.0000 0.51039  0.25591  0.32856  Biso   1.000  C
  O17      1.0000 0.79189  0.22940  0.40933  Biso   1.000  O
  O18      1.0000 0.87596  0.19250  0.35420  Biso   1.000  O
  C21      1.0000 0.80674  0.21500  0.36906  Biso   1.000  C
  C22      1.0000 0.69538  0.23830  0.25349  Biso   1.000  C
  C23      1.0000 0.61500  0.24921  0.26679  Biso   1.000  C
  H7       1.0000 0.57250  0.25720  0.24420  Biso   1.000  H
  C24      1.0000 0.59670  0.24845  0.31306  Biso   1.000  C
  C25      1.0000 0.66009  0.23680  0.34579  Biso   1.000  C
  H8       1.0000 0.64840  0.23690  0.37750  Biso   1.000  H
  C26      1.0000 0.74021  0.22490  0.33239  Biso   1.000  C
  C27      1.0000 0.75807  0.22560  0.28622  Biso   1.000  C
  H9       1.0000 0.81280  0.21750  0.27700  Biso   1.000  H
  O19      1.0000 0.41190  0.41710  0.23210  Biso   1.000  O
  C28      1.0000 0.44590  0.48200  0.24180  Biso   1.000  C
  C29      1.0000 0.50270  0.49070  0.28420  Biso   1.000  C
  H10      1.0000 0.55060  0.45400  0.28260  Biso   1.000  H
  H11      1.0000 0.47330  0.47960  0.31270  Biso   1.000  H
  C30      1.0000 0.52820  0.57990  0.28110  Biso   1.000  C
  H12      1.0000 0.51110  0.60940  0.30880  Biso   1.000  H
  H13      1.0000 0.58860  0.58390  0.27960  Biso   1.000  H
  C31      1.0000 0.48790  0.61770  0.23840  Biso   1.000  C
  H14      1.0000 0.45210  0.66380  0.24640  Biso   1.000  H
  H15      1.0000 0.52930  0.63650  0.21670  Biso   1.000  H
  N1       1.0000 0.44010  0.54980  0.21946  Biso   1.000  N
  C32      1.0000 0.39010  0.55830  0.17800  Biso   1.000  C
  H16      1.0000 0.39490  0.61380  0.16630  Biso   1.000  H
  H17      1.0000 0.33270  0.54700  0.18470  Biso   1.000  H
  H18      1.0000 0.40870  0.51980  0.15490  Biso   1.000  H
  O20      1.0000 0.42130  0.43610  0.25990  Biso   1.000  O
  C33      1.0000 0.42760  0.49760  0.23610  Biso   1.000  C
  C34      1.0000 0.39060  0.50300  0.18530  Biso   1.000  C
  H19      1.0000 0.41590  0.46210  0.16530  Biso   1.000  H
  H20      1.0000 0.33040  0.49470  0.18450  Biso   1.000  H
  C35      1.0000 0.41160  0.58650  0.17100  Biso   1.000  C
  H21      1.0000 0.36090  0.61750  0.16350  Biso   1.000  H
  H22      1.0000 0.44500  0.58470  0.14320  Biso   1.000  H
  C36      1.0000 0.46000  0.62770  0.21020  Biso   1.000  C
  H23      1.0000 0.51560  0.64320  0.20090  Biso   1.000  H
  H24      1.0000 0.43110  0.67650  0.22130  Biso   1.000  H
  N2       1.0000 0.46310  0.56500  0.24440  Biso   1.000  N
  C37      1.0000 0.49610  0.56690  0.29080  Biso   1.000  C
  H25      1.0000 0.52330  0.61910  0.29660  Biso   1.000  H
  H26      1.0000 0.53600  0.52280  0.29520  Biso   1.000  H
  H27      1.0000 0.45160  0.55990  0.31220  Biso   1.000  H
  Li6      1.0000 0.64390  0.87780  0.42264  Biso   1.000  Li
  Li7      1.0000 0.65220  0.71620  0.36346  Biso   1.000  Li
  Li8      1.0000 0.09620  0.81490  0.25544  Biso   1.000  Li
  Li9      1.0000 0.34970  0.20870  0.30853  Biso   1.000  Li
  Li10     1.0000 0.15660  0.74340  0.53233  Biso   1.000  Li
  O21      1.0000 0.55666  0.88522  0.37776  Biso   1.000  O
  O22      1.0000 0.54320  0.75693  0.35385  Biso   1.000  O
  C38      1.0000 0.52123  0.82966  0.35558  Biso   1.000  C
  O23      1.0000 0.29466  0.67362  0.26856  Biso   1.000  O
  O24      1.0000 0.20288  0.76386  0.24324  Biso   1.000  O
  C39      1.0000 0.26843  0.74446  0.26385  Biso   1.000  C
  O25      1.0000 0.27151  0.04683  0.25416  Biso   1.000  O
  O26      1.0000 0.36649  0.09485  0.30392  Biso   1.000  O
  C40      1.0000 0.33102  0.03895  0.28465  Biso   1.000  C
  C41      1.0000 0.44385  0.85253  0.32785  Biso   1.000  C
  C42      1.0000 0.39323  0.79112  0.30970  Biso   1.000  C
  H28      1.0000 0.40750  0.73590  0.31480  Biso   1.000  H
  C43      1.0000 0.32178  0.81045  0.28414  Biso   1.000  C
  C44      1.0000 0.30225  0.89132  0.27592  Biso   1.000  C
  H29      1.0000 0.25440  0.90480  0.25800  Biso   1.000  H
  C45      1.0000 0.35258  0.95279  0.29378  Biso   1.000  C
  C46      1.0000 0.42283  0.93307  0.32015  Biso   1.000  C
  H30      1.0000 0.45640  0.97510  0.33290  Biso   1.000  H
  O27      1.0000 0.70464  0.77141  0.41718  Biso   1.000  O
  O28      1.0000 0.83605  0.74240  0.40663  Biso   1.000  O
  C47      1.0000 0.77682  0.76010  0.43136  Biso   1.000  C
  O29      1.0000 0.04094  0.77020  0.53321  Biso   1.000  O
  O30      1.0000 0.99642  0.80240  0.60221  Biso   1.000  O
  C48      1.0000 0.98619  0.78310  0.55989  Biso   1.000  C
  O31      1.0000 0.70557  0.77687  0.63546  Biso   1.000  O
  O32      1.0000 0.61575  0.75182  0.57799  Biso   1.000  O
  C49      1.0000 0.68936  0.76645  0.59486  Biso   1.000  C
  C50      1.0000 0.79712  0.76560  0.48187  Biso   1.000  C
  C51      1.0000 0.87854  0.77022  0.49733  Biso   1.000  C
  H31      1.0000 0.92120  0.76850  0.47590  Biso   1.000  H
  C52      1.0000 0.89787  0.77740  0.54417  Biso   1.000  C
  C53      1.0000 0.83546  0.77692  0.57560  Biso   1.000  C
  H32      1.0000 0.84830  0.78190  0.60750  Biso   1.000  H
  C54      1.0000 0.75424  0.76915  0.56015  Biso   1.000  C
  C55      1.0000 0.73502  0.76452  0.51336  Biso   1.000  C
  H33      1.0000 0.67940  0.76060  0.50290  Biso   1.000  H
  O33      1.0000 0.71371  0.73040  0.30830  Biso   1.000  O
  O34      1.0000 0.84681  0.74540  0.32387  Biso   1.000  O
  C56      1.0000 0.78405  0.73840  0.29614  Biso   1.000  C
  O35      1.0000 0.04635  0.76341  0.20114  Biso   1.000  O
  O36      1.0000 0.99886  0.75340  0.12901  Biso   1.000  O
  C57      1.0000 0.98961  0.75591  0.17144  Biso   1.000  C
  O37      1.0000 0.70811  0.72940  0.09067  Biso   1.000  O
  O38      1.0000 0.62404  0.69250  0.14580  Biso   1.000  O
  C58      1.0000 0.69326  0.71500  0.13094  Biso   1.000  C
  C59      1.0000 0.80462  0.73830  0.24651  Biso   1.000  C
  C60      1.0000 0.88500  0.74921  0.23321  Biso   1.000  C
  H34      1.0000 0.92750  0.75720  0.25580  Biso   1.000  H
  C61      1.0000 0.90330  0.74845  0.18694  Biso   1.000  C
  C62      1.0000 0.83991  0.73680  0.15421  Biso   1.000  C
  H35      1.0000 0.85160  0.73690  0.12250  Biso   1.000  H
  C63      1.0000 0.75979  0.72490  0.16761  Biso   1.000  C
  C64      1.0000 0.74193  0.72560  0.21378  Biso   1.000  C
  H36      1.0000 0.68720  0.71750  0.22300  Biso   1.000  H
  O39      1.0000 0.08810  0.91710  0.26790  Biso   1.000  O
  C65      1.0000 0.05410  0.98200  0.25820  Biso   1.000  C
  C66      1.0000 0.99730  0.99070  0.21580  Biso   1.000  C
  H37      1.0000 0.94940  0.95400  0.21740  Biso   1.000  H
  H38      1.0000 0.02670  0.97960  0.18730  Biso   1.000  H
  C67      1.0000 0.97180  0.07990  0.21890  Biso   1.000  C
  H39      1.0000 0.98890  0.10940  0.19120  Biso   1.000  H
  H40      1.0000 0.91140  0.08390  0.22040  Biso   1.000  H
  C68      1.0000 0.01210  0.11770  0.26160  Biso   1.000  C
  H41      1.0000 0.04790  0.16380  0.25360  Biso   1.000  H
  H42      1.0000 0.97070  0.13650  0.28330  Biso   1.000  H
  N3       1.0000 0.05990  0.04980  0.28054  Biso   1.000  N
  C69      1.0000 0.10990  0.05830  0.32200  Biso   1.000  C
  H43      1.0000 0.10510  0.11380  0.33370  Biso   1.000  H
  H44      1.0000 0.16730  0.04700  0.31530  Biso   1.000  H
  H45      1.0000 0.09130  0.01980  0.34510  Biso   1.000  H
  O40      1.0000 0.07870  0.93610  0.24010  Biso   1.000  O
  C70      1.0000 0.07240  0.99760  0.26390  Biso   1.000  C
  C71      1.0000 0.10940  0.00300  0.31470  Biso   1.000  C
  H46      1.0000 0.08410  0.96210  0.33470  Biso   1.000  H
  H47      1.0000 0.16960  0.99470  0.31550  Biso   1.000  H
  C72      1.0000 0.08840  0.08650  0.32900  Biso   1.000  C
  H48      1.0000 0.13910  0.11750  0.33650  Biso   1.000  H
  H49      1.0000 0.05500  0.08470  0.35680  Biso   1.000  H
  C73      1.0000 0.04000  0.12770  0.28980  Biso   1.000  C
  H50      1.0000 0.98440  0.14320  0.29910  Biso   1.000  H
  H51      1.0000 0.06890  0.17650  0.27870  Biso   1.000  H
  N4       1.0000 0.03690  0.06500  0.25560  Biso   1.000  N
  C74      1.0000 0.00390  0.06690  0.20920  Biso   1.000  C
  H52      1.0000 0.97670  0.11910  0.20340  Biso   1.000  H
  H53      1.0000 0.96400  0.02280  0.20480  Biso   1.000  H
  H54      1.0000 0.04840  0.05990  0.18780  Biso   1.000  H
  Li11     1.0000 0.14390  0.62220  0.92264  Biso   1.000  Li
  Li12     1.0000 0.15220  0.78380  0.86346  Biso   1.000  Li
  Li13     1.0000 0.59620  0.68510  0.75544  Biso   1.000  Li
  Li14     1.0000 0.84970  0.29130  0.80853  Biso   1.000  Li
  Li15     1.0000 0.65660  0.75660  0.03233  Biso   1.000  Li
  O41      1.0000 0.05666  0.61478  0.87776  Biso   1.000  O
  O42      1.0000 0.04320  0.74307  0.85385  Biso   1.000  O
  C75      1.0000 0.02123  0.67034  0.85558  Biso   1.000  C
  O43      1.0000 0.79466  0.82638  0.76856  Biso   1.000  O
  O44      1.0000 0.70288  0.73614  0.74324  Biso   1.000  O
  C76      1.0000 0.76843  0.75554  0.76385  Biso   1.000  C
  O45      1.0000 0.77151  0.45317  0.75416  Biso   1.000  O
  O46      1.0000 0.86649  0.40515  0.80392  Biso   1.000  O
  C77      1.0000 0.83102  0.46105  0.78465  Biso   1.000  C
  C78      1.0000 0.94385  0.64747  0.82785  Biso   1.000  C
  C79      1.0000 0.89323  0.70888  0.80970  Biso   1.000  C
  H55      1.0000 0.90750  0.76410  0.81480  Biso   1.000  H
  C80      1.0000 0.82178  0.68955  0.78414  Biso   1.000  C
  C81      1.0000 0.80225  0.60868  0.77592  Biso   1.000  C
  H56      1.0000 0.75440  0.59520  0.75800  Biso   1.000  H
  C82      1.0000 0.85258  0.54721  0.79378  Biso   1.000  C
  C83      1.0000 0.92283  0.56693  0.82015  Biso   1.000  C
  H57      1.0000 0.95640  0.52490  0.83290  Biso   1.000  H
  O47      1.0000 0.20464  0.72859  0.91718  Biso   1.000  O
  O48      1.0000 0.33605  0.75760  0.90663  Biso   1.000  O
  C84      1.0000 0.27682  0.73990  0.93136  Biso   1.000  C
  O49      1.0000 0.54094  0.72980  0.03321  Biso   1.000  O
  O50      1.0000 0.49642  0.69760  0.10221  Biso   1.000  O
  C85      1.0000 0.48619  0.71690  0.05989  Biso   1.000  C
  O51      1.0000 0.20557  0.72313  0.13546  Biso   1.000  O
  O52      1.0000 0.11575  0.74818  0.07799  Biso   1.000  O
  C86      1.0000 0.18936  0.73355  0.09486  Biso   1.000  C
  C87      1.0000 0.29712  0.73440  0.98187  Biso   1.000  C
  C88      1.0000 0.37854  0.72978  0.99733  Biso   1.000  C
  H58      1.0000 0.42120  0.73150  0.97590  Biso   1.000  H
  C89      1.0000 0.39787  0.72260  0.04417  Biso   1.000  C
  C90      1.0000 0.33546  0.72308  0.07560  Biso   1.000  C
  H59      1.0000 0.34830  0.71810  0.10750  Biso   1.000  H
  C91      1.0000 0.25424  0.73085  0.06015  Biso   1.000  C
  C92      1.0000 0.23502  0.73548  0.01336  Biso   1.000  C
  H60      1.0000 0.17940  0.73940  0.00290  Biso   1.000  H
  O53      1.0000 0.21371  0.76960  0.80830  Biso   1.000  O
  O54      1.0000 0.34681  0.75460  0.82387  Biso   1.000  O
  C93      1.0000 0.28405  0.76160  0.79614  Biso   1.000  C
  O55      1.0000 0.54635  0.73659  0.70114  Biso   1.000  O
  O56      1.0000 0.49886  0.74660  0.62901  Biso   1.000  O
  C94      1.0000 0.48961  0.74409  0.67144  Biso   1.000  C
  O57      1.0000 0.20811  0.77060  0.59067  Biso   1.000  O
  O58      1.0000 0.12404  0.80750  0.64580  Biso   1.000  O
  C95      1.0000 0.19326  0.78500  0.63094  Biso   1.000  C
  C96      1.0000 0.30462  0.76170  0.74651  Biso   1.000  C
  C97      1.0000 0.38500  0.75079  0.73321  Biso   1.000  C
  H61      1.0000 0.42750  0.74280  0.75580  Biso   1.000  H
  C98      1.0000 0.40330  0.75155  0.68694  Biso   1.000  C
  C99      1.0000 0.33991  0.76320  0.65421  Biso   1.000  C
  H62      1.0000 0.35160  0.76310  0.62250  Biso   1.000  H
  C100     1.0000 0.25979  0.77510  0.66761  Biso   1.000  C
  C101     1.0000 0.24193  0.77440  0.71378  Biso   1.000  C
  H63      1.0000 0.18720  0.78250  0.72300  Biso   1.000  H
  O59      1.0000 0.58810  0.58290  0.76790  Biso   1.000  O
  C102     1.0000 0.55410  0.51800  0.75820  Biso   1.000  C
  C103     1.0000 0.49730  0.50930  0.71580  Biso   1.000  C
  H64      1.0000 0.44940  0.54600  0.71740  Biso   1.000  H
  H65      1.0000 0.52670  0.52040  0.68730  Biso   1.000  H
  C104     1.0000 0.47180  0.42010  0.71890  Biso   1.000  C
  H66      1.0000 0.48890  0.39060  0.69120  Biso   1.000  H
  H67      1.0000 0.41140  0.41610  0.72040  Biso   1.000  H
  C105     1.0000 0.51210  0.38230  0.76160  Biso   1.000  C
  H68      1.0000 0.54790  0.33620  0.75360  Biso   1.000  H
  H69      1.0000 0.47070  0.36350  0.78330  Biso   1.000  H
  N5       1.0000 0.55990  0.45020  0.78054  Biso   1.000  N
  C106     1.0000 0.60990  0.44170  0.82200  Biso   1.000  C
  H70      1.0000 0.60510  0.38620  0.83370  Biso   1.000  H
  H71      1.0000 0.66730  0.45300  0.81530  Biso   1.000  H
  H72      1.0000 0.59130  0.48020  0.84510  Biso   1.000  H
  O60      1.0000 0.57870  0.56390  0.74010  Biso   1.000  O
  C107     1.0000 0.57240  0.50240  0.76390  Biso   1.000  C
  C108     1.0000 0.60940  0.49700  0.81470  Biso   1.000  C
  H73      1.0000 0.58410  0.53790  0.83470  Biso   1.000  H
  H74      1.0000 0.66960  0.50530  0.81550  Biso   1.000  H
  C109     1.0000 0.58840  0.41350  0.82900  Biso   1.000  C
  H75      1.0000 0.63910  0.38250  0.83650  Biso   1.000  H
  H76      1.0000 0.55500  0.41530  0.85680  Biso   1.000  H
  C110     1.0000 0.54000  0.37230  0.78980  Biso   1.000  C
  H77      1.0000 0.48440  0.35680  0.79910  Biso   1.000  H
  H78      1.0000 0.56890  0.32350  0.77870  Biso   1.000  H
  N6       1.0000 0.53690  0.43500  0.75560  Biso   1.000  N
  C111     1.0000 0.50390  0.43310  0.70920  Biso   1.000  C
  H79      1.0000 0.47670  0.38090  0.70340  Biso   1.000  H
  H80      1.0000 0.46400  0.47720  0.70480  Biso   1.000  H
  H81      1.0000 0.54840  0.44010  0.68780  Biso   1.000  H
  Li16     1.0000 0.35610  0.12220  0.57736  Biso   1.000  Li
  Li17     1.0000 0.34780  0.28380  0.63654  Biso   1.000  Li
  Li18     1.0000 0.90380  0.18510  0.74456  Biso   1.000  Li
  Li19     1.0000 0.65030  0.79130  0.69147  Biso   1.000  Li
  Li20     1.0000 0.84340  0.25660  0.46767  Biso   1.000  Li
  O61      1.0000 0.44334  0.11478  0.62224  Biso   1.000  O
  O62      1.0000 0.45680  0.24307  0.64615  Biso   1.000  O
  C112     1.0000 0.47877  0.17034  0.64442  Biso   1.000  C
  O63      1.0000 0.70534  0.32638  0.73144  Biso   1.000  O
  O64      1.0000 0.79712  0.23614  0.75676  Biso   1.000  O
  C113     1.0000 0.73157  0.25554  0.73615  Biso   1.000  C
  O65      1.0000 0.72849  0.95317  0.74584  Biso   1.000  O
  O66      1.0000 0.63351  0.90515  0.69608  Biso   1.000  O
  C114     1.0000 0.66898  0.96105  0.71535  Biso   1.000  C
  C115     1.0000 0.55615  0.14747  0.67215  Biso   1.000  C
  C116     1.0000 0.60677  0.20888  0.69030  Biso   1.000  C
  H82      1.0000 0.59250  0.26410  0.68520  Biso   1.000  H
  C117     1.0000 0.67822  0.18955  0.71586  Biso   1.000  C
  C118     1.0000 0.69775  0.10868  0.72408  Biso   1.000  C
  H83      1.0000 0.74560  0.09520  0.74200  Biso   1.000  H
  C119     1.0000 0.64742  0.04721  0.70622  Biso   1.000  C
  C120     1.0000 0.57717  0.06693  0.67985  Biso   1.000  C
  H84      1.0000 0.54360  0.02490  0.66710  Biso   1.000  H
  O67      1.0000 0.29536  0.22859  0.58282  Biso   1.000  O
  O68      1.0000 0.16395  0.25760  0.59337  Biso   1.000  O
  C121     1.0000 0.22318  0.23990  0.56864  Biso   1.000  C
  O69      1.0000 0.95906  0.22980  0.46679  Biso   1.000  O
  O70      1.0000 0.00358  0.19760  0.39779  Biso   1.000  O
  C122     1.0000 0.01381  0.21690  0.44011  Biso   1.000  C
  O71      1.0000 0.29443  0.22313  0.36454  Biso   1.000  O
  O72      1.0000 0.38425  0.24818  0.42201  Biso   1.000  O
  C123     1.0000 0.31064  0.23355  0.40514  Biso   1.000  C
  C124     1.0000 0.20288  0.23440  0.51813  Biso   1.000  C
  C125     1.0000 0.12146  0.22978  0.50267  Biso   1.000  C
  H85      1.0000 0.07880  0.23150  0.52410  Biso   1.000  H
  C126     1.0000 0.10213  0.22260  0.45583  Biso   1.000  C
  C127     1.0000 0.16454  0.22308  0.42440  Biso   1.000  C
  H86      1.0000 0.15170  0.21810  0.39250  Biso   1.000  H
  C128     1.0000 0.24576  0.23085  0.43985  Biso   1.000  C
  C129     1.0000 0.26498  0.23548  0.48664  Biso   1.000  C
  H87      1.0000 0.32060  0.23940  0.49710  Biso   1.000  H
  O73      1.0000 0.28629  0.26960  0.69170  Biso   1.000  O
  O74      1.0000 0.15319  0.25460  0.67613  Biso   1.000  O
  C130     1.0000 0.21595  0.26160  0.70386  Biso   1.000  C
  O75      1.0000 0.95365  0.23659  0.79886  Biso   1.000  O
  O76      1.0000 0.00114  0.24660  0.87099  Biso   1.000  O
  C131     1.0000 0.01039  0.24409  0.82856  Biso   1.000  C
  O77      1.0000 0.29189  0.27060  0.90933  Biso   1.000  O
  O78      1.0000 0.37596  0.30750  0.85420  Biso   1.000  O
  C132     1.0000 0.30674  0.28500  0.86906  Biso   1.000  C
  C133     1.0000 0.19538  0.26170  0.75349  Biso   1.000  C
  C134     1.0000 0.11500  0.25079  0.76679  Biso   1.000  C
  H88      1.0000 0.07250  0.24280  0.74420  Biso   1.000  H
  C135     1.0000 0.09670  0.25155  0.81306  Biso   1.000  C
  C136     1.0000 0.16009  0.26320  0.84579  Biso   1.000  C
  H89      1.0000 0.14840  0.26310  0.87750  Biso   1.000  H
  C137     1.0000 0.24021  0.27510  0.83239  Biso   1.000  C
  C138     1.0000 0.25807  0.27440  0.78622  Biso   1.000  C
  H90      1.0000 0.31280  0.28250  0.77700  Biso   1.000  H
  O79      1.0000 0.91190  0.08290  0.73210  Biso   1.000  O
  C139     1.0000 0.94590  0.01800  0.74180  Biso   1.000  C
  C140     1.0000 0.00270  0.00930  0.78420  Biso   1.000  C
  H91      1.0000 0.05060  0.04600  0.78260  Biso   1.000  H
  H92      1.0000 0.97330  0.02040  0.81270  Biso   1.000  H
  C141     1.0000 0.02820  0.92010  0.78110  Biso   1.000  C
  H93      1.0000 0.01110  0.89060  0.80880  Biso   1.000  H
  H94      1.0000 0.08860  0.91610  0.77960  Biso   1.000  H
  C142     1.0000 0.98790  0.88230  0.73840  Biso   1.000  C
  H95      1.0000 0.95210  0.83620  0.74640  Biso   1.000  H
  H96      1.0000 0.02930  0.86350  0.71670  Biso   1.000  H
  N7       1.0000 0.94010  0.95020  0.71946  Biso   1.000  N
  C143     1.0000 0.89010  0.94170  0.67800  Biso   1.000  C
  H97      1.0000 0.89490  0.88620  0.66630  Biso   1.000  H
  H98      1.0000 0.83270  0.95300  0.68470  Biso   1.000  H
  H99      1.0000 0.90870  0.98020  0.65490  Biso   1.000  H
  O80      1.0000 0.92130  0.06390  0.75990  Biso   1.000  O
  C144     1.0000 0.92760  0.00240  0.73610  Biso   1.000  C
  C145     1.0000 0.89060  0.99700  0.68530  Biso   1.000  C
  H100     1.0000 0.91590  0.03790  0.66530  Biso   1.000  H
  H101     1.0000 0.83040  0.00530  0.68450  Biso   1.000  H
  C146     1.0000 0.91160  0.91350  0.67100  Biso   1.000  C
  H102     1.0000 0.86090  0.88250  0.66350  Biso   1.000  H
  H103     1.0000 0.94500  0.91530  0.64320  Biso   1.000  H
  C147     1.0000 0.96000  0.87230  0.71020  Biso   1.000  C
  H104     1.0000 0.01560  0.85680  0.70090  Biso   1.000  H
  H105     1.0000 0.93110  0.82350  0.72130  Biso   1.000  H
  N8       1.0000 0.96310  0.93500  0.74440  Biso   1.000  N
  C148     1.0000 0.99610  0.93310  0.79080  Biso   1.000  C
  H106     1.0000 0.02330  0.88090  0.79660  Biso   1.000  H
  H107     1.0000 0.03600  0.97720  0.79520  Biso   1.000  H
  H108     1.0000 0.95160  0.94010  0.81220  Biso   1.000  H
