data_image0
_cell_length_a       15.4272
_cell_length_b       29.416
_cell_length_c       16.356
_cell_angle_alpha    90
_cell_angle_beta     94.595
_cell_angle_gamma    90

_symmetry_space_group_name_H-M    "P 1"
_symmetry_int_tables_number       1

loop_
  _symmetry_equiv_pos_as_xyz
  'x, y, z'

loop_
  _atom_site_label
  _atom_site_occupancy
  _atom_site_fract_x
  _atom_site_fract_y
  _atom_site_fract_z
  _atom_site_thermal_displace_type
  _atom_site_B_iso_or_equiv
  _atom_site_type_symbol
  Zn1      1.0000 0.28095  0.15656  0.32783  Biso   1.000  Zn
  Zn2      1.0000 0.27459  0.48553  0.79747  Biso   1.000  Zn
  O1       1.0000 0.45480  0.20908  0.32010  Biso   1.000  O
  O2       1.0000 0.31824  0.21801  0.35085  Biso   1.000  O
  O3       1.0000 0.66030  0.33478  0.35250  Biso   1.000  O
  O4       1.0000 0.60820  0.40551  0.34690  Biso   1.000  O
  O5       1.0000 0.22792  0.36718  0.28459  Biso   1.000  O
  O6       1.0000 0.10714  0.34235  0.33872  Biso   1.000  O
  O7       1.0000 0.36760  0.47806  0.64480  Biso   1.000  O
  O8       1.0000 0.25640  0.44726  0.70260  Biso   1.000  O
  O9       1.0000 0.86780  0.42186  0.63580  Biso   1.000  O
  O10      1.0000 0.83220  0.49431  0.65300  Biso   1.000  O
  O11      1.0000 0.05440  0.60786  0.68530  Biso   1.000  O
  O12      1.0000 0.16978  0.60370  0.61148  Biso   1.000  O
  O13      1.0000 0.29390  0.54884  0.75660  Biso   1.000  O
  O14      1.0000 0.36150  0.45910  0.87360  Biso   1.000  O
  C1       1.0000 0.39370  0.23223  0.34240  Biso   1.000  C
  C2       1.0000 0.49410  0.29915  0.35140  Biso   1.000  C
  H1       1.0000 0.53770  0.28050  0.33070  Biso   1.000  H
  C3       1.0000 0.51140  0.34428  0.36940  Biso   1.000  C
  C4       1.0000 0.59980  0.36369  0.35550  Biso   1.000  C
  C5       1.0000 0.44790  0.37196  0.39970  Biso   1.000  C
  H2       1.0000 0.46000  0.40310  0.41100  Biso   1.000  H
  C6       1.0000 0.36700  0.35407  0.41350  Biso   1.000  C
  C7       1.0000 0.34880  0.30846  0.39360  Biso   1.000  C
  H3       1.0000 0.29290  0.29620  0.40080  Biso   1.000  H
  C8       1.0000 0.41290  0.28106  0.36340  Biso   1.000  C
  C9       1.0000 0.30070  0.38205  0.45090  Biso   1.000  C
  C10      1.0000 0.21290  0.38270  0.42320  Biso   1.000  C
  C11      1.0000 0.17860  0.36170  0.34340  Biso   1.000  C
  C12      1.0000 0.15370  0.40792  0.46490  Biso   1.000  C
  H4       1.0000 0.09390  0.40720  0.44570  Biso   1.000  H
  C13      1.0000 0.17910  0.43386  0.53330  Biso   1.000  C
  C14      1.0000 0.26720  0.43243  0.56290  Biso   1.000  C
  C15      1.0000 0.32630  0.40701  0.52170  Biso   1.000  C
  H5       1.0000 0.38570  0.40660  0.54230  Biso   1.000  H
  C16      1.0000 0.29990  0.45458  0.64200  Biso   1.000  C
  C17      1.0000 0.11640  0.46434  0.57020  Biso   1.000  C
  C18      1.0000 0.03430  0.44870  0.58750  Biso   1.000  C
  H6       1.0000 0.01780  0.41820  0.57510  Biso   1.000  H
  C19      1.0000 0.97630  0.47795  0.62300  Biso   1.000  C
  C20      1.0000 0.88630  0.46328  0.63840  Biso   1.000  C
  C21      1.0000 0.99970  0.52251  0.64080  Biso   1.000  C
  H7       1.0000 0.96070  0.54200  0.66620  Biso   1.000  H
  C22      1.0000 0.08040  0.53884  0.62160  Biso   1.000  C
  C23      1.0000 0.10280  0.58700  0.64020  Biso   1.000  C
  C24      1.0000 0.13810  0.51021  0.58550  Biso   1.000  C
  H8       1.0000 0.19240  0.52170  0.57110  Biso   1.000  H
  H9       1.0000 0.35140  0.55350  0.77790  Biso   1.000  H
  H10      1.0000 0.27630  0.57790  0.76040  Biso   1.000  H
  Zn3      1.0000 0.38035  0.49318  0.77167  Biso   1.000  Zn
  O15      1.0000 0.39360  0.48500  0.85020  Biso   1.000  O
  Zn4      1.0000 0.78095  0.65656  0.82783  Biso   1.000  Zn
  Zn5      1.0000 0.77459  0.98553  0.29747  Biso   1.000  Zn
  O16      1.0000 0.95480  0.70908  0.82010  Biso   1.000  O
  O17      1.0000 0.81824  0.71801  0.85085  Biso   1.000  O
  O18      1.0000 0.16030  0.83478  0.85250  Biso   1.000  O
  O19      1.0000 0.10820  0.90551  0.84690  Biso   1.000  O
  O20      1.0000 0.72792  0.86718  0.78459  Biso   1.000  O
  O21      1.0000 0.60714  0.84235  0.83872  Biso   1.000  O
  O22      1.0000 0.86760  0.97806  0.14480  Biso   1.000  O
  O23      1.0000 0.75640  0.94726  0.20260  Biso   1.000  O
  O24      1.0000 0.36780  0.92186  0.13580  Biso   1.000  O
  O25      1.0000 0.33220  0.99431  0.15300  Biso   1.000  O
  O26      1.0000 0.55440  0.10786  0.18530  Biso   1.000  O
  O27      1.0000 0.66978  0.10370  0.11148  Biso   1.000  O
  O28      1.0000 0.79390  0.04884  0.25660  Biso   1.000  O
  O29      1.0000 0.86150  0.95910  0.37360  Biso   1.000  O
  C25      1.0000 0.89370  0.73223  0.84240  Biso   1.000  C
  C26      1.0000 0.99410  0.79915  0.85140  Biso   1.000  C
  H11      1.0000 0.03770  0.78050  0.83070  Biso   1.000  H
  C27      1.0000 0.01140  0.84428  0.86940  Biso   1.000  C
  C28      1.0000 0.09980  0.86369  0.85550  Biso   1.000  C
  C29      1.0000 0.94790  0.87196  0.89970  Biso   1.000  C
  H12      1.0000 0.96000  0.90310  0.91100  Biso   1.000  H
  C30      1.0000 0.86700  0.85407  0.91350  Biso   1.000  C
  C31      1.0000 0.84880  0.80846  0.89360  Biso   1.000  C
  H13      1.0000 0.79290  0.79620  0.90080  Biso   1.000  H
  C32      1.0000 0.91290  0.78106  0.86340  Biso   1.000  C
  C33      1.0000 0.80070  0.88205  0.95090  Biso   1.000  C
  C34      1.0000 0.71290  0.88270  0.92320  Biso   1.000  C
  C35      1.0000 0.67860  0.86170  0.84340  Biso   1.000  C
  C36      1.0000 0.65370  0.90792  0.96490  Biso   1.000  C
  H14      1.0000 0.59390  0.90720  0.94570  Biso   1.000  H
  C37      1.0000 0.67910  0.93386  0.03330  Biso   1.000  C
  C38      1.0000 0.76720  0.93243  0.06290  Biso   1.000  C
  C39      1.0000 0.82630  0.90701  0.02170  Biso   1.000  C
  H15      1.0000 0.88570  0.90660  0.04230  Biso   1.000  H
  C40      1.0000 0.79990  0.95458  0.14200  Biso   1.000  C
  C41      1.0000 0.61640  0.96434  0.07020  Biso   1.000  C
  C42      1.0000 0.53430  0.94870  0.08750  Biso   1.000  C
  H16      1.0000 0.51780  0.91820  0.07510  Biso   1.000  H
  C43      1.0000 0.47630  0.97795  0.12300  Biso   1.000  C
  C44      1.0000 0.38630  0.96328  0.13840  Biso   1.000  C
  C45      1.0000 0.49970  0.02251  0.14080  Biso   1.000  C
  H17      1.0000 0.46070  0.04200  0.16620  Biso   1.000  H
  C46      1.0000 0.58040  0.03884  0.12160  Biso   1.000  C
  C47      1.0000 0.60280  0.08700  0.14020  Biso   1.000  C
  C48      1.0000 0.63810  0.01021  0.08550  Biso   1.000  C
  H18      1.0000 0.69240  0.02170  0.07110  Biso   1.000  H
  H19      1.0000 0.85140  0.05350  0.27790  Biso   1.000  H
  H20      1.0000 0.77630  0.07790  0.26040  Biso   1.000  H
  Zn6      1.0000 0.88035  0.99318  0.27167  Biso   1.000  Zn
  O30      1.0000 0.89360  0.98500  0.35020  Biso   1.000  O
  Zn7      1.0000 0.71905  0.15656  0.17217  Biso   1.000  Zn
  Zn8      1.0000 0.72541  0.48553  0.70253  Biso   1.000  Zn
  O31      1.0000 0.54520  0.20908  0.17990  Biso   1.000  O
  O32      1.0000 0.68176  0.21801  0.14915  Biso   1.000  O
  O33      1.0000 0.33970  0.33478  0.14750  Biso   1.000  O
  O34      1.0000 0.39180  0.40551  0.15310  Biso   1.000  O
  O35      1.0000 0.77208  0.36718  0.21541  Biso   1.000  O
  O36      1.0000 0.89286  0.34235  0.16128  Biso   1.000  O
  O37      1.0000 0.63240  0.47806  0.85520  Biso   1.000  O
  O38      1.0000 0.74360  0.44726  0.79740  Biso   1.000  O
  O39      1.0000 0.13220  0.42186  0.86420  Biso   1.000  O
  O40      1.0000 0.16780  0.49431  0.84700  Biso   1.000  O
  O41      1.0000 0.94560  0.60786  0.81470  Biso   1.000  O
  O42      1.0000 0.83022  0.60370  0.88852  Biso   1.000  O
  O43      1.0000 0.70610  0.54884  0.74340  Biso   1.000  O
  O44      1.0000 0.63850  0.45910  0.62640  Biso   1.000  O
  C49      1.0000 0.60630  0.23223  0.15760  Biso   1.000  C
  C50      1.0000 0.50590  0.29915  0.14860  Biso   1.000  C
  H21      1.0000 0.46230  0.28050  0.16930  Biso   1.000  H
  C51      1.0000 0.48860  0.34428  0.13060  Biso   1.000  C
  C52      1.0000 0.40020  0.36369  0.14450  Biso   1.000  C
  C53      1.0000 0.55210  0.37196  0.10030  Biso   1.000  C
  H22      1.0000 0.54000  0.40310  0.08900  Biso   1.000  H
  C54      1.0000 0.63300  0.35407  0.08650  Biso   1.000  C
  C55      1.0000 0.65120  0.30846  0.10640  Biso   1.000  C
  H23      1.0000 0.70710  0.29620  0.09920  Biso   1.000  H
  C56      1.0000 0.58710  0.28106  0.13660  Biso   1.000  C
  C57      1.0000 0.69930  0.38205  0.04910  Biso   1.000  C
  C58      1.0000 0.78710  0.38270  0.07680  Biso   1.000  C
  C59      1.0000 0.82140  0.36170  0.15660  Biso   1.000  C
  C60      1.0000 0.84630  0.40792  0.03510  Biso   1.000  C
  H24      1.0000 0.90610  0.40720  0.05430  Biso   1.000  H
  C61      1.0000 0.82090  0.43386  0.96670  Biso   1.000  C
  C62      1.0000 0.73280  0.43243  0.93710  Biso   1.000  C
  C63      1.0000 0.67370  0.40701  0.97830  Biso   1.000  C
  H25      1.0000 0.61430  0.40660  0.95770  Biso   1.000  H
  C64      1.0000 0.70010  0.45458  0.85800  Biso   1.000  C
  C65      1.0000 0.88360  0.46434  0.92980  Biso   1.000  C
  C66      1.0000 0.96570  0.44870  0.91250  Biso   1.000  C
  H26      1.0000 0.98220  0.41820  0.92490  Biso   1.000  H
  C67      1.0000 0.02370  0.47795  0.87700  Biso   1.000  C
  C68      1.0000 0.11370  0.46328  0.86160  Biso   1.000  C
  C69      1.0000 0.00030  0.52251  0.85920  Biso   1.000  C
  H27      1.0000 0.03930  0.54200  0.83380  Biso   1.000  H
  C70      1.0000 0.91960  0.53884  0.87840  Biso   1.000  C
  C71      1.0000 0.89720  0.58700  0.85980  Biso   1.000  C
  C72      1.0000 0.86190  0.51021  0.91450  Biso   1.000  C
  H28      1.0000 0.80760  0.52170  0.92890  Biso   1.000  H
  H29      1.0000 0.64860  0.55350  0.72210  Biso   1.000  H
  H30      1.0000 0.72370  0.57790  0.73960  Biso   1.000  H
  Zn9      1.0000 0.61965  0.49318  0.72833  Biso   1.000  Zn
  O45      1.0000 0.60640  0.48500  0.64980  Biso   1.000  O
  Zn10     1.0000 0.21905  0.65656  0.67217  Biso   1.000  Zn
  Zn11     1.0000 0.22541  0.98553  0.20253  Biso   1.000  Zn
  O46      1.0000 0.04520  0.70908  0.67990  Biso   1.000  O
  O47      1.0000 0.18176  0.71801  0.64915  Biso   1.000  O
  O48      1.0000 0.83970  0.83478  0.64750  Biso   1.000  O
  O49      1.0000 0.89180  0.90551  0.65310  Biso   1.000  O
  O50      1.0000 0.27208  0.86718  0.71541  Biso   1.000  O
  O51      1.0000 0.39286  0.84235  0.66128  Biso   1.000  O
  O52      1.0000 0.13240  0.97806  0.35520  Biso   1.000  O
  O53      1.0000 0.24360  0.94726  0.29740  Biso   1.000  O
  O54      1.0000 0.63220  0.92186  0.36420  Biso   1.000  O
  O55      1.0000 0.66780  0.99431  0.34700  Biso   1.000  O
  O56      1.0000 0.44560  0.10786  0.31470  Biso   1.000  O
  O57      1.0000 0.33022  0.10370  0.38852  Biso   1.000  O
  O58      1.0000 0.20610  0.04884  0.24340  Biso   1.000  O
  O59      1.0000 0.13850  0.95910  0.12640  Biso   1.000  O
  C73      1.0000 0.10630  0.73223  0.65760  Biso   1.000  C
  C74      1.0000 0.00590  0.79915  0.64860  Biso   1.000  C
  H31      1.0000 0.96230  0.78050  0.66930  Biso   1.000  H
  C75      1.0000 0.98860  0.84428  0.63060  Biso   1.000  C
  C76      1.0000 0.90020  0.86369  0.64450  Biso   1.000  C
  C77      1.0000 0.05210  0.87196  0.60030  Biso   1.000  C
  H32      1.0000 0.04000  0.90310  0.58900  Biso   1.000  H
  C78      1.0000 0.13300  0.85407  0.58650  Biso   1.000  C
  C79      1.0000 0.15120  0.80846  0.60640  Biso   1.000  C
  H33      1.0000 0.20710  0.79620  0.59920  Biso   1.000  H
  C80      1.0000 0.08710  0.78106  0.63660  Biso   1.000  C
  C81      1.0000 0.19930  0.88205  0.54910  Biso   1.000  C
  C82      1.0000 0.28710  0.88270  0.57680  Biso   1.000  C
  C83      1.0000 0.32140  0.86170  0.65660  Biso   1.000  C
  C84      1.0000 0.34630  0.90792  0.53510  Biso   1.000  C
  H34      1.0000 0.40610  0.90720  0.55430  Biso   1.000  H
  C85      1.0000 0.32090  0.93386  0.46670  Biso   1.000  C
  C86      1.0000 0.23280  0.93243  0.43710  Biso   1.000  C
  C87      1.0000 0.17370  0.90701  0.47830  Biso   1.000  C
  H35      1.0000 0.11430  0.90660  0.45770  Biso   1.000  H
  C88      1.0000 0.20010  0.95458  0.35800  Biso   1.000  C
  C89      1.0000 0.38360  0.96434  0.42980  Biso   1.000  C
  C90      1.0000 0.46570  0.94870  0.41250  Biso   1.000  C
  H36      1.0000 0.48220  0.91820  0.42490  Biso   1.000  H
  C91      1.0000 0.52370  0.97795  0.37700  Biso   1.000  C
  C92      1.0000 0.61370  0.96328  0.36160  Biso   1.000  C
  C93      1.0000 0.50030  0.02251  0.35920  Biso   1.000  C
  H37      1.0000 0.53930  0.04200  0.33380  Biso   1.000  H
  C94      1.0000 0.41960  0.03884  0.37840  Biso   1.000  C
  C95      1.0000 0.39720  0.08700  0.35980  Biso   1.000  C
  C96      1.0000 0.36190  0.01021  0.41450  Biso   1.000  C
  H38      1.0000 0.30760  0.02170  0.42890  Biso   1.000  H
  H39      1.0000 0.14860  0.05350  0.22210  Biso   1.000  H
  H40      1.0000 0.22370  0.07790  0.23960  Biso   1.000  H
  Zn12     1.0000 0.11965  0.99318  0.22833  Biso   1.000  Zn
  O60      1.0000 0.10640  0.98500  0.14980  Biso   1.000  O
  Zn13     1.0000 0.71905  0.84344  0.67217  Biso   1.000  Zn
  Zn14     1.0000 0.72541  0.51447  0.20253  Biso   1.000  Zn
  O61      1.0000 0.54520  0.79092  0.67990  Biso   1.000  O
  O62      1.0000 0.68176  0.78199  0.64915  Biso   1.000  O
  O63      1.0000 0.33970  0.66522  0.64750  Biso   1.000  O
  O64      1.0000 0.39180  0.59449  0.65310  Biso   1.000  O
  O65      1.0000 0.77208  0.63282  0.71541  Biso   1.000  O
  O66      1.0000 0.89286  0.65765  0.66128  Biso   1.000  O
  O67      1.0000 0.63240  0.52194  0.35520  Biso   1.000  O
  O68      1.0000 0.74360  0.55274  0.29740  Biso   1.000  O
  O69      1.0000 0.13220  0.57814  0.36420  Biso   1.000  O
  O70      1.0000 0.16780  0.50569  0.34700  Biso   1.000  O
  O71      1.0000 0.94560  0.39214  0.31470  Biso   1.000  O
  O72      1.0000 0.83022  0.39630  0.38852  Biso   1.000  O
  O73      1.0000 0.70610  0.45116  0.24340  Biso   1.000  O
  O74      1.0000 0.63850  0.54090  0.12640  Biso   1.000  O
  C97      1.0000 0.60630  0.76777  0.65760  Biso   1.000  C
  C98      1.0000 0.50590  0.70085  0.64860  Biso   1.000  C
  H41      1.0000 0.46230  0.71950  0.66930  Biso   1.000  H
  C99      1.0000 0.48860  0.65572  0.63060  Biso   1.000  C
  C100     1.0000 0.40020  0.63631  0.64450  Biso   1.000  C
  C101     1.0000 0.55210  0.62804  0.60030  Biso   1.000  C
  H42      1.0000 0.54000  0.59690  0.58900  Biso   1.000  H
  C102     1.0000 0.63300  0.64593  0.58650  Biso   1.000  C
  C103     1.0000 0.65120  0.69154  0.60640  Biso   1.000  C
  H43      1.0000 0.70710  0.70380  0.59920  Biso   1.000  H
  C104     1.0000 0.58710  0.71894  0.63660  Biso   1.000  C
  C105     1.0000 0.69930  0.61795  0.54910  Biso   1.000  C
  C106     1.0000 0.78710  0.61730  0.57680  Biso   1.000  C
  C107     1.0000 0.82140  0.63830  0.65660  Biso   1.000  C
  C108     1.0000 0.84630  0.59208  0.53510  Biso   1.000  C
  H44      1.0000 0.90610  0.59280  0.55430  Biso   1.000  H
  C109     1.0000 0.82090  0.56614  0.46670  Biso   1.000  C
  C110     1.0000 0.73280  0.56757  0.43710  Biso   1.000  C
  C111     1.0000 0.67370  0.59299  0.47830  Biso   1.000  C
  H45      1.0000 0.61430  0.59340  0.45770  Biso   1.000  H
  C112     1.0000 0.70010  0.54542  0.35800  Biso   1.000  C
  C113     1.0000 0.88360  0.53566  0.42980  Biso   1.000  C
  C114     1.0000 0.96570  0.55130  0.41250  Biso   1.000  C
  H46      1.0000 0.98220  0.58180  0.42490  Biso   1.000  H
  C115     1.0000 0.02370  0.52205  0.37700  Biso   1.000  C
  C116     1.0000 0.11370  0.53672  0.36160  Biso   1.000  C
  C117     1.0000 0.00030  0.47749  0.35920  Biso   1.000  C
  H47      1.0000 0.03930  0.45800  0.33380  Biso   1.000  H
  C118     1.0000 0.91960  0.46116  0.37840  Biso   1.000  C
  C119     1.0000 0.89720  0.41300  0.35980  Biso   1.000  C
  C120     1.0000 0.86190  0.48979  0.41450  Biso   1.000  C
  H48      1.0000 0.80760  0.47830  0.42890  Biso   1.000  H
  H49      1.0000 0.64860  0.44650  0.22210  Biso   1.000  H
  H50      1.0000 0.72370  0.42210  0.23960  Biso   1.000  H
  Zn15     1.0000 0.61965  0.50682  0.22833  Biso   1.000  Zn
  O75      1.0000 0.60640  0.51500  0.14980  Biso   1.000  O
  Zn16     1.0000 0.21905  0.34344  0.17217  Biso   1.000  Zn
  Zn17     1.0000 0.22541  0.01447  0.70253  Biso   1.000  Zn
  O76      1.0000 0.04520  0.29092  0.17990  Biso   1.000  O
  O77      1.0000 0.18176  0.28199  0.14915  Biso   1.000  O
  O78      1.0000 0.83970  0.16522  0.14750  Biso   1.000  O
  O79      1.0000 0.89180  0.09449  0.15310  Biso   1.000  O
  O80      1.0000 0.27208  0.13282  0.21541  Biso   1.000  O
  O81      1.0000 0.39286  0.15765  0.16128  Biso   1.000  O
  O82      1.0000 0.13240  0.02194  0.85520  Biso   1.000  O
  O83      1.0000 0.24360  0.05274  0.79740  Biso   1.000  O
  O84      1.0000 0.63220  0.07814  0.86420  Biso   1.000  O
  O85      1.0000 0.66780  0.00569  0.84700  Biso   1.000  O
  O86      1.0000 0.44560  0.89214  0.81470  Biso   1.000  O
  O87      1.0000 0.33022  0.89630  0.88852  Biso   1.000  O
  O88      1.0000 0.20610  0.95116  0.74340  Biso   1.000  O
  O89      1.0000 0.13850  0.04090  0.62640  Biso   1.000  O
  C121     1.0000 0.10630  0.26777  0.15760  Biso   1.000  C
  C122     1.0000 0.00590  0.20085  0.14860  Biso   1.000  C
  H51      1.0000 0.96230  0.21950  0.16930  Biso   1.000  H
  C123     1.0000 0.98860  0.15572  0.13060  Biso   1.000  C
  C124     1.0000 0.90020  0.13631  0.14450  Biso   1.000  C
  C125     1.0000 0.05210  0.12804  0.10030  Biso   1.000  C
  H52      1.0000 0.04000  0.09690  0.08900  Biso   1.000  H
  C126     1.0000 0.13300  0.14593  0.08650  Biso   1.000  C
  C127     1.0000 0.15120  0.19154  0.10640  Biso   1.000  C
  H53      1.0000 0.20710  0.20380  0.09920  Biso   1.000  H
  C128     1.0000 0.08710  0.21894  0.13660  Biso   1.000  C
  C129     1.0000 0.19930  0.11795  0.04910  Biso   1.000  C
  C130     1.0000 0.28710  0.11730  0.07680  Biso   1.000  C
  C131     1.0000 0.32140  0.13830  0.15660  Biso   1.000  C
  C132     1.0000 0.34630  0.09208  0.03510  Biso   1.000  C
  H54      1.0000 0.40610  0.09280  0.05430  Biso   1.000  H
  C133     1.0000 0.32090  0.06614  0.96670  Biso   1.000  C
  C134     1.0000 0.23280  0.06757  0.93710  Biso   1.000  C
  C135     1.0000 0.17370  0.09299  0.97830  Biso   1.000  C
  H55      1.0000 0.11430  0.09340  0.95770  Biso   1.000  H
  C136     1.0000 0.20010  0.04542  0.85800  Biso   1.000  C
  C137     1.0000 0.38360  0.03566  0.92980  Biso   1.000  C
  C138     1.0000 0.46570  0.05130  0.91250  Biso   1.000  C
  H56      1.0000 0.48220  0.08180  0.92490  Biso   1.000  H
  C139     1.0000 0.52370  0.02205  0.87700  Biso   1.000  C
  C140     1.0000 0.61370  0.03672  0.86160  Biso   1.000  C
  C141     1.0000 0.50030  0.97749  0.85920  Biso   1.000  C
  H57      1.0000 0.53930  0.95800  0.83380  Biso   1.000  H
  C142     1.0000 0.41960  0.96116  0.87840  Biso   1.000  C
  C143     1.0000 0.39720  0.91300  0.85980  Biso   1.000  C
  C144     1.0000 0.36190  0.98979  0.91450  Biso   1.000  C
  H58      1.0000 0.30760  0.97830  0.92890  Biso   1.000  H
  H59      1.0000 0.14860  0.94650  0.72210  Biso   1.000  H
  H60      1.0000 0.22370  0.92210  0.73960  Biso   1.000  H
  Zn18     1.0000 0.11965  0.00682  0.72833  Biso   1.000  Zn
  O90      1.0000 0.10640  0.01500  0.64980  Biso   1.000  O
  Zn19     1.0000 0.28095  0.84344  0.82783  Biso   1.000  Zn
  Zn20     1.0000 0.27459  0.51447  0.29747  Biso   1.000  Zn
  O91      1.0000 0.45480  0.79092  0.82010  Biso   1.000  O
  O92      1.0000 0.31824  0.78199  0.85085  Biso   1.000  O
  O93      1.0000 0.66030  0.66522  0.85250  Biso   1.000  O
  O94      1.0000 0.60820  0.59449  0.84690  Biso   1.000  O
  O95      1.0000 0.22792  0.63282  0.78459  Biso   1.000  O
  O96      1.0000 0.10714  0.65765  0.83872  Biso   1.000  O
  O97      1.0000 0.36760  0.52194  0.14480  Biso   1.000  O
  O98      1.0000 0.25640  0.55274  0.20260  Biso   1.000  O
  O99      1.0000 0.86780  0.57814  0.13580  Biso   1.000  O
  O100     1.0000 0.83220  0.50569  0.15300  Biso   1.000  O
  O101     1.0000 0.05440  0.39214  0.18530  Biso   1.000  O
  O102     1.0000 0.16978  0.39630  0.11148  Biso   1.000  O
  O103     1.0000 0.29390  0.45116  0.25660  Biso   1.000  O
  O104     1.0000 0.36150  0.54090  0.37360  Biso   1.000  O
  C145     1.0000 0.39370  0.76777  0.84240  Biso   1.000  C
  C146     1.0000 0.49410  0.70085  0.85140  Biso   1.000  C
  H61      1.0000 0.53770  0.71950  0.83070  Biso   1.000  H
  C147     1.0000 0.51140  0.65572  0.86940  Biso   1.000  C
  C148     1.0000 0.59980  0.63631  0.85550  Biso   1.000  C
  C149     1.0000 0.44790  0.62804  0.89970  Biso   1.000  C
  H62      1.0000 0.46000  0.59690  0.91100  Biso   1.000  H
  C150     1.0000 0.36700  0.64593  0.91350  Biso   1.000  C
  C151     1.0000 0.34880  0.69154  0.89360  Biso   1.000  C
  H63      1.0000 0.29290  0.70380  0.90080  Biso   1.000  H
  C152     1.0000 0.41290  0.71894  0.86340  Biso   1.000  C
  C153     1.0000 0.30070  0.61795  0.95090  Biso   1.000  C
  C154     1.0000 0.21290  0.61730  0.92320  Biso   1.000  C
  C155     1.0000 0.17860  0.63830  0.84340  Biso   1.000  C
  C156     1.0000 0.15370  0.59208  0.96490  Biso   1.000  C
  H64      1.0000 0.09390  0.59280  0.94570  Biso   1.000  H
  C157     1.0000 0.17910  0.56614  0.03330  Biso   1.000  C
  C158     1.0000 0.26720  0.56757  0.06290  Biso   1.000  C
  C159     1.0000 0.32630  0.59299  0.02170  Biso   1.000  C
  H65      1.0000 0.38570  0.59340  0.04230  Biso   1.000  H
  C160     1.0000 0.29990  0.54542  0.14200  Biso   1.000  C
  C161     1.0000 0.11640  0.53566  0.07020  Biso   1.000  C
  C162     1.0000 0.03430  0.55130  0.08750  Biso   1.000  C
  H66      1.0000 0.01780  0.58180  0.07510  Biso   1.000  H
  C163     1.0000 0.97630  0.52205  0.12300  Biso   1.000  C
  C164     1.0000 0.88630  0.53672  0.13840  Biso   1.000  C
  C165     1.0000 0.99970  0.47749  0.14080  Biso   1.000  C
  H67      1.0000 0.96070  0.45800  0.16620  Biso   1.000  H
  C166     1.0000 0.08040  0.46116  0.12160  Biso   1.000  C
  C167     1.0000 0.10280  0.41300  0.14020  Biso   1.000  C
  C168     1.0000 0.13810  0.48979  0.08550  Biso   1.000  C
  H68      1.0000 0.19240  0.47830  0.07110  Biso   1.000  H
  H69      1.0000 0.35140  0.44650  0.27790  Biso   1.000  H
  H70      1.0000 0.27630  0.42210  0.26040  Biso   1.000  H
  Zn21     1.0000 0.38035  0.50682  0.27167  Biso   1.000  Zn
  O105     1.0000 0.39360  0.51500  0.35020  Biso   1.000  O
  Zn22     1.0000 0.78095  0.34344  0.32783  Biso   1.000  Zn
  Zn23     1.0000 0.77459  0.01447  0.79747  Biso   1.000  Zn
  O106     1.0000 0.95480  0.29092  0.32010  Biso   1.000  O
  O107     1.0000 0.81824  0.28199  0.35085  Biso   1.000  O
  O108     1.0000 0.16030  0.16522  0.35250  Biso   1.000  O
  O109     1.0000 0.10820  0.09449  0.34690  Biso   1.000  O
  O110     1.0000 0.72792  0.13282  0.28459  Biso   1.000  O
  O111     1.0000 0.60714  0.15765  0.33872  Biso   1.000  O
  O112     1.0000 0.86760  0.02194  0.64480  Biso   1.000  O
  O113     1.0000 0.75640  0.05274  0.70260  Biso   1.000  O
  O114     1.0000 0.36780  0.07814  0.63580  Biso   1.000  O
  O115     1.0000 0.33220  0.00569  0.65300  Biso   1.000  O
  O116     1.0000 0.55440  0.89214  0.68530  Biso   1.000  O
  O117     1.0000 0.66978  0.89630  0.61148  Biso   1.000  O
  O118     1.0000 0.79390  0.95116  0.75660  Biso   1.000  O
  O119     1.0000 0.86150  0.04090  0.87360  Biso   1.000  O
  C169     1.0000 0.89370  0.26777  0.34240  Biso   1.000  C
  C170     1.0000 0.99410  0.20085  0.35140  Biso   1.000  C
  H71      1.0000 0.03770  0.21950  0.33070  Biso   1.000  H
  C171     1.0000 0.01140  0.15572  0.36940  Biso   1.000  C
  C172     1.0000 0.09980  0.13631  0.35550  Biso   1.000  C
  C173     1.0000 0.94790  0.12804  0.39970  Biso   1.000  C
  H72      1.0000 0.96000  0.09690  0.41100  Biso   1.000  H
  C174     1.0000 0.86700  0.14593  0.41350  Biso   1.000  C
  C175     1.0000 0.84880  0.19154  0.39360  Biso   1.000  C
  H73      1.0000 0.79290  0.20380  0.40080  Biso   1.000  H
  C176     1.0000 0.91290  0.21894  0.36340  Biso   1.000  C
  C177     1.0000 0.80070  0.11795  0.45090  Biso   1.000  C
  C178     1.0000 0.71290  0.11730  0.42320  Biso   1.000  C
  C179     1.0000 0.67860  0.13830  0.34340  Biso   1.000  C
  C180     1.0000 0.65370  0.09208  0.46490  Biso   1.000  C
  H74      1.0000 0.59390  0.09280  0.44570  Biso   1.000  H
  C181     1.0000 0.67910  0.06614  0.53330  Biso   1.000  C
  C182     1.0000 0.76720  0.06757  0.56290  Biso   1.000  C
  C183     1.0000 0.82630  0.09299  0.52170  Biso   1.000  C
  H75      1.0000 0.88570  0.09340  0.54230  Biso   1.000  H
  C184     1.0000 0.79990  0.04542  0.64200  Biso   1.000  C
  C185     1.0000 0.61640  0.03566  0.57020  Biso   1.000  C
  C186     1.0000 0.53430  0.05130  0.58750  Biso   1.000  C
  H76      1.0000 0.51780  0.08180  0.57510  Biso   1.000  H
  C187     1.0000 0.47630  0.02205  0.62300  Biso   1.000  C
  C188     1.0000 0.38630  0.03672  0.63840  Biso   1.000  C
  C189     1.0000 0.49970  0.97749  0.64080  Biso   1.000  C
  H77      1.0000 0.46070  0.95800  0.66620  Biso   1.000  H
  C190     1.0000 0.58040  0.96116  0.62160  Biso   1.000  C
  C191     1.0000 0.60280  0.91300  0.64020  Biso   1.000  C
  C192     1.0000 0.63810  0.98979  0.58550  Biso   1.000  C
  H78      1.0000 0.69240  0.97830  0.57110  Biso   1.000  H
  H79      1.0000 0.85140  0.94650  0.77790  Biso   1.000  H
  H80      1.0000 0.77630  0.92210  0.76040  Biso   1.000  H
  Zn24     1.0000 0.88035  0.00682  0.77167  Biso   1.000  Zn
  O120     1.0000 0.89360  0.01500  0.85020  Biso   1.000  O
  Zn25     1.0000 0.50000  0.15902  0.25000  Biso   1.000  Zn
  Zn26     1.0000 0.00000  0.65902  0.75000  Biso   1.000  Zn
  Zn27     1.0000 0.50000  0.84098  0.75000  Biso   1.000  Zn
  Zn28     1.0000 0.00000  0.34098  0.25000  Biso   1.000  Zn
