data_image0
_cell_length_a       14.485
_cell_length_b       12.321
_cell_length_c       16.948
_cell_angle_alpha    90
_cell_angle_beta     93.491
_cell_angle_gamma    90

_symmetry_space_group_name_H-M    "P 1"
_symmetry_int_tables_number       1

loop_
  _symmetry_equiv_pos_as_xyz
  'x, y, z'

loop_
  _atom_site_label
  _atom_site_occupancy
  _atom_site_fract_x
  _atom_site_fract_y
  _atom_site_fract_z
  _atom_site_thermal_displace_type
  _atom_site_B_iso_or_equiv
  _atom_site_type_symbol
  Cu1      1.0000 0.69580  0.83086  0.00593  Biso   1.000  Cu
  C1       1.0000 0.58260  0.10940  0.34930  Biso   1.000  C
  C2       1.0000 0.57820  0.85030  0.15470  Biso   1.000  C
  N1       1.0000 0.62480  0.12620  0.40770  Biso   1.000  N
  N2       1.0000 0.62440  0.84740  0.09980  Biso   1.000  N
  C3       1.0000 0.67330  0.63750  0.98550  Biso   1.000  C
  N3       1.0000 0.61030  0.58650  0.98631  Biso   1.000  N
  Cu2      1.0000 0.74709  0.75181  0.07209  Biso   1.000  Cu
  C4       1.0000 0.61490  0.12050  0.32140  Biso   1.000  C
  C5       1.0000 0.60130  0.83700  0.17320  Biso   1.000  C
  N4       1.0000 0.67340  0.15170  0.36210  Biso   1.000  N
  N5       1.0000 0.64690  0.81380  0.13110  Biso   1.000  N
  Cu3      1.0000 0.19580  0.33086  0.00593  Biso   1.000  Cu
  C6       1.0000 0.08260  0.60940  0.34930  Biso   1.000  C
  C7       1.0000 0.07820  0.35030  0.15470  Biso   1.000  C
  N6       1.0000 0.12480  0.62620  0.40770  Biso   1.000  N
  N7       1.0000 0.12440  0.34740  0.09980  Biso   1.000  N
  C8       1.0000 0.17330  0.13750  0.98550  Biso   1.000  C
  N8       1.0000 0.11030  0.08650  0.98631  Biso   1.000  N
  Cu4      1.0000 0.24709  0.25181  0.07209  Biso   1.000  Cu
  C9       1.0000 0.11490  0.62050  0.32140  Biso   1.000  C
  C10      1.0000 0.10130  0.33700  0.17320  Biso   1.000  C
  N9       1.0000 0.17340  0.65170  0.36210  Biso   1.000  N
  N10      1.0000 0.14690  0.31380  0.13110  Biso   1.000  N
  Cu5      1.0000 0.30420  0.83086  0.49407  Biso   1.000  Cu
  C11      1.0000 0.41740  0.10940  0.15070  Biso   1.000  C
  C12      1.0000 0.42180  0.85030  0.34530  Biso   1.000  C
  N11      1.0000 0.37520  0.12620  0.09230  Biso   1.000  N
  N12      1.0000 0.37560  0.84740  0.40020  Biso   1.000  N
  C13      1.0000 0.32670  0.63750  0.51450  Biso   1.000  C
  N13      1.0000 0.38970  0.58650  0.51369  Biso   1.000  N
  Cu6      1.0000 0.25291  0.75181  0.42791  Biso   1.000  Cu
  C14      1.0000 0.38510  0.12050  0.17860  Biso   1.000  C
  C15      1.0000 0.39870  0.83700  0.32680  Biso   1.000  C
  N14      1.0000 0.32660  0.15170  0.13790  Biso   1.000  N
  N15      1.0000 0.35310  0.81380  0.36890  Biso   1.000  N
  Cu7      1.0000 0.80420  0.33086  0.49407  Biso   1.000  Cu
  C16      1.0000 0.91740  0.60940  0.15070  Biso   1.000  C
  C17      1.0000 0.92180  0.35030  0.34530  Biso   1.000  C
  N16      1.0000 0.87520  0.62620  0.09230  Biso   1.000  N
  N17      1.0000 0.87560  0.34740  0.40020  Biso   1.000  N
  C18      1.0000 0.82670  0.13750  0.51450  Biso   1.000  C
  N18      1.0000 0.88970  0.08650  0.51369  Biso   1.000  N
  Cu8      1.0000 0.75291  0.25181  0.42791  Biso   1.000  Cu
  C19      1.0000 0.88510  0.62050  0.17860  Biso   1.000  C
  C20      1.0000 0.89870  0.33700  0.32680  Biso   1.000  C
  N19      1.0000 0.82660  0.65170  0.13790  Biso   1.000  N
  N20      1.0000 0.85310  0.31380  0.36890  Biso   1.000  N
  Cu9      1.0000 0.30420  0.16914  0.99407  Biso   1.000  Cu
  C21      1.0000 0.41740  0.89060  0.65070  Biso   1.000  C
  C22      1.0000 0.42180  0.14970  0.84530  Biso   1.000  C
  N21      1.0000 0.37520  0.87380  0.59230  Biso   1.000  N
  N22      1.0000 0.37560  0.15260  0.90020  Biso   1.000  N
  C23      1.0000 0.32670  0.36250  0.01450  Biso   1.000  C
  N23      1.0000 0.38970  0.41350  0.01369  Biso   1.000  N
  Cu10     1.0000 0.25291  0.24819  0.92791  Biso   1.000  Cu
  C24      1.0000 0.38510  0.87950  0.67860  Biso   1.000  C
  C25      1.0000 0.39870  0.16300  0.82680  Biso   1.000  C
  N24      1.0000 0.32660  0.84830  0.63790  Biso   1.000  N
  N25      1.0000 0.35310  0.18620  0.86890  Biso   1.000  N
  Cu11     1.0000 0.80420  0.66914  0.99407  Biso   1.000  Cu
  C26      1.0000 0.91740  0.39060  0.65070  Biso   1.000  C
  C27      1.0000 0.92180  0.64970  0.84530  Biso   1.000  C
  N26      1.0000 0.87520  0.37380  0.59230  Biso   1.000  N
  N27      1.0000 0.87560  0.65260  0.90020  Biso   1.000  N
  C28      1.0000 0.82670  0.86250  0.01450  Biso   1.000  C
  N28      1.0000 0.88970  0.91350  0.01369  Biso   1.000  N
  Cu12     1.0000 0.75291  0.74819  0.92791  Biso   1.000  Cu
  C29      1.0000 0.88510  0.37950  0.67860  Biso   1.000  C
  C30      1.0000 0.89870  0.66300  0.82680  Biso   1.000  C
  N29      1.0000 0.82660  0.34830  0.63790  Biso   1.000  N
  N30      1.0000 0.85310  0.68620  0.86890  Biso   1.000  N
  Cu13     1.0000 0.69580  0.16914  0.50593  Biso   1.000  Cu
  C31      1.0000 0.58260  0.89060  0.84930  Biso   1.000  C
  C32      1.0000 0.57820  0.14970  0.65470  Biso   1.000  C
  N31      1.0000 0.62480  0.87380  0.90770  Biso   1.000  N
  N32      1.0000 0.62440  0.15260  0.59980  Biso   1.000  N
  C33      1.0000 0.67330  0.36250  0.48550  Biso   1.000  C
  N33      1.0000 0.61030  0.41350  0.48631  Biso   1.000  N
  Cu14     1.0000 0.74709  0.24819  0.57209  Biso   1.000  Cu
  C34      1.0000 0.61490  0.87950  0.82140  Biso   1.000  C
  C35      1.0000 0.60130  0.16300  0.67320  Biso   1.000  C
  N34      1.0000 0.67340  0.84830  0.86210  Biso   1.000  N
  N35      1.0000 0.64690  0.18620  0.63110  Biso   1.000  N
  Cu15     1.0000 0.19580  0.66914  0.50593  Biso   1.000  Cu
  C36      1.0000 0.08260  0.39060  0.84930  Biso   1.000  C
  C37      1.0000 0.07820  0.64970  0.65470  Biso   1.000  C
  N36      1.0000 0.12480  0.37380  0.90770  Biso   1.000  N
  N37      1.0000 0.12440  0.65260  0.59980  Biso   1.000  N
  C38      1.0000 0.17330  0.86250  0.48550  Biso   1.000  C
  N38      1.0000 0.11030  0.91350  0.48631  Biso   1.000  N
  Cu16     1.0000 0.24709  0.74819  0.57209  Biso   1.000  Cu
  C39      1.0000 0.11490  0.37950  0.82140  Biso   1.000  C
  C40      1.0000 0.10130  0.66300  0.67320  Biso   1.000  C
  N39      1.0000 0.17340  0.34830  0.86210  Biso   1.000  N
  N40      1.0000 0.14690  0.68620  0.63110  Biso   1.000  N
  Ag1      1.0000 0.50000  0.09802  0.25000  Biso   1.000  Ag
  Ag2      1.0000 0.50000  0.85352  0.25000  Biso   1.000  Ag
  Ag3      1.0000 0.00000  0.59802  0.25000  Biso   1.000  Ag
  Ag4      1.0000 0.00000  0.35352  0.25000  Biso   1.000  Ag
  Ag5      1.0000 0.50000  0.90198  0.75000  Biso   1.000  Ag
  Ag6      1.0000 0.50000  0.14648  0.75000  Biso   1.000  Ag
  Ag7      1.0000 0.00000  0.40198  0.75000  Biso   1.000  Ag
  Ag8      1.0000 0.00000  0.64648  0.75000  Biso   1.000  Ag
  Cu17     1.0000 0.50000  0.50000  0.00000  Biso   1.000  Cu
  Cu18     1.0000 0.00000  0.00000  0.00000  Biso   1.000  Cu
  Cu19     1.0000 0.50000  0.50000  0.50000  Biso   1.000  Cu
  Cu20     1.0000 0.00000  0.00000  0.50000  Biso   1.000  Cu
