data_image0
_cell_length_a       15.3327
_cell_length_b       9.5934
_cell_length_c       15.4363
_cell_angle_alpha    90
_cell_angle_beta     97.199
_cell_angle_gamma    90

_symmetry_space_group_name_H-M    "P 1"
_symmetry_int_tables_number       1

loop_
  _symmetry_equiv_pos_as_xyz
  'x, y, z'

loop_
  _atom_site_label
  _atom_site_occupancy
  _atom_site_fract_x
  _atom_site_fract_y
  _atom_site_fract_z
  _atom_site_thermal_displace_type
  _atom_site_B_iso_or_equiv
  _atom_site_type_symbol
  P1       1.0000 0.29476  0.80549  0.26443  Biso   1.000  P
  P2       1.0000 0.30550  0.40580  0.01130  Biso   1.000  P
  P3       1.0000 0.50260  0.38300  0.82420  Biso   1.000  P
  P4       1.0000 0.23179  0.67457  0.70135  Biso   1.000  P
  Be1      1.0000 0.31550  0.53470  0.18480  Biso   1.000  Be
  Be2      1.0000 0.32100  0.46700  0.82510  Biso   1.000  Be
  O1       1.0000 0.27100  0.67790  0.21200  Biso   1.000  O
  O2       1.0000 0.36550  0.88800  0.21760  Biso   1.000  O
  H1       1.0000 0.41250  0.88910  0.24940  Biso   1.000  H
  O3       1.0000 0.34230  0.77630  0.35510  Biso   1.000  O
  O4       1.0000 0.21930  0.90240  0.26330  Biso   1.000  O
  O5       1.0000 0.28930  0.51560  0.08050  Biso   1.000  O
  O6       1.0000 0.30240  0.47730  0.92480  Biso   1.000  O
  O7       1.0000 0.24320  0.28770  0.01390  Biso   1.000  O
  H2       1.0000 0.23660  0.24840  0.96640  Biso   1.000  H
  O8       1.0000 0.39900  0.34260  0.03450  Biso   1.000  O
  O9       1.0000 0.42290  0.47060  0.81360  Biso   1.000  O
  O10      1.0000 0.48880  0.23900  0.78560  Biso   1.000  O
  H3       1.0000 0.44550  0.20330  0.80270  Biso   1.000  H
  O11      1.0000 0.57880  0.46050  0.78930  Biso   1.000  O
  O12      1.0000 0.52910  0.36290  0.92530  Biso   1.000  O
  H4       1.0000 0.48460  0.36080  0.94970  Biso   1.000  H
  O13      1.0000 0.27340  0.59940  0.77880  Biso   1.000  O
  O14      1.0000 0.14210  0.61370  0.66830  Biso   1.000  O
  H5       1.0000 0.11180  0.61090  0.70850  Biso   1.000  H
  O15      1.0000 0.29040  0.65070  0.62750  Biso   1.000  O
  H6       1.0000 0.25970  0.65130  0.58000  Biso   1.000  H
  O16      1.0000 0.22430  0.82770  0.72060  Biso   1.000  O
  P5       1.0000 0.33700  0.45200  0.02470  Biso   1.000  P
  P6       1.0000 0.52570  0.42800  0.85260  Biso   1.000  P
  P7       1.0000 0.20524  0.30549  0.23557  Biso   1.000  P
  P8       1.0000 0.19450  0.90580  0.48870  Biso   1.000  P
  P9       1.0000 0.99740  0.88300  0.67580  Biso   1.000  P
  P10      1.0000 0.26821  0.17457  0.79865  Biso   1.000  P
  Be3      1.0000 0.18450  0.03470  0.31520  Biso   1.000  Be
  Be4      1.0000 0.17900  0.96700  0.67490  Biso   1.000  Be
  O17      1.0000 0.22900  0.17790  0.28800  Biso   1.000  O
  O18      1.0000 0.13450  0.38800  0.28240  Biso   1.000  O
  H7       1.0000 0.08750  0.38910  0.25060  Biso   1.000  H
  O19      1.0000 0.15770  0.27630  0.14490  Biso   1.000  O
  O20      1.0000 0.28070  0.40240  0.23670  Biso   1.000  O
  O21      1.0000 0.21070  0.01560  0.41950  Biso   1.000  O
  O22      1.0000 0.19760  0.97730  0.57520  Biso   1.000  O
  O23      1.0000 0.25680  0.78770  0.48610  Biso   1.000  O
  H8       1.0000 0.26340  0.74840  0.53360  Biso   1.000  H
  O24      1.0000 0.10100  0.84260  0.46550  Biso   1.000  O
  O25      1.0000 0.07710  0.97060  0.68640  Biso   1.000  O
  O26      1.0000 0.01120  0.73900  0.71440  Biso   1.000  O
  H9       1.0000 0.05450  0.70330  0.69730  Biso   1.000  H
  O27      1.0000 0.92120  0.96050  0.71070  Biso   1.000  O
  O28      1.0000 0.97090  0.86290  0.57470  Biso   1.000  O
  H10      1.0000 0.01540  0.86080  0.55030  Biso   1.000  H
  O29      1.0000 0.22660  0.09940  0.72120  Biso   1.000  O
  O30      1.0000 0.35790  0.11370  0.83170  Biso   1.000  O
  H11      1.0000 0.38820  0.11090  0.79150  Biso   1.000  H
  O31      1.0000 0.20960  0.15070  0.87250  Biso   1.000  O
  H12      1.0000 0.24030  0.15130  0.92000  Biso   1.000  H
  O32      1.0000 0.27570  0.32770  0.77940  Biso   1.000  O
  P11      1.0000 0.16300  0.95200  0.47530  Biso   1.000  P
  P12      1.0000 0.97430  0.92800  0.64740  Biso   1.000  P
  P13      1.0000 0.70524  0.19451  0.73557  Biso   1.000  P
  P14      1.0000 0.69450  0.59420  0.98870  Biso   1.000  P
  P15      1.0000 0.49740  0.61700  0.17580  Biso   1.000  P
  P16      1.0000 0.76821  0.32543  0.29865  Biso   1.000  P
  Be5      1.0000 0.68450  0.46530  0.81520  Biso   1.000  Be
  Be6      1.0000 0.67900  0.53300  0.17490  Biso   1.000  Be
  O33      1.0000 0.72900  0.32210  0.78800  Biso   1.000  O
  O34      1.0000 0.63450  0.11200  0.78240  Biso   1.000  O
  H13      1.0000 0.58750  0.11090  0.75060  Biso   1.000  H
  O35      1.0000 0.65770  0.22370  0.64490  Biso   1.000  O
  O36      1.0000 0.78070  0.09760  0.73670  Biso   1.000  O
  O37      1.0000 0.71070  0.48440  0.91950  Biso   1.000  O
  O38      1.0000 0.69760  0.52270  0.07520  Biso   1.000  O
  O39      1.0000 0.75680  0.71230  0.98610  Biso   1.000  O
  H14      1.0000 0.76340  0.75160  0.03360  Biso   1.000  H
  O40      1.0000 0.60100  0.65740  0.96550  Biso   1.000  O
  O41      1.0000 0.57710  0.52940  0.18640  Biso   1.000  O
  O42      1.0000 0.51120  0.76100  0.21440  Biso   1.000  O
  H15      1.0000 0.55450  0.79670  0.19730  Biso   1.000  H
  O43      1.0000 0.42120  0.53950  0.21070  Biso   1.000  O
  O44      1.0000 0.47090  0.63710  0.07470  Biso   1.000  O
  H16      1.0000 0.51540  0.63920  0.05030  Biso   1.000  H
  O45      1.0000 0.72660  0.40060  0.22120  Biso   1.000  O
  O46      1.0000 0.85790  0.38630  0.33170  Biso   1.000  O
  H17      1.0000 0.88820  0.38910  0.29150  Biso   1.000  H
  O47      1.0000 0.70960  0.34930  0.37250  Biso   1.000  O
  H18      1.0000 0.74030  0.34870  0.42000  Biso   1.000  H
  O48      1.0000 0.77570  0.17230  0.27940  Biso   1.000  O
  P17      1.0000 0.66300  0.54800  0.97530  Biso   1.000  P
  P18      1.0000 0.47430  0.57200  0.14740  Biso   1.000  P
  P19      1.0000 0.79476  0.69451  0.76443  Biso   1.000  P
  P20      1.0000 0.80550  0.09420  0.51130  Biso   1.000  P
  P21      1.0000 0.00260  0.11700  0.32420  Biso   1.000  P
  P22      1.0000 0.73179  0.82543  0.20135  Biso   1.000  P
  Be7      1.0000 0.81550  0.96530  0.68480  Biso   1.000  Be
  Be8      1.0000 0.82100  0.03300  0.32510  Biso   1.000  Be
  O49      1.0000 0.77100  0.82210  0.71200  Biso   1.000  O
  O50      1.0000 0.86550  0.61200  0.71760  Biso   1.000  O
  H19      1.0000 0.91250  0.61090  0.74940  Biso   1.000  H
  O51      1.0000 0.84230  0.72370  0.85510  Biso   1.000  O
  O52      1.0000 0.71930  0.59760  0.76330  Biso   1.000  O
  O53      1.0000 0.78930  0.98440  0.58050  Biso   1.000  O
  O54      1.0000 0.80240  0.02270  0.42480  Biso   1.000  O
  O55      1.0000 0.74320  0.21230  0.51390  Biso   1.000  O
  H20      1.0000 0.73660  0.25160  0.46640  Biso   1.000  H
  O56      1.0000 0.89900  0.15740  0.53450  Biso   1.000  O
  O57      1.0000 0.92290  0.02940  0.31360  Biso   1.000  O
  O58      1.0000 0.98880  0.26100  0.28560  Biso   1.000  O
  H21      1.0000 0.94550  0.29670  0.30270  Biso   1.000  H
  O59      1.0000 0.07880  0.03950  0.28930  Biso   1.000  O
  O60      1.0000 0.02910  0.13710  0.42530  Biso   1.000  O
  H22      1.0000 0.98460  0.13920  0.44970  Biso   1.000  H
  O61      1.0000 0.77340  0.90060  0.27880  Biso   1.000  O
  O62      1.0000 0.64210  0.88630  0.16830  Biso   1.000  O
  H23      1.0000 0.61180  0.88910  0.20850  Biso   1.000  H
  O63      1.0000 0.79040  0.84930  0.12750  Biso   1.000  O
  H24      1.0000 0.75970  0.84870  0.08000  Biso   1.000  H
  O64      1.0000 0.72430  0.67230  0.22060  Biso   1.000  O
  P23      1.0000 0.83700  0.04800  0.52470  Biso   1.000  P
  P24      1.0000 0.02570  0.07200  0.35260  Biso   1.000  P
