data_image0
_cell_length_a       22.8218
_cell_length_b       21.5546
_cell_length_c       9.492
_cell_angle_alpha    90
_cell_angle_beta     91.3
_cell_angle_gamma    90

_symmetry_space_group_name_H-M    "P 1"
_symmetry_int_tables_number       1

loop_
  _symmetry_equiv_pos_as_xyz
  'x, y, z'

loop_
  _atom_site_label
  _atom_site_occupancy
  _atom_site_fract_x
  _atom_site_fract_y
  _atom_site_fract_z
  _atom_site_thermal_displace_type
  _atom_site_B_iso_or_equiv
  _atom_site_type_symbol
  P1       1.0000 0.35330  0.33300  0.40633  Biso   1.000  P
  P2       1.0000 0.16381  0.34755  0.40845  Biso   1.000  P
  P3       1.0000 0.26659  0.47257  0.19748  Biso   1.000  P
  P4       1.0000 0.50849  0.19590  0.73260  Biso   1.000  P
  Be1      1.0000 0.26657  0.42646  0.49140  Biso   1.000  Be
  Be2      1.0000 0.43119  0.23070  0.49540  Biso   1.000  Be
  O1       1.0000 0.32195  0.37897  0.49540  Biso   1.000  O
  O2       1.0000 0.39882  0.29827  0.49140  Biso   1.000  O
  O3       1.0000 0.30961  0.28528  0.34680  Biso   1.000  O
  H1       1.0000 0.32690  0.26020  0.29800  Biso   1.000  H
  O4       1.0000 0.38152  0.36490  0.28490  Biso   1.000  O
  O5       1.0000 0.46827  0.22001  0.35350  Biso   1.000  O
  O6       1.0000 0.45716  0.29950  0.16400  Biso   1.000  O
  H2       1.0000 0.47540  0.32060  0.10800  Biso   1.000  H
  O7       1.0000 0.20431  0.38973  0.48800  Biso   1.000  O
  O8       1.0000 0.14226  0.37765  0.27390  Biso   1.000  O
  O9       1.0000 0.19751  0.28779  0.37000  Biso   1.000  O
  H3       1.0000 0.17950  0.25740  0.39800  Biso   1.000  H
  O10      1.0000 0.11376  0.32789  0.49730  Biso   1.000  O
  O11      1.0000 0.26936  0.47333  0.35510  Biso   1.000  O
  O12      1.0000 0.27075  0.53363  0.13470  Biso   1.000  O
  O13      1.0000 0.19370  0.46300  0.15720  Biso   1.000  O
  O14      1.0000 0.29150  0.41820  0.13410  Biso   1.000  O
  O15      1.0000 0.47362  0.23205  0.63540  Biso   1.000  O
  O16      1.0000 0.56440  0.18000  0.65260  Biso   1.000  O
  O17      1.0000 0.47790  0.13370  0.75870  Biso   1.000  O
  O18      1.0000 0.23450  0.42160  0.13200  Biso   1.000  O
  O19      1.0000 0.33800  0.45300  0.15340  Biso   1.000  O
  P5       1.0000 0.85330  0.83300  0.40633  Biso   1.000  P
  P6       1.0000 0.66381  0.84755  0.40845  Biso   1.000  P
  P7       1.0000 0.76659  0.97257  0.19748  Biso   1.000  P
  P8       1.0000 0.00849  0.69590  0.73260  Biso   1.000  P
  Be3      1.0000 0.76657  0.92646  0.49140  Biso   1.000  Be
  Be4      1.0000 0.93119  0.73070  0.49540  Biso   1.000  Be
  O20      1.0000 0.82195  0.87897  0.49540  Biso   1.000  O
  O21      1.0000 0.89882  0.79827  0.49140  Biso   1.000  O
  O22      1.0000 0.80961  0.78528  0.34680  Biso   1.000  O
  H4       1.0000 0.82690  0.76020  0.29800  Biso   1.000  H
  O23      1.0000 0.88152  0.86490  0.28490  Biso   1.000  O
  O24      1.0000 0.96827  0.72001  0.35350  Biso   1.000  O
  O25      1.0000 0.95716  0.79950  0.16400  Biso   1.000  O
  H5       1.0000 0.97540  0.82060  0.10800  Biso   1.000  H
  O26      1.0000 0.70431  0.88973  0.48800  Biso   1.000  O
  O27      1.0000 0.64226  0.87765  0.27390  Biso   1.000  O
  O28      1.0000 0.69751  0.78779  0.37000  Biso   1.000  O
  H6       1.0000 0.67950  0.75740  0.39800  Biso   1.000  H
  O29      1.0000 0.61376  0.82789  0.49730  Biso   1.000  O
  O30      1.0000 0.76936  0.97333  0.35510  Biso   1.000  O
  O31      1.0000 0.77075  0.03363  0.13470  Biso   1.000  O
  O32      1.0000 0.69370  0.96300  0.15720  Biso   1.000  O
  O33      1.0000 0.79150  0.91820  0.13410  Biso   1.000  O
  O34      1.0000 0.97362  0.73205  0.63540  Biso   1.000  O
  O35      1.0000 0.06440  0.68000  0.65260  Biso   1.000  O
  O36      1.0000 0.97790  0.63370  0.75870  Biso   1.000  O
  O37      1.0000 0.73450  0.92160  0.13200  Biso   1.000  O
  O38      1.0000 0.83800  0.95300  0.15340  Biso   1.000  O
  P9       1.0000 0.64670  0.33300  0.09367  Biso   1.000  P
  P10      1.0000 0.83619  0.34755  0.09155  Biso   1.000  P
  P11      1.0000 0.73341  0.47257  0.30252  Biso   1.000  P
  P12      1.0000 0.49151  0.19590  0.76740  Biso   1.000  P
  Be5      1.0000 0.73343  0.42646  0.00860  Biso   1.000  Be
  Be6      1.0000 0.56881  0.23070  0.00460  Biso   1.000  Be
  O39      1.0000 0.67805  0.37897  0.00460  Biso   1.000  O
  O40      1.0000 0.60118  0.29827  0.00860  Biso   1.000  O
  O41      1.0000 0.69039  0.28528  0.15320  Biso   1.000  O
  H7       1.0000 0.67310  0.26020  0.20200  Biso   1.000  H
  O42      1.0000 0.61848  0.36490  0.21510  Biso   1.000  O
  O43      1.0000 0.53173  0.22001  0.14650  Biso   1.000  O
  O44      1.0000 0.54284  0.29950  0.33600  Biso   1.000  O
  H8       1.0000 0.52460  0.32060  0.39200  Biso   1.000  H
  O45      1.0000 0.79569  0.38973  0.01200  Biso   1.000  O
  O46      1.0000 0.85774  0.37765  0.22610  Biso   1.000  O
  O47      1.0000 0.80249  0.28779  0.13000  Biso   1.000  O
  H9       1.0000 0.82050  0.25740  0.10200  Biso   1.000  H
  O48      1.0000 0.88624  0.32789  0.00270  Biso   1.000  O
  O49      1.0000 0.73064  0.47333  0.14490  Biso   1.000  O
  O50      1.0000 0.72925  0.53363  0.36530  Biso   1.000  O
  O51      1.0000 0.80630  0.46300  0.34280  Biso   1.000  O
  O52      1.0000 0.70850  0.41820  0.36590  Biso   1.000  O
  O53      1.0000 0.52638  0.23205  0.86460  Biso   1.000  O
  O54      1.0000 0.43560  0.18000  0.84740  Biso   1.000  O
  O55      1.0000 0.52210  0.13370  0.74130  Biso   1.000  O
  O56      1.0000 0.76550  0.42160  0.36800  Biso   1.000  O
  O57      1.0000 0.66200  0.45300  0.34660  Biso   1.000  O
  P13      1.0000 0.14670  0.83300  0.09367  Biso   1.000  P
  P14      1.0000 0.33619  0.84755  0.09155  Biso   1.000  P
  P15      1.0000 0.23341  0.97257  0.30252  Biso   1.000  P
  P16      1.0000 0.99151  0.69590  0.76740  Biso   1.000  P
  Be7      1.0000 0.23343  0.92646  0.00860  Biso   1.000  Be
  Be8      1.0000 0.06881  0.73070  0.00460  Biso   1.000  Be
  O58      1.0000 0.17805  0.87897  0.00460  Biso   1.000  O
  O59      1.0000 0.10118  0.79827  0.00860  Biso   1.000  O
  O60      1.0000 0.19039  0.78528  0.15320  Biso   1.000  O
  H10      1.0000 0.17310  0.76020  0.20200  Biso   1.000  H
  O61      1.0000 0.11848  0.86490  0.21510  Biso   1.000  O
  O62      1.0000 0.03173  0.72001  0.14650  Biso   1.000  O
  O63      1.0000 0.04284  0.79950  0.33600  Biso   1.000  O
  H11      1.0000 0.02460  0.82060  0.39200  Biso   1.000  H
  O64      1.0000 0.29569  0.88973  0.01200  Biso   1.000  O
  O65      1.0000 0.35774  0.87765  0.22610  Biso   1.000  O
  O66      1.0000 0.30249  0.78779  0.13000  Biso   1.000  O
  H12      1.0000 0.32050  0.75740  0.10200  Biso   1.000  H
  O67      1.0000 0.38624  0.82789  0.00270  Biso   1.000  O
  O68      1.0000 0.23064  0.97333  0.14490  Biso   1.000  O
  O69      1.0000 0.22925  0.03363  0.36530  Biso   1.000  O
  O70      1.0000 0.30630  0.96300  0.34280  Biso   1.000  O
  O71      1.0000 0.20850  0.91820  0.36590  Biso   1.000  O
  O72      1.0000 0.02638  0.73205  0.86460  Biso   1.000  O
  O73      1.0000 0.93560  0.68000  0.84740  Biso   1.000  O
  O74      1.0000 0.02210  0.63370  0.74130  Biso   1.000  O
  O75      1.0000 0.26550  0.92160  0.36800  Biso   1.000  O
  O76      1.0000 0.16200  0.95300  0.34660  Biso   1.000  O
  P17      1.0000 0.64670  0.66700  0.59367  Biso   1.000  P
  P18      1.0000 0.83619  0.65245  0.59155  Biso   1.000  P
  P19      1.0000 0.73341  0.52743  0.80252  Biso   1.000  P
  P20      1.0000 0.49151  0.80410  0.26740  Biso   1.000  P
  Be9      1.0000 0.73343  0.57354  0.50860  Biso   1.000  Be
  Be10     1.0000 0.56881  0.76930  0.50460  Biso   1.000  Be
  O77      1.0000 0.67805  0.62103  0.50460  Biso   1.000  O
  O78      1.0000 0.60118  0.70173  0.50860  Biso   1.000  O
  O79      1.0000 0.69039  0.71472  0.65320  Biso   1.000  O
  H13      1.0000 0.67310  0.73980  0.70200  Biso   1.000  H
  O80      1.0000 0.61848  0.63510  0.71510  Biso   1.000  O
  O81      1.0000 0.53173  0.77999  0.64650  Biso   1.000  O
  O82      1.0000 0.54284  0.70050  0.83600  Biso   1.000  O
  H14      1.0000 0.52460  0.67940  0.89200  Biso   1.000  H
  O83      1.0000 0.79569  0.61027  0.51200  Biso   1.000  O
  O84      1.0000 0.85774  0.62235  0.72610  Biso   1.000  O
  O85      1.0000 0.80249  0.71221  0.63000  Biso   1.000  O
  H15      1.0000 0.82050  0.74260  0.60200  Biso   1.000  H
  O86      1.0000 0.88624  0.67211  0.50270  Biso   1.000  O
  O87      1.0000 0.73064  0.52667  0.64490  Biso   1.000  O
  O88      1.0000 0.72925  0.46637  0.86530  Biso   1.000  O
  O89      1.0000 0.80630  0.53700  0.84280  Biso   1.000  O
  O90      1.0000 0.70850  0.58180  0.86590  Biso   1.000  O
  O91      1.0000 0.52638  0.76795  0.36460  Biso   1.000  O
  O92      1.0000 0.43560  0.82000  0.34740  Biso   1.000  O
  O93      1.0000 0.52210  0.86630  0.24130  Biso   1.000  O
  O94      1.0000 0.76550  0.57840  0.86800  Biso   1.000  O
  O95      1.0000 0.66200  0.54700  0.84660  Biso   1.000  O
  P21      1.0000 0.14670  0.16700  0.59367  Biso   1.000  P
  P22      1.0000 0.33619  0.15245  0.59155  Biso   1.000  P
  P23      1.0000 0.23341  0.02743  0.80252  Biso   1.000  P
  P24      1.0000 0.99151  0.30410  0.26740  Biso   1.000  P
  Be11     1.0000 0.23343  0.07354  0.50860  Biso   1.000  Be
  Be12     1.0000 0.06881  0.26930  0.50460  Biso   1.000  Be
  O96      1.0000 0.17805  0.12103  0.50460  Biso   1.000  O
  O97      1.0000 0.10118  0.20173  0.50860  Biso   1.000  O
  O98      1.0000 0.19039  0.21472  0.65320  Biso   1.000  O
  H16      1.0000 0.17310  0.23980  0.70200  Biso   1.000  H
  O99      1.0000 0.11848  0.13510  0.71510  Biso   1.000  O
  O100     1.0000 0.03173  0.27999  0.64650  Biso   1.000  O
  O101     1.0000 0.04284  0.20050  0.83600  Biso   1.000  O
  H17      1.0000 0.02460  0.17940  0.89200  Biso   1.000  H
  O102     1.0000 0.29569  0.11027  0.51200  Biso   1.000  O
  O103     1.0000 0.35774  0.12235  0.72610  Biso   1.000  O
  O104     1.0000 0.30249  0.21221  0.63000  Biso   1.000  O
  H18      1.0000 0.32050  0.24260  0.60200  Biso   1.000  H
  O105     1.0000 0.38624  0.17211  0.50270  Biso   1.000  O
  O106     1.0000 0.23064  0.02667  0.64490  Biso   1.000  O
  O107     1.0000 0.22925  0.96637  0.86530  Biso   1.000  O
  O108     1.0000 0.30630  0.03700  0.84280  Biso   1.000  O
  O109     1.0000 0.20850  0.08180  0.86590  Biso   1.000  O
  O110     1.0000 0.02638  0.26795  0.36460  Biso   1.000  O
  O111     1.0000 0.93560  0.32000  0.34740  Biso   1.000  O
  O112     1.0000 0.02210  0.36630  0.24130  Biso   1.000  O
  O113     1.0000 0.26550  0.07840  0.86800  Biso   1.000  O
  O114     1.0000 0.16200  0.04700  0.84660  Biso   1.000  O
  P25      1.0000 0.35330  0.66700  0.90633  Biso   1.000  P
  P26      1.0000 0.16381  0.65245  0.90845  Biso   1.000  P
  P27      1.0000 0.26659  0.52743  0.69748  Biso   1.000  P
  P28      1.0000 0.50849  0.80410  0.23260  Biso   1.000  P
  Be13     1.0000 0.26657  0.57354  0.99140  Biso   1.000  Be
  Be14     1.0000 0.43119  0.76930  0.99540  Biso   1.000  Be
  O115     1.0000 0.32195  0.62103  0.99540  Biso   1.000  O
  O116     1.0000 0.39882  0.70173  0.99140  Biso   1.000  O
  O117     1.0000 0.30961  0.71472  0.84680  Biso   1.000  O
  H19      1.0000 0.32690  0.73980  0.79800  Biso   1.000  H
  O118     1.0000 0.38152  0.63510  0.78490  Biso   1.000  O
  O119     1.0000 0.46827  0.77999  0.85350  Biso   1.000  O
  O120     1.0000 0.45716  0.70050  0.66400  Biso   1.000  O
  H20      1.0000 0.47540  0.67940  0.60800  Biso   1.000  H
  O121     1.0000 0.20431  0.61027  0.98800  Biso   1.000  O
  O122     1.0000 0.14226  0.62235  0.77390  Biso   1.000  O
  O123     1.0000 0.19751  0.71221  0.87000  Biso   1.000  O
  H21      1.0000 0.17950  0.74260  0.89800  Biso   1.000  H
  O124     1.0000 0.11376  0.67211  0.99730  Biso   1.000  O
  O125     1.0000 0.26936  0.52667  0.85510  Biso   1.000  O
  O126     1.0000 0.27075  0.46637  0.63470  Biso   1.000  O
  O127     1.0000 0.19370  0.53700  0.65720  Biso   1.000  O
  O128     1.0000 0.29150  0.58180  0.63410  Biso   1.000  O
  O129     1.0000 0.47362  0.76795  0.13540  Biso   1.000  O
  O130     1.0000 0.56440  0.82000  0.15260  Biso   1.000  O
  O131     1.0000 0.47790  0.86630  0.25870  Biso   1.000  O
  O132     1.0000 0.23450  0.57840  0.63200  Biso   1.000  O
  O133     1.0000 0.33800  0.54700  0.65340  Biso   1.000  O
  P29      1.0000 0.85330  0.16700  0.90633  Biso   1.000  P
  P30      1.0000 0.66381  0.15245  0.90845  Biso   1.000  P
  P31      1.0000 0.76659  0.02743  0.69748  Biso   1.000  P
  P32      1.0000 0.00849  0.30410  0.23260  Biso   1.000  P
  Be15     1.0000 0.76657  0.07354  0.99140  Biso   1.000  Be
  Be16     1.0000 0.93119  0.26930  0.99540  Biso   1.000  Be
  O134     1.0000 0.82195  0.12103  0.99540  Biso   1.000  O
  O135     1.0000 0.89882  0.20173  0.99140  Biso   1.000  O
  O136     1.0000 0.80961  0.21472  0.84680  Biso   1.000  O
  H22      1.0000 0.82690  0.23980  0.79800  Biso   1.000  H
  O137     1.0000 0.88152  0.13510  0.78490  Biso   1.000  O
  O138     1.0000 0.96827  0.27999  0.85350  Biso   1.000  O
  O139     1.0000 0.95716  0.20050  0.66400  Biso   1.000  O
  H23      1.0000 0.97540  0.17940  0.60800  Biso   1.000  H
  O140     1.0000 0.70431  0.11027  0.98800  Biso   1.000  O
  O141     1.0000 0.64226  0.12235  0.77390  Biso   1.000  O
  O142     1.0000 0.69751  0.21221  0.87000  Biso   1.000  O
  H24      1.0000 0.67950  0.24260  0.89800  Biso   1.000  H
  O143     1.0000 0.61376  0.17211  0.99730  Biso   1.000  O
  O144     1.0000 0.76936  0.02667  0.85510  Biso   1.000  O
  O145     1.0000 0.77075  0.96637  0.63470  Biso   1.000  O
  O146     1.0000 0.69370  0.03700  0.65720  Biso   1.000  O
  O147     1.0000 0.79150  0.08180  0.63410  Biso   1.000  O
  O148     1.0000 0.97362  0.26795  0.13540  Biso   1.000  O
  O149     1.0000 0.06440  0.32000  0.15260  Biso   1.000  O
  O150     1.0000 0.97790  0.36630  0.25870  Biso   1.000  O
  O151     1.0000 0.73450  0.07840  0.63200  Biso   1.000  O
  O152     1.0000 0.83800  0.04700  0.65340  Biso   1.000  O
  P33      1.0000 0.50000  0.25913  0.25000  Biso   1.000  P
  P34      1.0000 0.00000  0.75913  0.25000  Biso   1.000  P
  P35      1.0000 0.50000  0.74087  0.75000  Biso   1.000  P
  P36      1.0000 0.00000  0.24087  0.75000  Biso   1.000  P
