data_image0
_cell_length_a       12.6947
_cell_length_b       12.8242
_cell_length_c       14.7971
_cell_angle_alpha    85.11
_cell_angle_beta     65.988
_cell_angle_gamma    89.663

_symmetry_space_group_name_H-M    "P 1"
_symmetry_int_tables_number       1

loop_
  _symmetry_equiv_pos_as_xyz
  'x, y, z'

loop_
  _atom_site_label
  _atom_site_occupancy
  _atom_site_fract_x
  _atom_site_fract_y
  _atom_site_fract_z
  _atom_site_thermal_displace_type
  _atom_site_B_iso_or_equiv
  _atom_site_type_symbol
  Zn1      1.0000 0.28282  0.04782  0.44211  Biso   1.000  Zn
  Zn2      1.0000 0.84472  0.40285  0.86813  Biso   1.000  Zn
  O1       1.0000 0.81880  0.46260  0.05640  Biso   1.000  O
  O2       1.0000 0.75790  0.32990  0.99970  Biso   1.000  O
  O3       1.0000 0.63980  0.23770  0.18150  Biso   1.000  O
  O4       1.0000 0.49460  0.06580  0.24950  Biso   1.000  O
  O5       1.0000 0.44390  0.10140  0.40730  Biso   1.000  O
  O6       1.0000 0.65930  0.99880  0.38260  Biso   1.000  O
  O7       1.0000 0.78570  0.90360  0.42250  Biso   1.000  O
  O8       1.0000 0.84420  0.80030  0.25900  Biso   1.000  O
  O9       1.0000 0.95090  0.64240  0.05840  Biso   1.000  O
  O10      1.0000 0.00320  0.65900  0.18500  Biso   1.000  O
  O11      1.0000 0.77310  0.34920  0.78540  Biso   1.000  O
  O12      1.0000 0.64160  0.47080  0.84030  Biso   1.000  O
  O13      1.0000 0.66700  0.27310  0.67970  Biso   1.000  O
  O14      1.0000 0.70150  0.10190  0.58050  Biso   1.000  O
  O15      1.0000 0.54180  0.13240  0.55110  Biso   1.000  O
  O16      1.0000 0.97870  0.41930  0.13670  Biso   1.000  O
  O17      1.0000 0.13800  0.44640  0.16350  Biso   1.000  O
  O18      1.0000 0.11070  0.26630  0.26940  Biso   1.000  O
  O19      1.0000 0.24640  0.16390  0.34720  Biso   1.000  O
  O20      1.0000 0.13490  0.03970  0.41110  Biso   1.000  O
  C1       1.0000 0.76460  0.37740  0.06850  Biso   1.000  C
  C2       1.0000 0.69950  0.33020  0.17100  Biso   1.000  C
  C3       1.0000 0.68090  0.36050  0.26130  Biso   1.000  C
  H1       1.0000 0.71210  0.42170  0.27440  Biso   1.000  H
  C4       1.0000 0.60590  0.28350  0.33280  Biso   1.000  C
  H2       1.0000 0.57720  0.28270  0.40300  Biso   1.000  H
  C5       1.0000 0.58350  0.21170  0.28080  Biso   1.000  C
  C6       1.0000 0.50470  0.11780  0.31080  Biso   1.000  C
  C7       1.0000 0.73320  0.92950  0.36770  Biso   1.000  C
  C8       1.0000 0.76130  0.87430  0.27690  Biso   1.000  C
  C9       1.0000 0.71800  0.87900  0.20760  Biso   1.000  C
  H3       1.0000 0.65910  0.92310  0.20430  Biso   1.000  H
  C10      1.0000 0.77810  0.80450  0.14020  Biso   1.000  C
  H4       1.0000 0.76770  0.78970  0.08240  Biso   1.000  H
  C11      1.0000 0.85310  0.75860  0.17430  Biso   1.000  C
  C12      1.0000 0.94250  0.67940  0.13600  Biso   1.000  C
  C13      1.0000 0.68300  0.39750  0.78990  Biso   1.000  C
  C14      1.0000 0.62400  0.35970  0.73040  Biso   1.000  C
  C15      1.0000 0.52830  0.39160  0.71840  Biso   1.000  C
  H5       1.0000 0.48310  0.44960  0.74540  Biso   1.000  H
  C16      1.0000 0.50900  0.32060  0.65700  Biso   1.000  C
  H6       1.0000 0.44840  0.32250  0.63490  Biso   1.000  H
  C17      1.0000 0.59370  0.25030  0.63630  Biso   1.000  C
  C18      1.0000 0.61430  0.15390  0.58440  Biso   1.000  C
  C19      1.0000 0.04860  0.39460  0.17350  Biso   1.000  C
  C20      1.0000 0.02570  0.29480  0.23800  Biso   1.000  C
  C21      1.0000 0.93670  0.22500  0.27710  Biso   1.000  C
  H7       1.0000 0.86790  0.22660  0.26630  Biso   1.000  H
  C22      1.0000 0.96540  0.14820  0.33790  Biso   1.000  C
  H8       1.0000 0.91920  0.08920  0.37650  Biso   1.000  H
  C23      1.0000 0.07170  0.17620  0.32970  Biso   1.000  C
  C24      1.0000 0.15120  0.12910  0.37120  Biso   1.000  C
  O21      1.0000 0.09650  0.06010  0.44980  Biso   1.000  O
  Zn3      1.0000 0.71718  0.95218  0.55789  Biso   1.000  Zn
  Zn4      1.0000 0.15528  0.59715  0.13187  Biso   1.000  Zn
  O22      1.0000 0.18120  0.53740  0.94360  Biso   1.000  O
  O23      1.0000 0.24210  0.67010  0.00030  Biso   1.000  O
  O24      1.0000 0.36020  0.76230  0.81850  Biso   1.000  O
  O25      1.0000 0.50540  0.93420  0.75050  Biso   1.000  O
  O26      1.0000 0.55610  0.89860  0.59270  Biso   1.000  O
  O27      1.0000 0.34070  0.00120  0.61740  Biso   1.000  O
  O28      1.0000 0.21430  0.09640  0.57750  Biso   1.000  O
  O29      1.0000 0.15580  0.19970  0.74100  Biso   1.000  O
  O30      1.0000 0.04910  0.35760  0.94160  Biso   1.000  O
  O31      1.0000 0.99680  0.34100  0.81500  Biso   1.000  O
  O32      1.0000 0.22690  0.65080  0.21460  Biso   1.000  O
  O33      1.0000 0.35840  0.52920  0.15970  Biso   1.000  O
  O34      1.0000 0.33300  0.72690  0.32030  Biso   1.000  O
  O35      1.0000 0.29850  0.89810  0.41950  Biso   1.000  O
  O36      1.0000 0.45820  0.86760  0.44890  Biso   1.000  O
  O37      1.0000 0.02130  0.58070  0.86330  Biso   1.000  O
  O38      1.0000 0.86200  0.55360  0.83650  Biso   1.000  O
  O39      1.0000 0.88930  0.73370  0.73060  Biso   1.000  O
  O40      1.0000 0.75360  0.83610  0.65280  Biso   1.000  O
  O41      1.0000 0.86510  0.96030  0.58890  Biso   1.000  O
  C25      1.0000 0.23540  0.62260  0.93150  Biso   1.000  C
  C26      1.0000 0.30050  0.66980  0.82900  Biso   1.000  C
  C27      1.0000 0.31910  0.63950  0.73870  Biso   1.000  C
  H9       1.0000 0.28790  0.57830  0.72560  Biso   1.000  H
  C28      1.0000 0.39410  0.71650  0.66720  Biso   1.000  C
  H10      1.0000 0.42280  0.71730  0.59700  Biso   1.000  H
  C29      1.0000 0.41650  0.78830  0.71920  Biso   1.000  C
  C30      1.0000 0.49530  0.88220  0.68920  Biso   1.000  C
  C31      1.0000 0.26680  0.07050  0.63230  Biso   1.000  C
  C32      1.0000 0.23870  0.12570  0.72310  Biso   1.000  C
  C33      1.0000 0.28200  0.12100  0.79240  Biso   1.000  C
  H11      1.0000 0.34090  0.07690  0.79570  Biso   1.000  H
  C34      1.0000 0.22190  0.19550  0.85980  Biso   1.000  C
  H12      1.0000 0.23230  0.21030  0.91760  Biso   1.000  H
  C35      1.0000 0.14690  0.24140  0.82570  Biso   1.000  C
  C36      1.0000 0.05750  0.32060  0.86400  Biso   1.000  C
  C37      1.0000 0.31700  0.60250  0.21010  Biso   1.000  C
  C38      1.0000 0.37600  0.64030  0.26960  Biso   1.000  C
  C39      1.0000 0.47170  0.60840  0.28160  Biso   1.000  C
  H13      1.0000 0.51690  0.55040  0.25460  Biso   1.000  H
  C40      1.0000 0.49100  0.67940  0.34300  Biso   1.000  C
  H14      1.0000 0.55160  0.67750  0.36510  Biso   1.000  H
  C41      1.0000 0.40630  0.74970  0.36370  Biso   1.000  C
  C42      1.0000 0.38570  0.84610  0.41560  Biso   1.000  C
  C43      1.0000 0.95140  0.60540  0.82650  Biso   1.000  C
  C44      1.0000 0.97430  0.70520  0.76200  Biso   1.000  C
  C45      1.0000 0.06330  0.77500  0.72290  Biso   1.000  C
  H15      1.0000 0.13210  0.77340  0.73370  Biso   1.000  H
  C46      1.0000 0.03460  0.85180  0.66210  Biso   1.000  C
  H16      1.0000 0.08080  0.91080  0.62350  Biso   1.000  H
  C47      1.0000 0.92830  0.82380  0.67030  Biso   1.000  C
  C48      1.0000 0.84880  0.87090  0.62880  Biso   1.000  C
  O42      1.0000 0.90350  0.93990  0.55020  Biso   1.000  O
  Zn5      1.0000 0.50000  0.00000  0.50000  Biso   1.000  Zn
  Zn6      1.0000 0.00000  0.50000  0.00000  Biso   1.000  Zn
