data_image0
_cell_length_a       33.7186
_cell_length_b       7.9481
_cell_length_c       20.591
_cell_angle_alpha    90
_cell_angle_beta     90
_cell_angle_gamma    90

_symmetry_space_group_name_H-M    "P 1"
_symmetry_int_tables_number       1

loop_
  _symmetry_equiv_pos_as_xyz
  'x, y, z'

loop_
  _atom_site_label
  _atom_site_occupancy
  _atom_site_fract_x
  _atom_site_fract_y
  _atom_site_fract_z
  _atom_site_thermal_displace_type
  _atom_site_B_iso_or_equiv
  _atom_site_type_symbol
  C1       1.0000 0.87639  0.22020  0.97224  Biso   1.000  C
  H1       1.0000 0.89630  0.17920  0.94380  Biso   1.000  H
  C2       1.0000 0.83683  0.19170  0.95700  Biso   1.000  C
  H2       1.0000 0.82950  0.13210  0.91890  Biso   1.000  H
  C3       1.0000 0.80722  0.24940  0.99800  Biso   1.000  C
  C4       1.0000 0.81901  0.33620  0.05350  Biso   1.000  C
  H3       1.0000 0.79910  0.37720  0.08200  Biso   1.000  H
  C5       1.0000 0.85889  0.36030  0.06590  Biso   1.000  C
  H4       1.0000 0.86620  0.41990  0.10400  Biso   1.000  H
  C6       1.0000 0.76504  0.22440  0.98200  Biso   1.000  C
  C7       1.0000 0.96411  0.25090  0.24748  Biso   1.000  C
  C8       1.0000 0.96418  0.21240  0.31373  Biso   1.000  C
  H5       1.0000 0.93990  0.19880  0.33610  Biso   1.000  H
  Cu1      1.0000 0.94524  0.33315  0.05044  Biso   1.000  Cu
  N1       1.0000 0.88762  0.30280  0.02601  Biso   1.000  N
  O1       1.0000 0.93048  0.37070  0.13967  Biso   1.000  O
  O2       1.0000 0.90662  0.09440  0.17795  Biso   1.000  O
  O3       1.0000 0.88838  0.35730  0.24241  Biso   1.000  O
  O4       1.0000 0.03838  0.18710  0.46008  Biso   1.000  O
  O5       1.0000 0.95914  0.05990  0.06995  Biso   1.000  O
  P1       1.0000 0.91955  0.27588  0.20077  Biso   1.000  P
  H6       1.0000 0.76100  0.19900  0.93740  Biso   1.000  H
  H7       1.0000 0.89820  0.02100  0.20400  Biso   1.000  H
  H8       1.0000 0.94760  0.04400  0.11260  Biso   1.000  H
  H9       1.0000 0.98750  0.04700  0.07500  Biso   1.000  H
  C9       1.0000 0.37639  0.72020  0.97224  Biso   1.000  C
  H10      1.0000 0.39630  0.67920  0.94380  Biso   1.000  H
  C10      1.0000 0.33683  0.69170  0.95700  Biso   1.000  C
  H11      1.0000 0.32950  0.63210  0.91890  Biso   1.000  H
  C11      1.0000 0.30722  0.74940  0.99800  Biso   1.000  C
  C12      1.0000 0.31901  0.83620  0.05350  Biso   1.000  C
  H12      1.0000 0.29910  0.87720  0.08200  Biso   1.000  H
  C13      1.0000 0.35889  0.86030  0.06590  Biso   1.000  C
  H13      1.0000 0.36620  0.91990  0.10400  Biso   1.000  H
  C14      1.0000 0.26504  0.72440  0.98200  Biso   1.000  C
  C15      1.0000 0.46411  0.75090  0.24748  Biso   1.000  C
  C16      1.0000 0.46418  0.71240  0.31373  Biso   1.000  C
  H14      1.0000 0.43990  0.69880  0.33610  Biso   1.000  H
  Cu2      1.0000 0.44524  0.83315  0.05044  Biso   1.000  Cu
  N2       1.0000 0.38762  0.80280  0.02601  Biso   1.000  N
  O6       1.0000 0.43048  0.87070  0.13967  Biso   1.000  O
  O7       1.0000 0.40662  0.59440  0.17795  Biso   1.000  O
  O8       1.0000 0.38838  0.85730  0.24241  Biso   1.000  O
  O9       1.0000 0.53838  0.68710  0.46008  Biso   1.000  O
  O10      1.0000 0.45914  0.55990  0.06995  Biso   1.000  O
  P2       1.0000 0.41955  0.77588  0.20077  Biso   1.000  P
  H15      1.0000 0.26100  0.69900  0.93740  Biso   1.000  H
  H16      1.0000 0.39820  0.52100  0.20400  Biso   1.000  H
  H17      1.0000 0.44760  0.54400  0.11260  Biso   1.000  H
  H18      1.0000 0.48750  0.54700  0.07500  Biso   1.000  H
  C17      1.0000 0.12361  0.27980  0.47224  Biso   1.000  C
  H19      1.0000 0.10370  0.32080  0.44380  Biso   1.000  H
  C18      1.0000 0.16317  0.30830  0.45700  Biso   1.000  C
  H20      1.0000 0.17050  0.36790  0.41890  Biso   1.000  H
  C19      1.0000 0.19278  0.25060  0.49800  Biso   1.000  C
  C20      1.0000 0.18099  0.16380  0.55350  Biso   1.000  C
  H21      1.0000 0.20090  0.12280  0.58200  Biso   1.000  H
  C21      1.0000 0.14111  0.13970  0.56590  Biso   1.000  C
  H22      1.0000 0.13380  0.08010  0.60400  Biso   1.000  H
  C22      1.0000 0.23496  0.27560  0.48200  Biso   1.000  C
  C23      1.0000 0.03589  0.24910  0.74748  Biso   1.000  C
  C24      1.0000 0.03582  0.28760  0.81373  Biso   1.000  C
  H23      1.0000 0.06010  0.30120  0.83610  Biso   1.000  H
  Cu3      1.0000 0.05476  0.16685  0.55044  Biso   1.000  Cu
  N3       1.0000 0.11238  0.19720  0.52601  Biso   1.000  N
  O11      1.0000 0.06952  0.12930  0.63967  Biso   1.000  O
  O12      1.0000 0.09338  0.40560  0.67795  Biso   1.000  O
  O13      1.0000 0.11162  0.14270  0.74241  Biso   1.000  O
  O14      1.0000 0.96162  0.31290  0.96008  Biso   1.000  O
  O15      1.0000 0.04086  0.44010  0.56995  Biso   1.000  O
  P3       1.0000 0.08045  0.22412  0.70077  Biso   1.000  P
  H24      1.0000 0.23900  0.30100  0.43740  Biso   1.000  H
  H25      1.0000 0.10180  0.47900  0.70400  Biso   1.000  H
  H26      1.0000 0.05240  0.45600  0.61260  Biso   1.000  H
  H27      1.0000 0.01250  0.45300  0.57500  Biso   1.000  H
  C25      1.0000 0.62361  0.77980  0.47224  Biso   1.000  C
  H28      1.0000 0.60370  0.82080  0.44380  Biso   1.000  H
  C26      1.0000 0.66317  0.80830  0.45700  Biso   1.000  C
  H29      1.0000 0.67050  0.86790  0.41890  Biso   1.000  H
  C27      1.0000 0.69278  0.75060  0.49800  Biso   1.000  C
  C28      1.0000 0.68099  0.66380  0.55350  Biso   1.000  C
  H30      1.0000 0.70090  0.62280  0.58200  Biso   1.000  H
  C29      1.0000 0.64111  0.63970  0.56590  Biso   1.000  C
  H31      1.0000 0.63380  0.58010  0.60400  Biso   1.000  H
  C30      1.0000 0.73496  0.77560  0.48200  Biso   1.000  C
  C31      1.0000 0.53589  0.74910  0.74748  Biso   1.000  C
  C32      1.0000 0.53582  0.78760  0.81373  Biso   1.000  C
  H32      1.0000 0.56010  0.80120  0.83610  Biso   1.000  H
  Cu4      1.0000 0.55476  0.66685  0.55044  Biso   1.000  Cu
  N4       1.0000 0.61238  0.69720  0.52601  Biso   1.000  N
  O16      1.0000 0.56952  0.62930  0.63967  Biso   1.000  O
  O17      1.0000 0.59338  0.90560  0.67795  Biso   1.000  O
  O18      1.0000 0.61162  0.64270  0.74241  Biso   1.000  O
  O19      1.0000 0.46162  0.81290  0.96008  Biso   1.000  O
  O20      1.0000 0.54086  0.94010  0.56995  Biso   1.000  O
  P4       1.0000 0.58045  0.72412  0.70077  Biso   1.000  P
  H33      1.0000 0.73900  0.80100  0.43740  Biso   1.000  H
  H34      1.0000 0.60180  0.97900  0.70400  Biso   1.000  H
  H35      1.0000 0.55240  0.95600  0.61260  Biso   1.000  H
  H36      1.0000 0.51250  0.95300  0.57500  Biso   1.000  H
  C33      1.0000 0.12361  0.72020  0.52776  Biso   1.000  C
  H37      1.0000 0.10370  0.67920  0.55620  Biso   1.000  H
  C34      1.0000 0.16317  0.69170  0.54300  Biso   1.000  C
  H38      1.0000 0.17050  0.63210  0.58110  Biso   1.000  H
  C35      1.0000 0.19278  0.74940  0.50200  Biso   1.000  C
  C36      1.0000 0.18099  0.83620  0.44650  Biso   1.000  C
  H39      1.0000 0.20090  0.87720  0.41800  Biso   1.000  H
  C37      1.0000 0.14111  0.86030  0.43410  Biso   1.000  C
  H40      1.0000 0.13380  0.91990  0.39600  Biso   1.000  H
  C38      1.0000 0.23496  0.72440  0.51800  Biso   1.000  C
  C39      1.0000 0.03589  0.75090  0.25252  Biso   1.000  C
  C40      1.0000 0.03582  0.71240  0.18627  Biso   1.000  C
  H41      1.0000 0.06010  0.69880  0.16390  Biso   1.000  H
  Cu5      1.0000 0.05476  0.83315  0.44956  Biso   1.000  Cu
  N5       1.0000 0.11238  0.80280  0.47399  Biso   1.000  N
  O21      1.0000 0.06952  0.87070  0.36033  Biso   1.000  O
  O22      1.0000 0.09338  0.59440  0.32205  Biso   1.000  O
  O23      1.0000 0.11162  0.85730  0.25759  Biso   1.000  O
  O24      1.0000 0.96162  0.68710  0.03992  Biso   1.000  O
  O25      1.0000 0.04086  0.55990  0.43005  Biso   1.000  O
  P5       1.0000 0.08045  0.77588  0.29923  Biso   1.000  P
  H42      1.0000 0.23900  0.69900  0.56260  Biso   1.000  H
  H43      1.0000 0.10180  0.52100  0.29600  Biso   1.000  H
  H44      1.0000 0.05240  0.54400  0.38740  Biso   1.000  H
  H45      1.0000 0.01250  0.54700  0.42500  Biso   1.000  H
  C41      1.0000 0.62361  0.22020  0.52776  Biso   1.000  C
  H46      1.0000 0.60370  0.17920  0.55620  Biso   1.000  H
  C42      1.0000 0.66317  0.19170  0.54300  Biso   1.000  C
  H47      1.0000 0.67050  0.13210  0.58110  Biso   1.000  H
  C43      1.0000 0.69278  0.24940  0.50200  Biso   1.000  C
  C44      1.0000 0.68099  0.33620  0.44650  Biso   1.000  C
  H48      1.0000 0.70090  0.37720  0.41800  Biso   1.000  H
  C45      1.0000 0.64111  0.36030  0.43410  Biso   1.000  C
  H49      1.0000 0.63380  0.41990  0.39600  Biso   1.000  H
  C46      1.0000 0.73496  0.22440  0.51800  Biso   1.000  C
  C47      1.0000 0.53589  0.25090  0.25252  Biso   1.000  C
  C48      1.0000 0.53582  0.21240  0.18627  Biso   1.000  C
  H50      1.0000 0.56010  0.19880  0.16390  Biso   1.000  H
  Cu6      1.0000 0.55476  0.33315  0.44956  Biso   1.000  Cu
  N6       1.0000 0.61238  0.30280  0.47399  Biso   1.000  N
  O26      1.0000 0.56952  0.37070  0.36033  Biso   1.000  O
  O27      1.0000 0.59338  0.09440  0.32205  Biso   1.000  O
  O28      1.0000 0.61162  0.35730  0.25759  Biso   1.000  O
  O29      1.0000 0.46162  0.18710  0.03992  Biso   1.000  O
  O30      1.0000 0.54086  0.05990  0.43005  Biso   1.000  O
  P6       1.0000 0.58045  0.27588  0.29923  Biso   1.000  P
  H51      1.0000 0.73900  0.19900  0.56260  Biso   1.000  H
  H52      1.0000 0.60180  0.02100  0.29600  Biso   1.000  H
  H53      1.0000 0.55240  0.04400  0.38740  Biso   1.000  H
  H54      1.0000 0.51250  0.04700  0.42500  Biso   1.000  H
  C49      1.0000 0.87639  0.77980  0.02776  Biso   1.000  C
  H55      1.0000 0.89630  0.82080  0.05620  Biso   1.000  H
  C50      1.0000 0.83683  0.80830  0.04300  Biso   1.000  C
  H56      1.0000 0.82950  0.86790  0.08110  Biso   1.000  H
  C51      1.0000 0.80722  0.75060  0.00200  Biso   1.000  C
  C52      1.0000 0.81901  0.66380  0.94650  Biso   1.000  C
  H57      1.0000 0.79910  0.62280  0.91800  Biso   1.000  H
  C53      1.0000 0.85889  0.63970  0.93410  Biso   1.000  C
  H58      1.0000 0.86620  0.58010  0.89600  Biso   1.000  H
  C54      1.0000 0.76504  0.77560  0.01800  Biso   1.000  C
  C55      1.0000 0.96411  0.74910  0.75252  Biso   1.000  C
  C56      1.0000 0.96418  0.78760  0.68627  Biso   1.000  C
  H59      1.0000 0.93990  0.80120  0.66390  Biso   1.000  H
  Cu7      1.0000 0.94524  0.66685  0.94956  Biso   1.000  Cu
  N7       1.0000 0.88762  0.69720  0.97399  Biso   1.000  N
  O31      1.0000 0.93048  0.62930  0.86033  Biso   1.000  O
  O32      1.0000 0.90662  0.90560  0.82205  Biso   1.000  O
  O33      1.0000 0.88838  0.64270  0.75759  Biso   1.000  O
  O34      1.0000 0.03838  0.81290  0.53992  Biso   1.000  O
  O35      1.0000 0.95914  0.94010  0.93005  Biso   1.000  O
  P7       1.0000 0.91955  0.72412  0.79923  Biso   1.000  P
  H60      1.0000 0.76100  0.80100  0.06260  Biso   1.000  H
  H61      1.0000 0.89820  0.97900  0.79600  Biso   1.000  H
  H62      1.0000 0.94760  0.95600  0.88740  Biso   1.000  H
  H63      1.0000 0.98750  0.95300  0.92500  Biso   1.000  H
  C57      1.0000 0.37639  0.27980  0.02776  Biso   1.000  C
  H64      1.0000 0.39630  0.32080  0.05620  Biso   1.000  H
  C58      1.0000 0.33683  0.30830  0.04300  Biso   1.000  C
  H65      1.0000 0.32950  0.36790  0.08110  Biso   1.000  H
  C59      1.0000 0.30722  0.25060  0.00200  Biso   1.000  C
  C60      1.0000 0.31901  0.16380  0.94650  Biso   1.000  C
  H66      1.0000 0.29910  0.12280  0.91800  Biso   1.000  H
  C61      1.0000 0.35889  0.13970  0.93410  Biso   1.000  C
  H67      1.0000 0.36620  0.08010  0.89600  Biso   1.000  H
  C62      1.0000 0.26504  0.27560  0.01800  Biso   1.000  C
  C63      1.0000 0.46411  0.24910  0.75252  Biso   1.000  C
  C64      1.0000 0.46418  0.28760  0.68627  Biso   1.000  C
  H68      1.0000 0.43990  0.30120  0.66390  Biso   1.000  H
  Cu8      1.0000 0.44524  0.16685  0.94956  Biso   1.000  Cu
  N8       1.0000 0.38762  0.19720  0.97399  Biso   1.000  N
  O36      1.0000 0.43048  0.12930  0.86033  Biso   1.000  O
  O37      1.0000 0.40662  0.40560  0.82205  Biso   1.000  O
  O38      1.0000 0.38838  0.14270  0.75759  Biso   1.000  O
  O39      1.0000 0.53838  0.31290  0.53992  Biso   1.000  O
  O40      1.0000 0.45914  0.44010  0.93005  Biso   1.000  O
  P8       1.0000 0.41955  0.22412  0.79923  Biso   1.000  P
  H69      1.0000 0.26100  0.30100  0.06260  Biso   1.000  H
  H70      1.0000 0.39820  0.47900  0.79600  Biso   1.000  H
  H71      1.0000 0.44760  0.45600  0.88740  Biso   1.000  H
  H72      1.0000 0.48750  0.45300  0.92500  Biso   1.000  H
  C65      1.0000 0.12361  0.77980  0.02776  Biso   1.000  C
  H73      1.0000 0.10370  0.82080  0.05620  Biso   1.000  H
  C66      1.0000 0.16317  0.80830  0.04300  Biso   1.000  C
  H74      1.0000 0.17050  0.86790  0.08110  Biso   1.000  H
  C67      1.0000 0.19278  0.75060  0.00200  Biso   1.000  C
  C68      1.0000 0.18099  0.66380  0.94650  Biso   1.000  C
  H75      1.0000 0.20090  0.62280  0.91800  Biso   1.000  H
  C69      1.0000 0.14111  0.63970  0.93410  Biso   1.000  C
  H76      1.0000 0.13380  0.58010  0.89600  Biso   1.000  H
  C70      1.0000 0.23496  0.77560  0.01800  Biso   1.000  C
  C71      1.0000 0.03589  0.74910  0.75252  Biso   1.000  C
  C72      1.0000 0.03582  0.78760  0.68627  Biso   1.000  C
  H77      1.0000 0.06010  0.80120  0.66390  Biso   1.000  H
  Cu9      1.0000 0.05476  0.66685  0.94956  Biso   1.000  Cu
  N9       1.0000 0.11238  0.69720  0.97399  Biso   1.000  N
  O41      1.0000 0.06952  0.62930  0.86033  Biso   1.000  O
  O42      1.0000 0.09338  0.90560  0.82205  Biso   1.000  O
  O43      1.0000 0.11162  0.64270  0.75759  Biso   1.000  O
  O44      1.0000 0.96162  0.81290  0.53992  Biso   1.000  O
  O45      1.0000 0.04086  0.94010  0.93005  Biso   1.000  O
  P9       1.0000 0.08045  0.72412  0.79923  Biso   1.000  P
  H78      1.0000 0.23900  0.80100  0.06260  Biso   1.000  H
  H79      1.0000 0.10180  0.97900  0.79600  Biso   1.000  H
  H80      1.0000 0.05240  0.95600  0.88740  Biso   1.000  H
  H81      1.0000 0.01250  0.95300  0.92500  Biso   1.000  H
  C73      1.0000 0.62361  0.27980  0.02776  Biso   1.000  C
  H82      1.0000 0.60370  0.32080  0.05620  Biso   1.000  H
  C74      1.0000 0.66317  0.30830  0.04300  Biso   1.000  C
  H83      1.0000 0.67050  0.36790  0.08110  Biso   1.000  H
  C75      1.0000 0.69278  0.25060  0.00200  Biso   1.000  C
  C76      1.0000 0.68099  0.16380  0.94650  Biso   1.000  C
  H84      1.0000 0.70090  0.12280  0.91800  Biso   1.000  H
  C77      1.0000 0.64111  0.13970  0.93410  Biso   1.000  C
  H85      1.0000 0.63380  0.08010  0.89600  Biso   1.000  H
  C78      1.0000 0.73496  0.27560  0.01800  Biso   1.000  C
  C79      1.0000 0.53589  0.24910  0.75252  Biso   1.000  C
  C80      1.0000 0.53582  0.28760  0.68627  Biso   1.000  C
  H86      1.0000 0.56010  0.30120  0.66390  Biso   1.000  H
  Cu10     1.0000 0.55476  0.16685  0.94956  Biso   1.000  Cu
  N10      1.0000 0.61238  0.19720  0.97399  Biso   1.000  N
  O46      1.0000 0.56952  0.12930  0.86033  Biso   1.000  O
  O47      1.0000 0.59338  0.40560  0.82205  Biso   1.000  O
  O48      1.0000 0.61162  0.14270  0.75759  Biso   1.000  O
  O49      1.0000 0.46162  0.31290  0.53992  Biso   1.000  O
  O50      1.0000 0.54086  0.44010  0.93005  Biso   1.000  O
  P10      1.0000 0.58045  0.22412  0.79923  Biso   1.000  P
  H87      1.0000 0.73900  0.30100  0.06260  Biso   1.000  H
  H88      1.0000 0.60180  0.47900  0.79600  Biso   1.000  H
  H89      1.0000 0.55240  0.45600  0.88740  Biso   1.000  H
  H90      1.0000 0.51250  0.45300  0.92500  Biso   1.000  H
  C81      1.0000 0.87639  0.72020  0.52776  Biso   1.000  C
  H91      1.0000 0.89630  0.67920  0.55620  Biso   1.000  H
  C82      1.0000 0.83683  0.69170  0.54300  Biso   1.000  C
  H92      1.0000 0.82950  0.63210  0.58110  Biso   1.000  H
  C83      1.0000 0.80722  0.74940  0.50200  Biso   1.000  C
  C84      1.0000 0.81901  0.83620  0.44650  Biso   1.000  C
  H93      1.0000 0.79910  0.87720  0.41800  Biso   1.000  H
  C85      1.0000 0.85889  0.86030  0.43410  Biso   1.000  C
  H94      1.0000 0.86620  0.91990  0.39600  Biso   1.000  H
  C86      1.0000 0.76504  0.72440  0.51800  Biso   1.000  C
  C87      1.0000 0.96411  0.75090  0.25252  Biso   1.000  C
  C88      1.0000 0.96418  0.71240  0.18627  Biso   1.000  C
  H95      1.0000 0.93990  0.69880  0.16390  Biso   1.000  H
  Cu11     1.0000 0.94524  0.83315  0.44956  Biso   1.000  Cu
  N11      1.0000 0.88762  0.80280  0.47399  Biso   1.000  N
  O51      1.0000 0.93048  0.87070  0.36033  Biso   1.000  O
  O52      1.0000 0.90662  0.59440  0.32205  Biso   1.000  O
  O53      1.0000 0.88838  0.85730  0.25759  Biso   1.000  O
  O54      1.0000 0.03838  0.68710  0.03992  Biso   1.000  O
  O55      1.0000 0.95914  0.55990  0.43005  Biso   1.000  O
  P11      1.0000 0.91955  0.77588  0.29923  Biso   1.000  P
  H96      1.0000 0.76100  0.69900  0.56260  Biso   1.000  H
  H97      1.0000 0.89820  0.52100  0.29600  Biso   1.000  H
  H98      1.0000 0.94760  0.54400  0.38740  Biso   1.000  H
  H99      1.0000 0.98750  0.54700  0.42500  Biso   1.000  H
  C89      1.0000 0.37639  0.22020  0.52776  Biso   1.000  C
  H100     1.0000 0.39630  0.17920  0.55620  Biso   1.000  H
  C90      1.0000 0.33683  0.19170  0.54300  Biso   1.000  C
  H101     1.0000 0.32950  0.13210  0.58110  Biso   1.000  H
  C91      1.0000 0.30722  0.24940  0.50200  Biso   1.000  C
  C92      1.0000 0.31901  0.33620  0.44650  Biso   1.000  C
  H102     1.0000 0.29910  0.37720  0.41800  Biso   1.000  H
  C93      1.0000 0.35889  0.36030  0.43410  Biso   1.000  C
  H103     1.0000 0.36620  0.41990  0.39600  Biso   1.000  H
  C94      1.0000 0.26504  0.22440  0.51800  Biso   1.000  C
  C95      1.0000 0.46411  0.25090  0.25252  Biso   1.000  C
  C96      1.0000 0.46418  0.21240  0.18627  Biso   1.000  C
  H104     1.0000 0.43990  0.19880  0.16390  Biso   1.000  H
  Cu12     1.0000 0.44524  0.33315  0.44956  Biso   1.000  Cu
  N12      1.0000 0.38762  0.30280  0.47399  Biso   1.000  N
  O56      1.0000 0.43048  0.37070  0.36033  Biso   1.000  O
  O57      1.0000 0.40662  0.09440  0.32205  Biso   1.000  O
  O58      1.0000 0.38838  0.35730  0.25759  Biso   1.000  O
  O59      1.0000 0.53838  0.18710  0.03992  Biso   1.000  O
  O60      1.0000 0.45914  0.05990  0.43005  Biso   1.000  O
  P12      1.0000 0.41955  0.27588  0.29923  Biso   1.000  P
  H105     1.0000 0.26100  0.19900  0.56260  Biso   1.000  H
  H106     1.0000 0.39820  0.02100  0.29600  Biso   1.000  H
  H107     1.0000 0.44760  0.04400  0.38740  Biso   1.000  H
  H108     1.0000 0.48750  0.04700  0.42500  Biso   1.000  H
  C97      1.0000 0.87639  0.27980  0.47224  Biso   1.000  C
  H109     1.0000 0.89630  0.32080  0.44380  Biso   1.000  H
  C98      1.0000 0.83683  0.30830  0.45700  Biso   1.000  C
  H110     1.0000 0.82950  0.36790  0.41890  Biso   1.000  H
  C99      1.0000 0.80722  0.25060  0.49800  Biso   1.000  C
  C100     1.0000 0.81901  0.16380  0.55350  Biso   1.000  C
  H111     1.0000 0.79910  0.12280  0.58200  Biso   1.000  H
  C101     1.0000 0.85889  0.13970  0.56590  Biso   1.000  C
  H112     1.0000 0.86620  0.08010  0.60400  Biso   1.000  H
  C102     1.0000 0.76504  0.27560  0.48200  Biso   1.000  C
  C103     1.0000 0.96411  0.24910  0.74748  Biso   1.000  C
  C104     1.0000 0.96418  0.28760  0.81373  Biso   1.000  C
  H113     1.0000 0.93990  0.30120  0.83610  Biso   1.000  H
  Cu13     1.0000 0.94524  0.16685  0.55044  Biso   1.000  Cu
  N13      1.0000 0.88762  0.19720  0.52601  Biso   1.000  N
  O61      1.0000 0.93048  0.12930  0.63967  Biso   1.000  O
  O62      1.0000 0.90662  0.40560  0.67795  Biso   1.000  O
  O63      1.0000 0.88838  0.14270  0.74241  Biso   1.000  O
  O64      1.0000 0.03838  0.31290  0.96008  Biso   1.000  O
  O65      1.0000 0.95914  0.44010  0.56995  Biso   1.000  O
  P13      1.0000 0.91955  0.22412  0.70077  Biso   1.000  P
  H114     1.0000 0.76100  0.30100  0.43740  Biso   1.000  H
  H115     1.0000 0.89820  0.47900  0.70400  Biso   1.000  H
  H116     1.0000 0.94760  0.45600  0.61260  Biso   1.000  H
  H117     1.0000 0.98750  0.45300  0.57500  Biso   1.000  H
  C105     1.0000 0.37639  0.77980  0.47224  Biso   1.000  C
  H118     1.0000 0.39630  0.82080  0.44380  Biso   1.000  H
  C106     1.0000 0.33683  0.80830  0.45700  Biso   1.000  C
  H119     1.0000 0.32950  0.86790  0.41890  Biso   1.000  H
  C107     1.0000 0.30722  0.75060  0.49800  Biso   1.000  C
  C108     1.0000 0.31901  0.66380  0.55350  Biso   1.000  C
  H120     1.0000 0.29910  0.62280  0.58200  Biso   1.000  H
  C109     1.0000 0.35889  0.63970  0.56590  Biso   1.000  C
  H121     1.0000 0.36620  0.58010  0.60400  Biso   1.000  H
  C110     1.0000 0.26504  0.77560  0.48200  Biso   1.000  C
  C111     1.0000 0.46411  0.74910  0.74748  Biso   1.000  C
  C112     1.0000 0.46418  0.78760  0.81373  Biso   1.000  C
  H122     1.0000 0.43990  0.80120  0.83610  Biso   1.000  H
  Cu14     1.0000 0.44524  0.66685  0.55044  Biso   1.000  Cu
  N14      1.0000 0.38762  0.69720  0.52601  Biso   1.000  N
  O66      1.0000 0.43048  0.62930  0.63967  Biso   1.000  O
  O67      1.0000 0.40662  0.90560  0.67795  Biso   1.000  O
  O68      1.0000 0.38838  0.64270  0.74241  Biso   1.000  O
  O69      1.0000 0.53838  0.81290  0.96008  Biso   1.000  O
  O70      1.0000 0.45914  0.94010  0.56995  Biso   1.000  O
  P14      1.0000 0.41955  0.72412  0.70077  Biso   1.000  P
  H123     1.0000 0.26100  0.80100  0.43740  Biso   1.000  H
  H124     1.0000 0.39820  0.97900  0.70400  Biso   1.000  H
  H125     1.0000 0.44760  0.95600  0.61260  Biso   1.000  H
  H126     1.0000 0.48750  0.95300  0.57500  Biso   1.000  H
  C113     1.0000 0.12361  0.22020  0.97224  Biso   1.000  C
  H127     1.0000 0.10370  0.17920  0.94380  Biso   1.000  H
  C114     1.0000 0.16317  0.19170  0.95700  Biso   1.000  C
  H128     1.0000 0.17050  0.13210  0.91890  Biso   1.000  H
  C115     1.0000 0.19278  0.24940  0.99800  Biso   1.000  C
  C116     1.0000 0.18099  0.33620  0.05350  Biso   1.000  C
  H129     1.0000 0.20090  0.37720  0.08200  Biso   1.000  H
  C117     1.0000 0.14111  0.36030  0.06590  Biso   1.000  C
  H130     1.0000 0.13380  0.41990  0.10400  Biso   1.000  H
  C118     1.0000 0.23496  0.22440  0.98200  Biso   1.000  C
  C119     1.0000 0.03589  0.25090  0.24748  Biso   1.000  C
  C120     1.0000 0.03582  0.21240  0.31373  Biso   1.000  C
  H131     1.0000 0.06010  0.19880  0.33610  Biso   1.000  H
  Cu15     1.0000 0.05476  0.33315  0.05044  Biso   1.000  Cu
  N15      1.0000 0.11238  0.30280  0.02601  Biso   1.000  N
  O71      1.0000 0.06952  0.37070  0.13967  Biso   1.000  O
  O72      1.0000 0.09338  0.09440  0.17795  Biso   1.000  O
  O73      1.0000 0.11162  0.35730  0.24241  Biso   1.000  O
  O74      1.0000 0.96162  0.18710  0.46008  Biso   1.000  O
  O75      1.0000 0.04086  0.05990  0.06995  Biso   1.000  O
  P15      1.0000 0.08045  0.27588  0.20077  Biso   1.000  P
  H132     1.0000 0.23900  0.19900  0.93740  Biso   1.000  H
  H133     1.0000 0.10180  0.02100  0.20400  Biso   1.000  H
  H134     1.0000 0.05240  0.04400  0.11260  Biso   1.000  H
  H135     1.0000 0.01250  0.04700  0.07500  Biso   1.000  H
  C121     1.0000 0.62361  0.72020  0.97224  Biso   1.000  C
  H136     1.0000 0.60370  0.67920  0.94380  Biso   1.000  H
  C122     1.0000 0.66317  0.69170  0.95700  Biso   1.000  C
  H137     1.0000 0.67050  0.63210  0.91890  Biso   1.000  H
  C123     1.0000 0.69278  0.74940  0.99800  Biso   1.000  C
  C124     1.0000 0.68099  0.83620  0.05350  Biso   1.000  C
  H138     1.0000 0.70090  0.87720  0.08200  Biso   1.000  H
  C125     1.0000 0.64111  0.86030  0.06590  Biso   1.000  C
  H139     1.0000 0.63380  0.91990  0.10400  Biso   1.000  H
  C126     1.0000 0.73496  0.72440  0.98200  Biso   1.000  C
  C127     1.0000 0.53589  0.75090  0.24748  Biso   1.000  C
  C128     1.0000 0.53582  0.71240  0.31373  Biso   1.000  C
  H140     1.0000 0.56010  0.69880  0.33610  Biso   1.000  H
  Cu16     1.0000 0.55476  0.83315  0.05044  Biso   1.000  Cu
  N16      1.0000 0.61238  0.80280  0.02601  Biso   1.000  N
  O76      1.0000 0.56952  0.87070  0.13967  Biso   1.000  O
  O77      1.0000 0.59338  0.59440  0.17795  Biso   1.000  O
  O78      1.0000 0.61162  0.85730  0.24241  Biso   1.000  O
  O79      1.0000 0.46162  0.68710  0.46008  Biso   1.000  O
  O80      1.0000 0.54086  0.55990  0.06995  Biso   1.000  O
  P16      1.0000 0.58045  0.77588  0.20077  Biso   1.000  P
  H141     1.0000 0.73900  0.69900  0.93740  Biso   1.000  H
  H142     1.0000 0.60180  0.52100  0.20400  Biso   1.000  H
  H143     1.0000 0.55240  0.54400  0.11260  Biso   1.000  H
  H144     1.0000 0.51250  0.54700  0.07500  Biso   1.000  H
  C129     1.0000 0.00000  0.26940  0.21510  Biso   1.000  C
  H145     1.0000 0.00000  0.29420  0.17000  Biso   1.000  H
  C130     1.0000 0.00000  0.19300  0.34670  Biso   1.000  C
  O81      1.0000 0.00000  0.92860  0.43059  Biso   1.000  O
  P17      1.0000 0.00000  0.12468  0.42989  Biso   1.000  P
  C131     1.0000 0.50000  0.76940  0.21510  Biso   1.000  C
  H146     1.0000 0.50000  0.79420  0.17000  Biso   1.000  H
  C132     1.0000 0.50000  0.69300  0.34670  Biso   1.000  C
  O82      1.0000 0.50000  0.42860  0.43059  Biso   1.000  O
  P18      1.0000 0.50000  0.62468  0.42989  Biso   1.000  P
  C133     1.0000 0.00000  0.23060  0.71510  Biso   1.000  C
  H147     1.0000 0.00000  0.20580  0.67000  Biso   1.000  H
  C134     1.0000 0.00000  0.30700  0.84670  Biso   1.000  C
  O83      1.0000 0.00000  0.57140  0.93059  Biso   1.000  O
  P19      1.0000 0.00000  0.37532  0.92989  Biso   1.000  P
  C135     1.0000 0.50000  0.73060  0.71510  Biso   1.000  C
  H148     1.0000 0.50000  0.70580  0.67000  Biso   1.000  H
  C136     1.0000 0.50000  0.80700  0.84670  Biso   1.000  C
  O84      1.0000 0.50000  0.07140  0.93059  Biso   1.000  O
  P20      1.0000 0.50000  0.87532  0.92989  Biso   1.000  P
  C137     1.0000 0.00000  0.76940  0.28490  Biso   1.000  C
  H149     1.0000 0.00000  0.79420  0.33000  Biso   1.000  H
  C138     1.0000 0.00000  0.69300  0.15330  Biso   1.000  C
  O85      1.0000 0.00000  0.42860  0.06941  Biso   1.000  O
  P21      1.0000 0.00000  0.62468  0.07011  Biso   1.000  P
  C139     1.0000 0.50000  0.26940  0.28490  Biso   1.000  C
  H150     1.0000 0.50000  0.29420  0.33000  Biso   1.000  H
  C140     1.0000 0.50000  0.19300  0.15330  Biso   1.000  C
  O86      1.0000 0.50000  0.92860  0.06941  Biso   1.000  O
  P22      1.0000 0.50000  0.12468  0.07011  Biso   1.000  P
  C141     1.0000 0.00000  0.73060  0.78490  Biso   1.000  C
  H151     1.0000 0.00000  0.70580  0.83000  Biso   1.000  H
  C142     1.0000 0.00000  0.80700  0.65330  Biso   1.000  C
  O87      1.0000 0.00000  0.07140  0.56941  Biso   1.000  O
  P23      1.0000 0.00000  0.87532  0.57011  Biso   1.000  P
  C143     1.0000 0.50000  0.23060  0.78490  Biso   1.000  C
  H152     1.0000 0.50000  0.20580  0.83000  Biso   1.000  H
  C144     1.0000 0.50000  0.30700  0.65330  Biso   1.000  C
  O88      1.0000 0.50000  0.57140  0.56941  Biso   1.000  O
  P24      1.0000 0.50000  0.37532  0.57011  Biso   1.000  P
