data_image0
_cell_length_a       18.711
_cell_length_b       17.937
_cell_length_c       19.217
_cell_angle_alpha    90
_cell_angle_beta     117.06
_cell_angle_gamma    90

_symmetry_space_group_name_H-M    "P 1"
_symmetry_int_tables_number       1

loop_
  _symmetry_equiv_pos_as_xyz
  'x, y, z'

loop_
  _atom_site_label
  _atom_site_occupancy
  _atom_site_fract_x
  _atom_site_fract_y
  _atom_site_fract_z
  _atom_site_thermal_displace_type
  _atom_site_B_iso_or_equiv
  _atom_site_type_symbol
  Co1      1.0000 0.26170  0.16298  0.99882  Biso   1.000  Co
  N1       1.0000 0.31240  0.16840  0.12470  Biso   1.000  N
  N2       1.0000 0.21560  0.16800  0.87360  Biso   1.000  N
  C1       1.0000 0.23890  0.98970  0.00430  Biso   1.000  C
  H1       1.0000 0.29400  0.98170  0.02760  Biso   1.000  H
  N3       1.0000 0.32660  0.39570  0.02310  Biso   1.000  N
  C2       1.0000 0.27720  0.33650  0.99140  Biso   1.000  C
  H2       1.0000 0.22190  0.34060  0.96200  Biso   1.000  H
  N4       1.0000 0.16170  0.13460  0.74900  Biso   1.000  N
  N5       1.0000 0.37240  0.14370  0.25190  Biso   1.000  N
  N6       1.0000 0.31590  0.27330  0.00680  Biso   1.000  N
  N7       1.0000 0.18290  0.93410  0.98110  Biso   1.000  N
  C3       1.0000 0.11450  0.09530  0.67810  Biso   1.000  C
  C4       1.0000 0.40880  0.10310  0.32380  Biso   1.000  C
  N8       1.0000 0.20490  0.05640  0.98940  Biso   1.000  N
  C5       1.0000 0.33750  0.11520  0.17810  Biso   1.000  C
  H3       1.0000 0.33190  0.06450  0.16660  Biso   1.000  H
  C6       1.0000 0.25880  0.62280  0.00690  Biso   1.000  C
  C7       1.0000 0.31660  0.59190  0.07670  Biso   1.000  C
  H4       1.0000 0.34150  0.62260  0.12020  Biso   1.000  H
  C8       1.0000 0.23850  0.70380  0.00120  Biso   1.000  C
  C9       1.0000 0.30300  0.47320  0.01780  Biso   1.000  C
  N9       1.0000 0.15400  0.28630  0.49060  Biso   1.000  N
  C10      1.0000 0.22250  0.57490  0.94300  Biso   1.000  C
  H5       1.0000 0.18260  0.59330  0.89610  Biso   1.000  H
  C11      1.0000 0.27320  0.83060  0.04480  Biso   1.000  C
  H6       1.0000 0.31030  0.86420  0.07920  Biso   1.000  H
  C12      1.0000 0.39630  0.29300  0.05200  Biso   1.000  C
  H7       1.0000 0.43900  0.25960  0.07170  Biso   1.000  H
  C13      1.0000 0.40300  0.36690  0.06290  Biso   1.000  C
  H8       1.0000 0.45000  0.39350  0.09160  Biso   1.000  H
  C14      1.0000 0.14410  0.80450  0.93960  Biso   1.000  C
  H9       1.0000 0.09420  0.82040  0.90170  Biso   1.000  H
  C15      1.0000 0.16260  0.72980  0.94660  Biso   1.000  C
  H10      1.0000 0.12420  0.69570  0.91470  Biso   1.000  H
  C16      1.0000 0.33830  0.51650  0.08350  Biso   1.000  C
  H11      1.0000 0.37540  0.49650  0.13100  Biso   1.000  H
  C17      1.0000 0.29150  0.75620  0.05000  Biso   1.000  C
  H12      1.0000 0.34150  0.74040  0.08780  Biso   1.000  H
  N10      1.0000 0.36980  0.11270  0.00640  Biso   1.000  N
  C18      1.0000 0.19890  0.85600  0.98800  Biso   1.000  C
  C19      1.0000 0.12290  0.04210  0.95560  Biso   1.000  C
  H13      1.0000 0.08310  0.07850  0.93960  Biso   1.000  H
  C20      1.0000 0.24450  0.50040  0.94790  Biso   1.000  C
  H14      1.0000 0.22020  0.46940  0.90460  Biso   1.000  H
  N11      1.0000 0.03990  0.22430  0.44750  Biso   1.000  N
  C21      1.0000 0.09970  0.24880  0.43180  Biso   1.000  C
  H15      1.0000 0.10180  0.24010  0.38500  Biso   1.000  H
  C22      1.0000 0.12730  0.28790  0.54710  Biso   1.000  C
  H16      1.0000 0.15350  0.31130  0.59540  Biso   1.000  H
  C23      1.0000 0.05680  0.24980  0.52090  Biso   1.000  C
  H17      1.0000 0.02620  0.24260  0.54730  Biso   1.000  H
  C24      1.0000 0.37630  0.03740  0.33140  Biso   1.000  C
  H18      1.0000 0.32940  0.02000  0.29010  Biso   1.000  H
  C25      1.0000 0.96770  0.18620  0.39280  Biso   1.000  C
  C26      1.0000 0.96590  0.14980  0.32920  Biso   1.000  C
  H19      1.0000 0.01270  0.14450  0.32400  Biso   1.000  H
  C27      1.0000 0.24050  0.21530  0.83270  Biso   1.000  C
  H20      1.0000 0.27490  0.25550  0.85440  Biso   1.000  H
  C28      1.0000 0.58630  0.09340  0.10460  Biso   1.000  C
  C29      1.0000 0.48020  0.02200  0.46300  Biso   1.000  C
  C30      1.0000 0.41260  0.99550  0.40050  Biso   1.000  C
  H21      1.0000 0.39080  0.94990  0.40400  Biso   1.000  H
  N12      1.0000 0.50080  0.09510  0.05030  Biso   1.000  N
  C31      1.0000 0.44050  0.11020  0.06850  Biso   1.000  C
  H22      1.0000 0.44810  0.11800  0.11920  Biso   1.000  H
  C32      1.0000 0.60820  0.06060  0.17690  Biso   1.000  C
  H23      1.0000 0.57100  0.03540  0.18770  Biso   1.000  H
  C33      1.0000 0.36940  0.21990  0.24430  Biso   1.000  C
  H24      1.0000 0.38950  0.25470  0.28460  Biso   1.000  H
  C34      1.0000 0.64000  0.12450  0.08410  Biso   1.000  C
  H25      1.0000 0.62420  0.14180  0.03360  Biso   1.000  H
  C35      1.0000 0.74380  0.10570  0.21570  Biso   1.000  C
  C36      1.0000 0.33200  0.23450  0.16770  Biso   1.000  C
  H26      1.0000 0.32060  0.28210  0.14610  Biso   1.000  H
  C37      1.0000 0.68910  0.06700  0.23340  Biso   1.000  C
  H27      1.0000 0.70610  0.04560  0.28240  Biso   1.000  H
  C38      1.0000 0.20840  0.19550  0.75720  Biso   1.000  C
  H28      1.0000 0.21640  0.21870  0.71810  Biso   1.000  H
  C39      1.0000 0.16750  0.12020  0.82010  Biso   1.000  C
  H29      1.0000 0.14100  0.08120  0.83050  Biso   1.000  H
  C40      1.0000 0.82450  0.12580  0.28040  Biso   1.000  C
  C41      1.0000 0.02460  0.02030  0.53700  Biso   1.000  C
  C42      1.0000 0.14830  0.08020  0.62810  Biso   1.000  C
  H30      1.0000 0.20040  0.09500  0.64060  Biso   1.000  H
  C43      1.0000 0.82890  0.15920  0.34760  Biso   1.000  C
  H31      1.0000 0.78330  0.16130  0.35520  Biso   1.000  H
  C44      1.0000 0.89360  0.12070  0.27220  Biso   1.000  C
  H32      1.0000 0.89220  0.09760  0.22830  Biso   1.000  H
  C45      1.0000 0.90010  0.18920  0.40330  Biso   1.000  C
  H33      1.0000 0.90200  0.21150  0.44780  Biso   1.000  H
  C46      1.0000 0.10940  0.96900  0.94960  Biso   1.000  C
  H34      1.0000 0.05950  0.94570  0.92800  Biso   1.000  H
  C47      1.0000 0.46590  0.08600  0.97000  Biso   1.000  C
  H35      1.0000 0.49160  0.07500  0.93970  Biso   1.000  H
  C48      1.0000 0.38670  0.09660  0.94510  Biso   1.000  C
  H36      1.0000 0.34820  0.09340  0.89320  Biso   1.000  H
  C49      1.0000 0.71970  0.12980  0.14100  Biso   1.000  C
  H37      1.0000 0.75750  0.15030  0.12770  Biso   1.000  H
  C50      1.0000 0.10150  0.04200  0.55860  Biso   1.000  C
  H38      1.0000 0.12400  0.03090  0.52550  Biso   1.000  H
  C51      1.0000 0.47520  0.12940  0.38490  Biso   1.000  C
  H39      1.0000 0.49730  0.17460  0.38080  Biso   1.000  H
  C52      1.0000 0.51060  0.08910  0.45380  Biso   1.000  C
  H40      1.0000 0.55640  0.10800  0.49540  Biso   1.000  H
  C53      1.0000 0.04000  0.05800  0.66660  Biso   1.000  C
  H41      1.0000 0.02250  0.06050  0.70490  Biso   1.000  H
  C54      1.0000 0.99450  0.01900  0.59550  Biso   1.000  C
  H42      1.0000 0.94770  0.99390  0.58640  Biso   1.000  H
  C55      1.0000 0.03800  0.08800  0.65100  Biso   1.000  C
  C56      1.0000 0.99470  0.05300  0.58120  Biso   1.000  C
  H43      1.0000 0.01280  0.10640  0.67930  Biso   1.000  H
  H44      1.0000 0.93930  0.05250  0.56230  Biso   1.000  H
  Co2      1.0000 0.73830  0.66298  0.50118  Biso   1.000  Co
  N13      1.0000 0.68760  0.66840  0.37530  Biso   1.000  N
  N14      1.0000 0.78440  0.66800  0.62640  Biso   1.000  N
  C57      1.0000 0.76110  0.48970  0.49570  Biso   1.000  C
  H45      1.0000 0.70600  0.48170  0.47240  Biso   1.000  H
  N15      1.0000 0.67340  0.89570  0.47690  Biso   1.000  N
  C58      1.0000 0.72280  0.83650  0.50860  Biso   1.000  C
  H46      1.0000 0.77810  0.84060  0.53800  Biso   1.000  H
  N16      1.0000 0.83830  0.63460  0.75100  Biso   1.000  N
  N17      1.0000 0.62760  0.64370  0.24810  Biso   1.000  N
  N18      1.0000 0.68410  0.77330  0.49320  Biso   1.000  N
  N19      1.0000 0.81710  0.43410  0.51890  Biso   1.000  N
  C59      1.0000 0.88550  0.59530  0.82190  Biso   1.000  C
  C60      1.0000 0.59120  0.60310  0.17620  Biso   1.000  C
  N20      1.0000 0.79510  0.55640  0.51060  Biso   1.000  N
  C61      1.0000 0.66250  0.61520  0.32190  Biso   1.000  C
  H47      1.0000 0.66810  0.56450  0.33340  Biso   1.000  H
  C62      1.0000 0.74120  0.12280  0.49310  Biso   1.000  C
  C63      1.0000 0.68340  0.09190  0.42330  Biso   1.000  C
  H48      1.0000 0.65850  0.12260  0.37980  Biso   1.000  H
  C64      1.0000 0.76150  0.20380  0.49880  Biso   1.000  C
  C65      1.0000 0.69700  0.97320  0.48220  Biso   1.000  C
  N21      1.0000 0.84600  0.78630  0.00940  Biso   1.000  N
  C66      1.0000 0.77750  0.07490  0.55700  Biso   1.000  C
  H49      1.0000 0.81740  0.09330  0.60390  Biso   1.000  H
  C67      1.0000 0.72680  0.33060  0.45520  Biso   1.000  C
  H50      1.0000 0.68970  0.36420  0.42080  Biso   1.000  H
  C68      1.0000 0.60370  0.79300  0.44800  Biso   1.000  C
  H51      1.0000 0.56100  0.75960  0.42830  Biso   1.000  H
  C69      1.0000 0.59700  0.86690  0.43710  Biso   1.000  C
  H52      1.0000 0.55000  0.89350  0.40840  Biso   1.000  H
  C70      1.0000 0.85590  0.30450  0.56040  Biso   1.000  C
  H53      1.0000 0.90580  0.32040  0.59830  Biso   1.000  H
  C71      1.0000 0.83740  0.22980  0.55340  Biso   1.000  C
  H54      1.0000 0.87580  0.19570  0.58530  Biso   1.000  H
  C72      1.0000 0.66170  0.01650  0.41650  Biso   1.000  C
  H55      1.0000 0.62460  0.99650  0.36900  Biso   1.000  H
  C73      1.0000 0.70850  0.25620  0.45000  Biso   1.000  C
  H56      1.0000 0.65850  0.24040  0.41220  Biso   1.000  H
  N22      1.0000 0.63020  0.61270  0.49360  Biso   1.000  N
  C74      1.0000 0.80110  0.35600  0.51200  Biso   1.000  C
  C75      1.0000 0.87710  0.54210  0.54440  Biso   1.000  C
  H57      1.0000 0.91690  0.57850  0.56040  Biso   1.000  H
  C76      1.0000 0.75550  0.00040  0.55210  Biso   1.000  C
  H58      1.0000 0.77980  0.96940  0.59540  Biso   1.000  H
  N23      1.0000 0.96010  0.72430  0.05250  Biso   1.000  N
  C77      1.0000 0.90030  0.74880  0.06820  Biso   1.000  C
  H59      1.0000 0.89820  0.74010  0.11500  Biso   1.000  H
  C78      1.0000 0.87270  0.78790  0.95290  Biso   1.000  C
  H60      1.0000 0.84650  0.81130  0.90460  Biso   1.000  H
  C79      1.0000 0.94320  0.74980  0.97910  Biso   1.000  C
  H61      1.0000 0.97380  0.74260  0.95270  Biso   1.000  H
  C80      1.0000 0.62370  0.53740  0.16860  Biso   1.000  C
  H62      1.0000 0.67060  0.52000  0.20990  Biso   1.000  H
  C81      1.0000 0.03230  0.68620  0.10720  Biso   1.000  C
  C82      1.0000 0.03410  0.64980  0.17080  Biso   1.000  C
  H63      1.0000 0.98730  0.64450  0.17600  Biso   1.000  H
  C83      1.0000 0.75950  0.71530  0.66730  Biso   1.000  C
  H64      1.0000 0.72510  0.75550  0.64560  Biso   1.000  H
  C84      1.0000 0.41370  0.59340  0.39540  Biso   1.000  C
  C85      1.0000 0.51980  0.52200  0.03700  Biso   1.000  C
  C86      1.0000 0.58740  0.49550  0.09950  Biso   1.000  C
  H65      1.0000 0.60920  0.44990  0.09600  Biso   1.000  H
  N24      1.0000 0.49920  0.59510  0.44970  Biso   1.000  N
  C87      1.0000 0.55950  0.61020  0.43150  Biso   1.000  C
  H66      1.0000 0.55190  0.61800  0.38080  Biso   1.000  H
  C88      1.0000 0.39180  0.56060  0.32310  Biso   1.000  C
  H67      1.0000 0.42900  0.53540  0.31230  Biso   1.000  H
  C89      1.0000 0.63060  0.71990  0.25570  Biso   1.000  C
  H68      1.0000 0.61050  0.75470  0.21540  Biso   1.000  H
  C90      1.0000 0.36000  0.62450  0.41590  Biso   1.000  C
  H69      1.0000 0.37580  0.64180  0.46640  Biso   1.000  H
  C91      1.0000 0.25620  0.60570  0.28430  Biso   1.000  C
  C92      1.0000 0.66800  0.73450  0.33230  Biso   1.000  C
  H70      1.0000 0.67940  0.78210  0.35390  Biso   1.000  H
  C93      1.0000 0.31090  0.56700  0.26660  Biso   1.000  C
  H71      1.0000 0.29390  0.54560  0.21760  Biso   1.000  H
  C94      1.0000 0.79160  0.69550  0.74280  Biso   1.000  C
  H72      1.0000 0.78360  0.71870  0.78190  Biso   1.000  H
  C95      1.0000 0.83250  0.62020  0.67990  Biso   1.000  C
  H73      1.0000 0.85900  0.58120  0.66950  Biso   1.000  H
  C96      1.0000 0.17550  0.62580  0.21960  Biso   1.000  C
  C97      1.0000 0.97540  0.52030  0.96300  Biso   1.000  C
  C98      1.0000 0.85170  0.58020  0.87190  Biso   1.000  C
  H74      1.0000 0.79960  0.59500  0.85940  Biso   1.000  H
  C99      1.0000 0.17110  0.65920  0.15240  Biso   1.000  C
  H75      1.0000 0.21670  0.66130  0.14480  Biso   1.000  H
  C100     1.0000 0.10640  0.62070  0.22780  Biso   1.000  C
  H76      1.0000 0.10780  0.59760  0.27170  Biso   1.000  H
  C101     1.0000 0.09990  0.68920  0.09670  Biso   1.000  C
  H77      1.0000 0.09800  0.71150  0.05220  Biso   1.000  H
  C102     1.0000 0.89060  0.46900  0.55040  Biso   1.000  C
  H78      1.0000 0.94050  0.44570  0.57200  Biso   1.000  H
  C103     1.0000 0.53410  0.58600  0.53000  Biso   1.000  C
  H79      1.0000 0.50840  0.57500  0.56030  Biso   1.000  H
  C104     1.0000 0.61330  0.59660  0.55490  Biso   1.000  C
  H80      1.0000 0.65180  0.59340  0.60680  Biso   1.000  H
  C105     1.0000 0.28030  0.62980  0.35900  Biso   1.000  C
  H81      1.0000 0.24250  0.65030  0.37230  Biso   1.000  H
  C106     1.0000 0.89850  0.54200  0.94140  Biso   1.000  C
  H82      1.0000 0.87600  0.53090  0.97450  Biso   1.000  H
  C107     1.0000 0.52480  0.62940  0.11510  Biso   1.000  C
  H83      1.0000 0.50270  0.67460  0.11920  Biso   1.000  H
  C108     1.0000 0.48940  0.58910  0.04620  Biso   1.000  C
  H84      1.0000 0.44360  0.60800  0.00460  Biso   1.000  H
  C109     1.0000 0.96000  0.55800  0.83340  Biso   1.000  C
  H85      1.0000 0.97750  0.56050  0.79510  Biso   1.000  H
  C110     1.0000 0.00550  0.51900  0.90450  Biso   1.000  C
  H86      1.0000 0.05230  0.49390  0.91360  Biso   1.000  H
  C111     1.0000 0.96200  0.58800  0.84900  Biso   1.000  C
  C112     1.0000 0.00530  0.55300  0.91880  Biso   1.000  C
  H87      1.0000 0.98720  0.60640  0.82070  Biso   1.000  H
  H88      1.0000 0.06070  0.55250  0.93770  Biso   1.000  H
  Co3      1.0000 0.73830  0.83702  0.00118  Biso   1.000  Co
  N25      1.0000 0.68760  0.83160  0.87530  Biso   1.000  N
  N26      1.0000 0.78440  0.83200  0.12640  Biso   1.000  N
  C113     1.0000 0.76110  0.01030  0.99570  Biso   1.000  C
  H89      1.0000 0.70600  0.01830  0.97240  Biso   1.000  H
  N27      1.0000 0.67340  0.60430  0.97690  Biso   1.000  N
  C114     1.0000 0.72280  0.66350  0.00860  Biso   1.000  C
  H90      1.0000 0.77810  0.65940  0.03800  Biso   1.000  H
  N28      1.0000 0.83830  0.86540  0.25100  Biso   1.000  N
  N29      1.0000 0.62760  0.85630  0.74810  Biso   1.000  N
  N30      1.0000 0.68410  0.72670  0.99320  Biso   1.000  N
  N31      1.0000 0.81710  0.06590  0.01890  Biso   1.000  N
  C115     1.0000 0.88550  0.90470  0.32190  Biso   1.000  C
  C116     1.0000 0.59120  0.89690  0.67620  Biso   1.000  C
  N32      1.0000 0.79510  0.94360  0.01060  Biso   1.000  N
  C117     1.0000 0.66250  0.88480  0.82190  Biso   1.000  C
  H91      1.0000 0.66810  0.93550  0.83340  Biso   1.000  H
  C118     1.0000 0.74120  0.37720  0.99310  Biso   1.000  C
  C119     1.0000 0.68340  0.40810  0.92330  Biso   1.000  C
  H92      1.0000 0.65850  0.37740  0.87980  Biso   1.000  H
  C120     1.0000 0.76150  0.29620  0.99880  Biso   1.000  C
  C121     1.0000 0.69700  0.52680  0.98220  Biso   1.000  C
  N33      1.0000 0.84600  0.71370  0.50940  Biso   1.000  N
  C122     1.0000 0.77750  0.42510  0.05700  Biso   1.000  C
  H93      1.0000 0.81740  0.40670  0.10390  Biso   1.000  H
  C123     1.0000 0.72680  0.16940  0.95520  Biso   1.000  C
  H94      1.0000 0.68970  0.13580  0.92080  Biso   1.000  H
  C124     1.0000 0.60370  0.70700  0.94800  Biso   1.000  C
  H95      1.0000 0.56100  0.74040  0.92830  Biso   1.000  H
  C125     1.0000 0.59700  0.63310  0.93710  Biso   1.000  C
  H96      1.0000 0.55000  0.60650  0.90840  Biso   1.000  H
  C126     1.0000 0.85590  0.19550  0.06040  Biso   1.000  C
  H97      1.0000 0.90580  0.17960  0.09830  Biso   1.000  H
  C127     1.0000 0.83740  0.27020  0.05340  Biso   1.000  C
  H98      1.0000 0.87580  0.30430  0.08530  Biso   1.000  H
  C128     1.0000 0.66170  0.48350  0.91650  Biso   1.000  C
  H99      1.0000 0.62460  0.50350  0.86900  Biso   1.000  H
  C129     1.0000 0.70850  0.24380  0.95000  Biso   1.000  C
  H100     1.0000 0.65850  0.25960  0.91220  Biso   1.000  H
  N34      1.0000 0.63020  0.88730  0.99360  Biso   1.000  N
  C130     1.0000 0.80110  0.14400  0.01200  Biso   1.000  C
  C131     1.0000 0.87710  0.95790  0.04440  Biso   1.000  C
  H101     1.0000 0.91690  0.92150  0.06040  Biso   1.000  H
  C132     1.0000 0.75550  0.49960  0.05210  Biso   1.000  C
  H102     1.0000 0.77980  0.53060  0.09540  Biso   1.000  H
  N35      1.0000 0.96010  0.77570  0.55250  Biso   1.000  N
  C133     1.0000 0.90030  0.75120  0.56820  Biso   1.000  C
  H103     1.0000 0.89820  0.75990  0.61500  Biso   1.000  H
  C134     1.0000 0.87270  0.71210  0.45290  Biso   1.000  C
  H104     1.0000 0.84650  0.68870  0.40460  Biso   1.000  H
  C135     1.0000 0.94320  0.75020  0.47910  Biso   1.000  C
  H105     1.0000 0.97380  0.75740  0.45270  Biso   1.000  H
  C136     1.0000 0.62370  0.96260  0.66860  Biso   1.000  C
  H106     1.0000 0.67060  0.98000  0.70990  Biso   1.000  H
  C137     1.0000 0.03230  0.81380  0.60720  Biso   1.000  C
  C138     1.0000 0.03410  0.85020  0.67080  Biso   1.000  C
  H107     1.0000 0.98730  0.85550  0.67600  Biso   1.000  H
  C139     1.0000 0.75950  0.78470  0.16730  Biso   1.000  C
  H108     1.0000 0.72510  0.74450  0.14560  Biso   1.000  H
  C140     1.0000 0.41370  0.90660  0.89540  Biso   1.000  C
  C141     1.0000 0.51980  0.97800  0.53700  Biso   1.000  C
  C142     1.0000 0.58740  0.00450  0.59950  Biso   1.000  C
  H109     1.0000 0.60920  0.05010  0.59600  Biso   1.000  H
  N36      1.0000 0.49920  0.90490  0.94970  Biso   1.000  N
  C143     1.0000 0.55950  0.88980  0.93150  Biso   1.000  C
  H110     1.0000 0.55190  0.88200  0.88080  Biso   1.000  H
  C144     1.0000 0.39180  0.93940  0.82310  Biso   1.000  C
  H111     1.0000 0.42900  0.96460  0.81230  Biso   1.000  H
  C145     1.0000 0.63060  0.78010  0.75570  Biso   1.000  C
  H112     1.0000 0.61050  0.74530  0.71540  Biso   1.000  H
  C146     1.0000 0.36000  0.87550  0.91590  Biso   1.000  C
  H113     1.0000 0.37580  0.85820  0.96640  Biso   1.000  H
  C147     1.0000 0.25620  0.89430  0.78430  Biso   1.000  C
  C148     1.0000 0.66800  0.76550  0.83230  Biso   1.000  C
  H114     1.0000 0.67940  0.71790  0.85390  Biso   1.000  H
  C149     1.0000 0.31090  0.93300  0.76660  Biso   1.000  C
  H115     1.0000 0.29390  0.95440  0.71760  Biso   1.000  H
  C150     1.0000 0.79160  0.80450  0.24280  Biso   1.000  C
  H116     1.0000 0.78360  0.78130  0.28190  Biso   1.000  H
  C151     1.0000 0.83250  0.87980  0.17990  Biso   1.000  C
  H117     1.0000 0.85900  0.91880  0.16950  Biso   1.000  H
  C152     1.0000 0.17550  0.87420  0.71960  Biso   1.000  C
  C153     1.0000 0.97540  0.97970  0.46300  Biso   1.000  C
  C154     1.0000 0.85170  0.91980  0.37190  Biso   1.000  C
  H118     1.0000 0.79960  0.90500  0.35940  Biso   1.000  H
  C155     1.0000 0.17110  0.84080  0.65240  Biso   1.000  C
  H119     1.0000 0.21670  0.83870  0.64480  Biso   1.000  H
  C156     1.0000 0.10640  0.87930  0.72780  Biso   1.000  C
  H120     1.0000 0.10780  0.90240  0.77170  Biso   1.000  H
  C157     1.0000 0.09990  0.81080  0.59670  Biso   1.000  C
  H121     1.0000 0.09800  0.78850  0.55220  Biso   1.000  H
  C158     1.0000 0.89060  0.03100  0.05040  Biso   1.000  C
  H122     1.0000 0.94050  0.05430  0.07200  Biso   1.000  H
  C159     1.0000 0.53410  0.91400  0.03000  Biso   1.000  C
  H123     1.0000 0.50840  0.92500  0.06030  Biso   1.000  H
  C160     1.0000 0.61330  0.90340  0.05490  Biso   1.000  C
  H124     1.0000 0.65180  0.90660  0.10680  Biso   1.000  H
  C161     1.0000 0.28030  0.87020  0.85900  Biso   1.000  C
  H125     1.0000 0.24250  0.84970  0.87230  Biso   1.000  H
  C162     1.0000 0.89850  0.95800  0.44140  Biso   1.000  C
  H126     1.0000 0.87600  0.96910  0.47450  Biso   1.000  H
  C163     1.0000 0.52480  0.87060  0.61510  Biso   1.000  C
  H127     1.0000 0.50270  0.82540  0.61920  Biso   1.000  H
  C164     1.0000 0.48940  0.91090  0.54620  Biso   1.000  C
  H128     1.0000 0.44360  0.89200  0.50460  Biso   1.000  H
  C165     1.0000 0.96000  0.94200  0.33340  Biso   1.000  C
  H129     1.0000 0.97750  0.93950  0.29510  Biso   1.000  H
  C166     1.0000 0.00550  0.98100  0.40450  Biso   1.000  C
  H130     1.0000 0.05230  0.00610  0.41360  Biso   1.000  H
  C167     1.0000 0.96200  0.91200  0.34900  Biso   1.000  C
  C168     1.0000 0.00530  0.94700  0.41880  Biso   1.000  C
  H131     1.0000 0.98720  0.89360  0.32070  Biso   1.000  H
  H132     1.0000 0.06070  0.94750  0.43770  Biso   1.000  H
  Co4      1.0000 0.26170  0.33702  0.49882  Biso   1.000  Co
  N37      1.0000 0.31240  0.33160  0.62470  Biso   1.000  N
  N38      1.0000 0.21560  0.33200  0.37360  Biso   1.000  N
  C169     1.0000 0.23890  0.51030  0.50430  Biso   1.000  C
  H133     1.0000 0.29400  0.51830  0.52760  Biso   1.000  H
  N39      1.0000 0.32660  0.10430  0.52310  Biso   1.000  N
  C170     1.0000 0.27720  0.16350  0.49140  Biso   1.000  C
  H134     1.0000 0.22190  0.15940  0.46200  Biso   1.000  H
  N40      1.0000 0.16170  0.36540  0.24900  Biso   1.000  N
  N41      1.0000 0.37240  0.35630  0.75190  Biso   1.000  N
  N42      1.0000 0.31590  0.22670  0.50680  Biso   1.000  N
  N43      1.0000 0.18290  0.56590  0.48110  Biso   1.000  N
  C171     1.0000 0.11450  0.40470  0.17810  Biso   1.000  C
  C172     1.0000 0.40880  0.39690  0.82380  Biso   1.000  C
  N44      1.0000 0.20490  0.44360  0.48940  Biso   1.000  N
  C173     1.0000 0.33750  0.38480  0.67810  Biso   1.000  C
  H135     1.0000 0.33190  0.43550  0.66660  Biso   1.000  H
  C174     1.0000 0.25880  0.87720  0.50690  Biso   1.000  C
  C175     1.0000 0.31660  0.90810  0.57670  Biso   1.000  C
  H136     1.0000 0.34150  0.87740  0.62020  Biso   1.000  H
  C176     1.0000 0.23850  0.79620  0.50120  Biso   1.000  C
  C177     1.0000 0.30300  0.02680  0.51780  Biso   1.000  C
  N45      1.0000 0.15400  0.21370  0.99060  Biso   1.000  N
  C178     1.0000 0.22250  0.92510  0.44300  Biso   1.000  C
  H137     1.0000 0.18260  0.90670  0.39610  Biso   1.000  H
  C179     1.0000 0.27320  0.66940  0.54480  Biso   1.000  C
  H138     1.0000 0.31030  0.63580  0.57920  Biso   1.000  H
  C180     1.0000 0.39630  0.20700  0.55200  Biso   1.000  C
  H139     1.0000 0.43900  0.24040  0.57170  Biso   1.000  H
  C181     1.0000 0.40300  0.13310  0.56290  Biso   1.000  C
  H140     1.0000 0.45000  0.10650  0.59160  Biso   1.000  H
  C182     1.0000 0.14410  0.69550  0.43960  Biso   1.000  C
  H141     1.0000 0.09420  0.67960  0.40170  Biso   1.000  H
  C183     1.0000 0.16260  0.77020  0.44660  Biso   1.000  C
  H142     1.0000 0.12420  0.80430  0.41470  Biso   1.000  H
  C184     1.0000 0.33830  0.98350  0.58350  Biso   1.000  C
  H143     1.0000 0.37540  0.00350  0.63100  Biso   1.000  H
  C185     1.0000 0.29150  0.74380  0.55000  Biso   1.000  C
  H144     1.0000 0.34150  0.75960  0.58780  Biso   1.000  H
  N46      1.0000 0.36980  0.38730  0.50640  Biso   1.000  N
  C186     1.0000 0.19890  0.64400  0.48800  Biso   1.000  C
  C187     1.0000 0.12290  0.45790  0.45560  Biso   1.000  C
  H145     1.0000 0.08310  0.42150  0.43960  Biso   1.000  H
  C188     1.0000 0.24450  0.99960  0.44790  Biso   1.000  C
  H146     1.0000 0.22020  0.03060  0.40460  Biso   1.000  H
  N47      1.0000 0.03990  0.27570  0.94750  Biso   1.000  N
  C189     1.0000 0.09970  0.25120  0.93180  Biso   1.000  C
  H147     1.0000 0.10180  0.25990  0.88500  Biso   1.000  H
  C190     1.0000 0.12730  0.21210  0.04710  Biso   1.000  C
  H148     1.0000 0.15350  0.18870  0.09540  Biso   1.000  H
  C191     1.0000 0.05680  0.25020  0.02090  Biso   1.000  C
  H149     1.0000 0.02620  0.25740  0.04730  Biso   1.000  H
  C192     1.0000 0.37630  0.46260  0.83140  Biso   1.000  C
  H150     1.0000 0.32940  0.48000  0.79010  Biso   1.000  H
  C193     1.0000 0.96770  0.31380  0.89280  Biso   1.000  C
  C194     1.0000 0.96590  0.35020  0.82920  Biso   1.000  C
  H151     1.0000 0.01270  0.35550  0.82400  Biso   1.000  H
  C195     1.0000 0.24050  0.28470  0.33270  Biso   1.000  C
  H152     1.0000 0.27490  0.24450  0.35440  Biso   1.000  H
  C196     1.0000 0.58630  0.40660  0.60460  Biso   1.000  C
  C197     1.0000 0.48020  0.47800  0.96300  Biso   1.000  C
  C198     1.0000 0.41260  0.50450  0.90050  Biso   1.000  C
  H153     1.0000 0.39080  0.55010  0.90400  Biso   1.000  H
  N48      1.0000 0.50080  0.40490  0.55030  Biso   1.000  N
  C199     1.0000 0.44050  0.38980  0.56850  Biso   1.000  C
  H154     1.0000 0.44810  0.38200  0.61920  Biso   1.000  H
  C200     1.0000 0.60820  0.43940  0.67690  Biso   1.000  C
  H155     1.0000 0.57100  0.46460  0.68770  Biso   1.000  H
  C201     1.0000 0.36940  0.28010  0.74430  Biso   1.000  C
  H156     1.0000 0.38950  0.24530  0.78460  Biso   1.000  H
  C202     1.0000 0.64000  0.37550  0.58410  Biso   1.000  C
  H157     1.0000 0.62420  0.35820  0.53360  Biso   1.000  H
  C203     1.0000 0.74380  0.39430  0.71570  Biso   1.000  C
  C204     1.0000 0.33200  0.26550  0.66770  Biso   1.000  C
  H158     1.0000 0.32060  0.21790  0.64610  Biso   1.000  H
  C205     1.0000 0.68910  0.43300  0.73340  Biso   1.000  C
  H159     1.0000 0.70610  0.45440  0.78240  Biso   1.000  H
  C206     1.0000 0.20840  0.30450  0.25720  Biso   1.000  C
  H160     1.0000 0.21640  0.28130  0.21810  Biso   1.000  H
  C207     1.0000 0.16750  0.37980  0.32010  Biso   1.000  C
  H161     1.0000 0.14100  0.41880  0.33050  Biso   1.000  H
  C208     1.0000 0.82450  0.37420  0.78040  Biso   1.000  C
  C209     1.0000 0.02460  0.47970  0.03700  Biso   1.000  C
  C210     1.0000 0.14830  0.41980  0.12810  Biso   1.000  C
  H162     1.0000 0.20040  0.40500  0.14060  Biso   1.000  H
  C211     1.0000 0.82890  0.34080  0.84760  Biso   1.000  C
  H163     1.0000 0.78330  0.33870  0.85520  Biso   1.000  H
  C212     1.0000 0.89360  0.37930  0.77220  Biso   1.000  C
  H164     1.0000 0.89220  0.40240  0.72830  Biso   1.000  H
  C213     1.0000 0.90010  0.31080  0.90330  Biso   1.000  C
  H165     1.0000 0.90200  0.28850  0.94780  Biso   1.000  H
  C214     1.0000 0.10940  0.53100  0.44960  Biso   1.000  C
  H166     1.0000 0.05950  0.55430  0.42800  Biso   1.000  H
  C215     1.0000 0.46590  0.41400  0.47000  Biso   1.000  C
  H167     1.0000 0.49160  0.42500  0.43970  Biso   1.000  H
  C216     1.0000 0.38670  0.40340  0.44510  Biso   1.000  C
  H168     1.0000 0.34820  0.40660  0.39320  Biso   1.000  H
  C217     1.0000 0.71970  0.37020  0.64100  Biso   1.000  C
  H169     1.0000 0.75750  0.34970  0.62770  Biso   1.000  H
  C218     1.0000 0.10150  0.45800  0.05860  Biso   1.000  C
  H170     1.0000 0.12400  0.46910  0.02550  Biso   1.000  H
  C219     1.0000 0.47520  0.37060  0.88490  Biso   1.000  C
  H171     1.0000 0.49730  0.32540  0.88080  Biso   1.000  H
  C220     1.0000 0.51060  0.41090  0.95380  Biso   1.000  C
  H172     1.0000 0.55640  0.39200  0.99540  Biso   1.000  H
  C221     1.0000 0.04000  0.44200  0.16660  Biso   1.000  C
  H173     1.0000 0.02250  0.43950  0.20490  Biso   1.000  H
  C222     1.0000 0.99450  0.48100  0.09550  Biso   1.000  C
  H174     1.0000 0.94770  0.50610  0.08640  Biso   1.000  H
  C223     1.0000 0.03800  0.41200  0.15100  Biso   1.000  C
  C224     1.0000 0.99470  0.44700  0.08120  Biso   1.000  C
  H175     1.0000 0.01280  0.39360  0.17930  Biso   1.000  H
  H176     1.0000 0.93930  0.44750  0.06230  Biso   1.000  H
