data_image0
_cell_length_a       6.87
_cell_length_b       13.86
_cell_length_c       17.71
_cell_angle_alpha    88.64
_cell_angle_beta     79.67
_cell_angle_gamma    84.36

_symmetry_space_group_name_H-M    "P 1"
_symmetry_int_tables_number       1

loop_
  _symmetry_equiv_pos_as_xyz
  'x, y, z'

loop_
  _atom_site_label
  _atom_site_occupancy
  _atom_site_fract_x
  _atom_site_fract_y
  _atom_site_fract_z
  _atom_site_thermal_displace_type
  _atom_site_B_iso_or_equiv
  _atom_site_type_symbol
  Sm1      1.0000 0.70389  0.63421  0.45206  Biso   1.000  Sm
  Sm2      1.0000 0.33133  0.36795  0.94717  Biso   1.000  Sm
  O1       1.0000 0.06030  0.25890  0.96270  Biso   1.000  O
  O2       1.0000 0.35300  0.18840  0.97050  Biso   1.000  O
  O3       1.0000 0.97030  0.74040  0.46850  Biso   1.000  O
  O4       1.0000 0.66320  0.80830  0.49230  Biso   1.000  O
  O5       1.0000 0.42030  0.61520  0.55020  Biso   1.000  O
  O6       1.0000 0.39010  0.48670  0.62520  Biso   1.000  O
  O7       1.0000 0.45600  0.51470  0.90340  Biso   1.000  O
  O8       1.0000 0.48990  0.65830  0.94680  Biso   1.000  O
  O9       1.0000 0.87200  0.55100  0.95400  Biso   1.000  O
  O10      1.0000 0.07350  0.44460  0.88110  Biso   1.000  O
  O11      1.0000 0.98530  0.44750  0.60330  Biso   1.000  O
  O12      1.0000 0.81580  0.57790  0.56210  Biso   1.000  O
  N1       1.0000 0.32600  0.10760  0.71570  Biso   1.000  N
  N2       1.0000 0.80000  0.04750  0.75870  Biso   1.000  N
  C1       1.0000 0.40500  0.57580  0.61520  Biso   1.000  C
  C2       1.0000 0.45700  0.60360  0.89600  Biso   1.000  C
  C3       1.0000 0.38800  0.73820  0.67900  Biso   1.000  C
  H1       1.0000 0.38230  0.76740  0.63150  Biso   1.000  H
  C4       1.0000 0.08400  0.08850  0.98730  Biso   1.000  C
  C5       1.0000 0.87000  0.08460  0.50340  Biso   1.000  C
  H2       1.0000 0.78390  0.14090  0.50510  Biso   1.000  H
  C6       1.0000 0.88400  0.73600  0.75590  Biso   1.000  C
  C7       1.0000 0.38000  0.79610  0.74240  Biso   1.000  C
  C8       1.0000 0.80200  0.99440  0.49820  Biso   1.000  C
  H3       1.0000 0.66800  0.99080  0.49760  Biso   1.000  H
  C9       1.0000 0.91000  0.68180  0.82010  Biso   1.000  C
  H4       1.0000 0.90820  0.71340  0.86600  Biso   1.000  H
  C10      1.0000 0.96900  0.52340  0.88840  Biso   1.000  C
  C11      1.0000 0.42100  0.64810  0.81930  Biso   1.000  C
  C12      1.0000 0.85900  0.84300  0.75850  Biso   1.000  C
  C13      1.0000 0.92600  0.91100  0.49400  Biso   1.000  C
  C14      1.0000 0.39800  0.75130  0.81360  Biso   1.000  C
  H5       1.0000 0.39510  0.78890  0.85670  Biso   1.000  H
  C15      1.0000 0.91000  0.58520  0.68490  Biso   1.000  C
  C16      1.0000 0.44100  0.94790  0.66530  Biso   1.000  C
  H6       1.0000 0.50530  0.91040  0.62360  Biso   1.000  H
  C17      1.0000 0.27200  0.96150  0.79270  Biso   1.000  C
  H7       1.0000 0.21980  0.93450  0.83960  Biso   1.000  H
  C18      1.0000 0.36700  0.90220  0.73500  Biso   1.000  C
  C19      1.0000 0.40600  0.63620  0.68460  Biso   1.000  C
  C20      1.0000 0.42100  0.04610  0.65840  Biso   1.000  C
  H8       1.0000 0.47490  0.07330  0.61170  Biso   1.000  H
  C21      1.0000 0.88500  0.68640  0.68660  Biso   1.000  C
  H9       1.0000 0.86790  0.72120  0.64240  Biso   1.000  H
  C22      1.0000 0.90700  0.53340  0.60980  Biso   1.000  C
  C23      1.0000 0.94900  0.53150  0.74850  Biso   1.000  C
  H10      1.0000 0.98080  0.46470  0.74520  Biso   1.000  H
  C24      1.0000 0.76400  0.89320  0.82460  Biso   1.000  C
  H11      1.0000 0.72160  0.86010  0.86990  Biso   1.000  H
  C25      1.0000 0.87500  0.08580  0.99630  Biso   1.000  C
  H12      1.0000 0.79140  0.14220  0.99380  Biso   1.000  H
  C26      1.0000 0.17000  0.18500  0.97170  Biso   1.000  C
  C27      1.0000 0.20000  0.00460  0.99090  Biso   1.000  C
  H13      1.0000 0.33700  0.00700  0.98460  Biso   1.000  H
  C28      1.0000 0.93900  0.58040  0.81840  Biso   1.000  C
  C29      1.0000 0.84700  0.81390  0.48360  Biso   1.000  C
  C30      1.0000 0.89300  0.99950  0.69840  Biso   1.000  C
  H14      1.0000 0.94250  0.03490  0.65520  Biso   1.000  H
  C31      1.0000 0.42100  0.59230  0.75610  Biso   1.000  C
  H15      1.0000 0.43110  0.52510  0.76070  Biso   1.000  H
  C32      1.0000 0.92200  0.89780  0.69420  Biso   1.000  C
  H16      1.0000 0.98410  0.86770  0.64860  Biso   1.000  H
  C33      1.0000 0.25100  0.06580  0.78310  Biso   1.000  C
  H17      1.0000 0.18600  0.10460  0.82380  Biso   1.000  H
  C34      1.0000 0.73500  0.99370  0.82120  Biso   1.000  C
  H18      1.0000 0.66580  0.02620  0.86470  Biso   1.000  H
  O13      1.0000 0.91800  0.57800  0.94900  Biso   1.000  O
  Sm3      1.0000 0.29611  0.36579  0.54794  Biso   1.000  Sm
  Sm4      1.0000 0.66867  0.63205  0.05283  Biso   1.000  Sm
  O14      1.0000 0.93970  0.74110  0.03730  Biso   1.000  O
  O15      1.0000 0.64700  0.81160  0.02950  Biso   1.000  O
  O16      1.0000 0.02970  0.25960  0.53150  Biso   1.000  O
  O17      1.0000 0.33680  0.19170  0.50770  Biso   1.000  O
  O18      1.0000 0.57970  0.38480  0.44980  Biso   1.000  O
  O19      1.0000 0.60990  0.51330  0.37480  Biso   1.000  O
  O20      1.0000 0.54400  0.48530  0.09660  Biso   1.000  O
  O21      1.0000 0.51010  0.34170  0.05320  Biso   1.000  O
  O22      1.0000 0.12800  0.44900  0.04600  Biso   1.000  O
  O23      1.0000 0.92650  0.55540  0.11890  Biso   1.000  O
  O24      1.0000 0.01470  0.55250  0.39670  Biso   1.000  O
  O25      1.0000 0.18420  0.42210  0.43790  Biso   1.000  O
  N3       1.0000 0.67400  0.89240  0.28430  Biso   1.000  N
  N4       1.0000 0.20000  0.95250  0.24130  Biso   1.000  N
  C35      1.0000 0.59500  0.42420  0.38480  Biso   1.000  C
  C36      1.0000 0.54300  0.39640  0.10400  Biso   1.000  C
  C37      1.0000 0.61200  0.26180  0.32100  Biso   1.000  C
  H19      1.0000 0.61770  0.23260  0.36850  Biso   1.000  H
  C38      1.0000 0.91600  0.91150  0.01270  Biso   1.000  C
  C39      1.0000 0.13000  0.91540  0.49660  Biso   1.000  C
  H20      1.0000 0.21610  0.85910  0.49490  Biso   1.000  H
  C40      1.0000 0.11600  0.26400  0.24410  Biso   1.000  C
  C41      1.0000 0.62000  0.20390  0.25760  Biso   1.000  C
  C42      1.0000 0.19800  0.00560  0.50180  Biso   1.000  C
  H21      1.0000 0.33200  0.00920  0.50240  Biso   1.000  H
  C43      1.0000 0.09000  0.31820  0.17990  Biso   1.000  C
  H22      1.0000 0.09180  0.28660  0.13400  Biso   1.000  H
  C44      1.0000 0.03100  0.47660  0.11160  Biso   1.000  C
  C45      1.0000 0.57900  0.35190  0.18070  Biso   1.000  C
  C46      1.0000 0.14100  0.15700  0.24150  Biso   1.000  C
  C47      1.0000 0.07400  0.08900  0.50600  Biso   1.000  C
  C48      1.0000 0.60200  0.24870  0.18640  Biso   1.000  C
  H23      1.0000 0.60490  0.21110  0.14330  Biso   1.000  H
  C49      1.0000 0.09000  0.41480  0.31510  Biso   1.000  C
  C50      1.0000 0.55900  0.05210  0.33470  Biso   1.000  C
  H24      1.0000 0.49470  0.08960  0.37640  Biso   1.000  H
  C51      1.0000 0.72800  0.03850  0.20730  Biso   1.000  C
  H25      1.0000 0.78020  0.06550  0.16040  Biso   1.000  H
  C52      1.0000 0.63300  0.09780  0.26500  Biso   1.000  C
  C53      1.0000 0.59400  0.36380  0.31540  Biso   1.000  C
  C54      1.0000 0.57900  0.95390  0.34160  Biso   1.000  C
  H26      1.0000 0.52510  0.92670  0.38830  Biso   1.000  H
  C55      1.0000 0.11500  0.31360  0.31340  Biso   1.000  C
  H27      1.0000 0.13210  0.27880  0.35760  Biso   1.000  H
  C56      1.0000 0.09300  0.46660  0.39020  Biso   1.000  C
  C57      1.0000 0.05100  0.46850  0.25150  Biso   1.000  C
  H28      1.0000 0.01920  0.53530  0.25480  Biso   1.000  H
  C58      1.0000 0.23600  0.10680  0.17540  Biso   1.000  C
  H29      1.0000 0.27840  0.13990  0.13010  Biso   1.000  H
  C59      1.0000 0.12500  0.91420  0.00370  Biso   1.000  C
  H30      1.0000 0.20860  0.85780  0.00620  Biso   1.000  H
  C60      1.0000 0.83000  0.81500  0.02830  Biso   1.000  C
  C61      1.0000 0.80000  0.99540  0.00910  Biso   1.000  C
  H31      1.0000 0.66300  0.99300  0.01540  Biso   1.000  H
  C62      1.0000 0.06100  0.41960  0.18160  Biso   1.000  C
  C63      1.0000 0.15300  0.18610  0.51640  Biso   1.000  C
  C64      1.0000 0.10700  0.00050  0.30160  Biso   1.000  C
  H32      1.0000 0.05750  0.96510  0.34480  Biso   1.000  H
  C65      1.0000 0.57900  0.40770  0.24390  Biso   1.000  C
  H33      1.0000 0.56890  0.47490  0.23930  Biso   1.000  H
  C66      1.0000 0.07800  0.10220  0.30580  Biso   1.000  C
  H34      1.0000 0.01590  0.13230  0.35140  Biso   1.000  H
  C67      1.0000 0.74900  0.93420  0.21690  Biso   1.000  C
  H35      1.0000 0.81400  0.89540  0.17620  Biso   1.000  H
  C68      1.0000 0.26500  0.00630  0.17880  Biso   1.000  C
  H36      1.0000 0.33420  0.97380  0.13530  Biso   1.000  H
  O26      1.0000 0.08200  0.42200  0.05100  Biso   1.000  O
