data_image0
_cell_length_a       13.5015
_cell_length_b       17.0533
_cell_length_c       9.6093
_cell_angle_alpha    90
_cell_angle_beta     90
_cell_angle_gamma    90

_symmetry_space_group_name_H-M    "P 1"
_symmetry_int_tables_number       1

loop_
  _symmetry_equiv_pos_as_xyz
  'x, y, z'

loop_
  _atom_site_label
  _atom_site_occupancy
  _atom_site_fract_x
  _atom_site_fract_y
  _atom_site_fract_z
  _atom_site_thermal_displace_type
  _atom_site_B_iso_or_equiv
  _atom_site_type_symbol
  O1       1.0000 0.60262  0.58380  0.38470  Biso   1.000  O
  C1       1.0000 0.72130  0.71705  0.62770  Biso   1.000  C
  H1       1.0000 0.70160  0.69400  0.71340  Biso   1.000  H
  H2       1.0000 0.44060  0.39130  0.11450  Biso   1.000  H
  C2       1.0000 0.41170  0.45900  0.08020  Biso   1.000  C
  H3       1.0000 0.35120  0.48530  0.11470  Biso   1.000  H
  H4       1.0000 0.41130  0.40430  0.11470  Biso   1.000  H
  O2       1.0000 0.10262  0.08380  0.38470  Biso   1.000  O
  C3       1.0000 0.22130  0.21705  0.62770  Biso   1.000  C
  H5       1.0000 0.20160  0.19400  0.71340  Biso   1.000  H
  H6       1.0000 0.94060  0.89130  0.11450  Biso   1.000  H
  C4       1.0000 0.91170  0.95900  0.08020  Biso   1.000  C
  H7       1.0000 0.85120  0.98530  0.11470  Biso   1.000  H
  H8       1.0000 0.91130  0.90430  0.11470  Biso   1.000  H
  O3       1.0000 0.39738  0.41620  0.38470  Biso   1.000  O
  C5       1.0000 0.27870  0.28295  0.62770  Biso   1.000  C
  H9       1.0000 0.29840  0.30600  0.71340  Biso   1.000  H
  H10      1.0000 0.55940  0.60870  0.11450  Biso   1.000  H
  C6       1.0000 0.58830  0.54100  0.08020  Biso   1.000  C
  H11      1.0000 0.64880  0.51470  0.11470  Biso   1.000  H
  H12      1.0000 0.58870  0.59570  0.11470  Biso   1.000  H
  O4       1.0000 0.89738  0.91620  0.38470  Biso   1.000  O
  C7       1.0000 0.77870  0.78295  0.62770  Biso   1.000  C
  H13      1.0000 0.79840  0.80600  0.71340  Biso   1.000  H
  H14      1.0000 0.05940  0.10870  0.11450  Biso   1.000  H
  C8       1.0000 0.08830  0.04100  0.08020  Biso   1.000  C
  H15      1.0000 0.14880  0.01470  0.11470  Biso   1.000  H
  H16      1.0000 0.08870  0.09570  0.11470  Biso   1.000  H
  O5       1.0000 0.39738  0.58380  0.61530  Biso   1.000  O
  C9       1.0000 0.27870  0.71705  0.37230  Biso   1.000  C
  H17      1.0000 0.29840  0.69400  0.28660  Biso   1.000  H
  H18      1.0000 0.55940  0.39130  0.88550  Biso   1.000  H
  C10      1.0000 0.58830  0.45900  0.91980  Biso   1.000  C
  H19      1.0000 0.64880  0.48530  0.88530  Biso   1.000  H
  H20      1.0000 0.58870  0.40430  0.88530  Biso   1.000  H
  O6       1.0000 0.89738  0.08380  0.61530  Biso   1.000  O
  C11      1.0000 0.77870  0.21705  0.37230  Biso   1.000  C
  H21      1.0000 0.79840  0.19400  0.28660  Biso   1.000  H
  H22      1.0000 0.05940  0.89130  0.88550  Biso   1.000  H
  C12      1.0000 0.08830  0.95900  0.91980  Biso   1.000  C
  H23      1.0000 0.14880  0.98530  0.88530  Biso   1.000  H
  H24      1.0000 0.08870  0.90430  0.88530  Biso   1.000  H
  O7       1.0000 0.60262  0.41620  0.61530  Biso   1.000  O
  C13      1.0000 0.72130  0.28295  0.37230  Biso   1.000  C
  H25      1.0000 0.70160  0.30600  0.28660  Biso   1.000  H
  H26      1.0000 0.44060  0.60870  0.88550  Biso   1.000  H
  C14      1.0000 0.41170  0.54100  0.91980  Biso   1.000  C
  H27      1.0000 0.35120  0.51470  0.88530  Biso   1.000  H
  H28      1.0000 0.41130  0.59570  0.88530  Biso   1.000  H
  O8       1.0000 0.10262  0.91620  0.61530  Biso   1.000  O
  C15      1.0000 0.22130  0.78295  0.37230  Biso   1.000  C
  H29      1.0000 0.20160  0.80600  0.28660  Biso   1.000  H
  H30      1.0000 0.94060  0.10870  0.88550  Biso   1.000  H
  C16      1.0000 0.91170  0.04100  0.91980  Biso   1.000  C
  H31      1.0000 0.85120  0.01470  0.88530  Biso   1.000  H
  H32      1.0000 0.91130  0.09570  0.88530  Biso   1.000  H
  O9       1.0000 0.39738  0.41620  0.61530  Biso   1.000  O
  C17      1.0000 0.27870  0.28295  0.37230  Biso   1.000  C
  H33      1.0000 0.29840  0.30600  0.28660  Biso   1.000  H
  H34      1.0000 0.55940  0.60870  0.88550  Biso   1.000  H
  C18      1.0000 0.58830  0.54100  0.91980  Biso   1.000  C
  H35      1.0000 0.64880  0.51470  0.88530  Biso   1.000  H
  H36      1.0000 0.58870  0.59570  0.88530  Biso   1.000  H
  O10      1.0000 0.89738  0.91620  0.61530  Biso   1.000  O
  C19      1.0000 0.77870  0.78295  0.37230  Biso   1.000  C
  H37      1.0000 0.79840  0.80600  0.28660  Biso   1.000  H
  H38      1.0000 0.05940  0.10870  0.88550  Biso   1.000  H
  C20      1.0000 0.08830  0.04100  0.91980  Biso   1.000  C
  H39      1.0000 0.14880  0.01470  0.88530  Biso   1.000  H
  H40      1.0000 0.08870  0.09570  0.88530  Biso   1.000  H
  O11      1.0000 0.60262  0.58380  0.61530  Biso   1.000  O
  C21      1.0000 0.72130  0.71705  0.37230  Biso   1.000  C
  H41      1.0000 0.70160  0.69400  0.28660  Biso   1.000  H
  H42      1.0000 0.44060  0.39130  0.88550  Biso   1.000  H
  C22      1.0000 0.41170  0.45900  0.91980  Biso   1.000  C
  H43      1.0000 0.35120  0.48530  0.88530  Biso   1.000  H
  H44      1.0000 0.41130  0.40430  0.88530  Biso   1.000  H
  O12      1.0000 0.10262  0.08380  0.61530  Biso   1.000  O
  C23      1.0000 0.22130  0.21705  0.37230  Biso   1.000  C
  H45      1.0000 0.20160  0.19400  0.28660  Biso   1.000  H
  H46      1.0000 0.94060  0.89130  0.88550  Biso   1.000  H
  C24      1.0000 0.91170  0.95900  0.91980  Biso   1.000  C
  H47      1.0000 0.85120  0.98530  0.88530  Biso   1.000  H
  H48      1.0000 0.91130  0.90430  0.88530  Biso   1.000  H
  O13      1.0000 0.60262  0.41620  0.38470  Biso   1.000  O
  C25      1.0000 0.72130  0.28295  0.62770  Biso   1.000  C
  H49      1.0000 0.70160  0.30600  0.71340  Biso   1.000  H
  H50      1.0000 0.44060  0.60870  0.11450  Biso   1.000  H
  C26      1.0000 0.41170  0.54100  0.08020  Biso   1.000  C
  H51      1.0000 0.35120  0.51470  0.11470  Biso   1.000  H
  H52      1.0000 0.41130  0.59570  0.11470  Biso   1.000  H
  O14      1.0000 0.10262  0.91620  0.38470  Biso   1.000  O
  C27      1.0000 0.22130  0.78295  0.62770  Biso   1.000  C
  H53      1.0000 0.20160  0.80600  0.71340  Biso   1.000  H
  H54      1.0000 0.94060  0.10870  0.11450  Biso   1.000  H
  C28      1.0000 0.91170  0.04100  0.08020  Biso   1.000  C
  H55      1.0000 0.85120  0.01470  0.11470  Biso   1.000  H
  H56      1.0000 0.91130  0.09570  0.11470  Biso   1.000  H
  O15      1.0000 0.39738  0.58380  0.38470  Biso   1.000  O
  C29      1.0000 0.27870  0.71705  0.62770  Biso   1.000  C
  H57      1.0000 0.29840  0.69400  0.71340  Biso   1.000  H
  H58      1.0000 0.55940  0.39130  0.11450  Biso   1.000  H
  C30      1.0000 0.58830  0.45900  0.08020  Biso   1.000  C
  H59      1.0000 0.64880  0.48530  0.11470  Biso   1.000  H
  H60      1.0000 0.58870  0.40430  0.11470  Biso   1.000  H
  O16      1.0000 0.89738  0.08380  0.38470  Biso   1.000  O
  C31      1.0000 0.77870  0.21705  0.62770  Biso   1.000  C
  H61      1.0000 0.79840  0.19400  0.71340  Biso   1.000  H
  H62      1.0000 0.05940  0.89130  0.11450  Biso   1.000  H
  C32      1.0000 0.08830  0.95900  0.08020  Biso   1.000  C
  H63      1.0000 0.14880  0.98530  0.11470  Biso   1.000  H
  H64      1.0000 0.08870  0.90430  0.11470  Biso   1.000  H
  Zn1      1.0000 0.50000  0.50000  0.34791  Biso   1.000  Zn
  N1       1.0000 0.50000  0.50000  0.13380  Biso   1.000  N
  Zn2      1.0000 0.00000  0.00000  0.34791  Biso   1.000  Zn
  N2       1.0000 0.00000  0.00000  0.13380  Biso   1.000  N
  Zn3      1.0000 0.50000  0.50000  0.65209  Biso   1.000  Zn
  N3       1.0000 0.50000  0.50000  0.86620  Biso   1.000  N
  Zn4      1.0000 0.00000  0.00000  0.65209  Biso   1.000  Zn
  N4       1.0000 0.00000  0.00000  0.86620  Biso   1.000  N
  C33      1.0000 0.62730  0.61072  0.50000  Biso   1.000  C
  C34      1.0000 0.69120  0.68294  0.50000  Biso   1.000  C
  C35      1.0000 0.12730  0.11072  0.50000  Biso   1.000  C
  C36      1.0000 0.19120  0.18294  0.50000  Biso   1.000  C
  C37      1.0000 0.37270  0.38928  0.50000  Biso   1.000  C
  C38      1.0000 0.30880  0.31706  0.50000  Biso   1.000  C
  C39      1.0000 0.87270  0.88928  0.50000  Biso   1.000  C
  C40      1.0000 0.80880  0.81706  0.50000  Biso   1.000  C
  C41      1.0000 0.37270  0.61072  0.50000  Biso   1.000  C
  C42      1.0000 0.30880  0.68294  0.50000  Biso   1.000  C
  C43      1.0000 0.87270  0.11072  0.50000  Biso   1.000  C
  C44      1.0000 0.80880  0.18294  0.50000  Biso   1.000  C
  C45      1.0000 0.62730  0.38928  0.50000  Biso   1.000  C
  C46      1.0000 0.69120  0.31706  0.50000  Biso   1.000  C
  C47      1.0000 0.12730  0.88928  0.50000  Biso   1.000  C
  C48      1.0000 0.19120  0.81706  0.50000  Biso   1.000  C
  C49      1.0000 0.50000  0.41930  0.08010  Biso   1.000  C
  C50      1.0000 0.00000  0.91930  0.08010  Biso   1.000  C
  C51      1.0000 0.50000  0.58070  0.08010  Biso   1.000  C
  C52      1.0000 0.00000  0.08070  0.08010  Biso   1.000  C
  C53      1.0000 0.50000  0.41930  0.91990  Biso   1.000  C
  C54      1.0000 0.00000  0.91930  0.91990  Biso   1.000  C
  C55      1.0000 0.50000  0.58070  0.91990  Biso   1.000  C
  C56      1.0000 0.00000  0.08070  0.91990  Biso   1.000  C
