data_image0
_cell_length_a       13.966
_cell_length_b       16.692
_cell_length_c       9.6406
_cell_angle_alpha    90
_cell_angle_beta     90
_cell_angle_gamma    90

_symmetry_space_group_name_H-M    "P 1"
_symmetry_int_tables_number       1

loop_
  _symmetry_equiv_pos_as_xyz
  'x, y, z'

loop_
  _atom_site_label
  _atom_site_occupancy
  _atom_site_fract_x
  _atom_site_fract_y
  _atom_site_fract_z
  _atom_site_thermal_displace_type
  _atom_site_B_iso_or_equiv
  _atom_site_type_symbol
  O1       1.0000 0.09982  0.08558  0.38468  Biso   1.000  O
  C1       1.0000 0.08350  0.03960  0.08030  Biso   1.000  C
  H1       1.0000 0.05680  0.10950  0.11290  Biso   1.000  H
  H2       1.0000 0.08500  0.09500  0.11410  Biso   1.000  H
  H3       1.0000 0.14110  0.01240  0.11410  Biso   1.000  H
  C2       1.0000 0.21970  0.21683  0.37660  Biso   1.000  C
  H4       1.0000 0.19920  0.19470  0.29200  Biso   1.000  H
  O2       1.0000 0.59982  0.58558  0.38468  Biso   1.000  O
  C3       1.0000 0.58350  0.53960  0.08030  Biso   1.000  C
  H5       1.0000 0.55680  0.60950  0.11290  Biso   1.000  H
  H6       1.0000 0.58500  0.59500  0.11410  Biso   1.000  H
  H7       1.0000 0.64110  0.51240  0.11410  Biso   1.000  H
  C4       1.0000 0.71970  0.71683  0.37660  Biso   1.000  C
  H8       1.0000 0.69920  0.69470  0.29200  Biso   1.000  H
  O3       1.0000 0.90018  0.91442  0.38468  Biso   1.000  O
  C5       1.0000 0.91650  0.96040  0.08030  Biso   1.000  C
  H9       1.0000 0.94320  0.89050  0.11290  Biso   1.000  H
  H10      1.0000 0.91500  0.90500  0.11410  Biso   1.000  H
  H11      1.0000 0.85890  0.98760  0.11410  Biso   1.000  H
  C6       1.0000 0.78030  0.78317  0.37660  Biso   1.000  C
  H12      1.0000 0.80080  0.80530  0.29200  Biso   1.000  H
  O4       1.0000 0.40018  0.41442  0.38468  Biso   1.000  O
  C7       1.0000 0.41650  0.46040  0.08030  Biso   1.000  C
  H13      1.0000 0.44320  0.39050  0.11290  Biso   1.000  H
  H14      1.0000 0.41500  0.40500  0.11410  Biso   1.000  H
  H15      1.0000 0.35890  0.48760  0.11410  Biso   1.000  H
  C8       1.0000 0.28030  0.28317  0.37660  Biso   1.000  C
  H16      1.0000 0.30080  0.30530  0.29200  Biso   1.000  H
  O5       1.0000 0.90018  0.08558  0.61532  Biso   1.000  O
  C9       1.0000 0.91650  0.03960  0.91970  Biso   1.000  C
  H17      1.0000 0.94320  0.10950  0.88710  Biso   1.000  H
  H18      1.0000 0.91500  0.09500  0.88590  Biso   1.000  H
  H19      1.0000 0.85890  0.01240  0.88590  Biso   1.000  H
  C10      1.0000 0.78030  0.21683  0.62340  Biso   1.000  C
  H20      1.0000 0.80080  0.19470  0.70800  Biso   1.000  H
  O6       1.0000 0.40018  0.58558  0.61532  Biso   1.000  O
  C11      1.0000 0.41650  0.53960  0.91970  Biso   1.000  C
  H21      1.0000 0.44320  0.60950  0.88710  Biso   1.000  H
  H22      1.0000 0.41500  0.59500  0.88590  Biso   1.000  H
  H23      1.0000 0.35890  0.51240  0.88590  Biso   1.000  H
  C12      1.0000 0.28030  0.71683  0.62340  Biso   1.000  C
  H24      1.0000 0.30080  0.69470  0.70800  Biso   1.000  H
  O7       1.0000 0.09982  0.91442  0.61532  Biso   1.000  O
  C13      1.0000 0.08350  0.96040  0.91970  Biso   1.000  C
  H25      1.0000 0.05680  0.89050  0.88710  Biso   1.000  H
  H26      1.0000 0.08500  0.90500  0.88590  Biso   1.000  H
  H27      1.0000 0.14110  0.98760  0.88590  Biso   1.000  H
  C14      1.0000 0.21970  0.78317  0.62340  Biso   1.000  C
  H28      1.0000 0.19920  0.80530  0.70800  Biso   1.000  H
  O8       1.0000 0.59982  0.41442  0.61532  Biso   1.000  O
  C15      1.0000 0.58350  0.46040  0.91970  Biso   1.000  C
  H29      1.0000 0.55680  0.39050  0.88710  Biso   1.000  H
  H30      1.0000 0.58500  0.40500  0.88590  Biso   1.000  H
  H31      1.0000 0.64110  0.48760  0.88590  Biso   1.000  H
  C16      1.0000 0.71970  0.28317  0.62340  Biso   1.000  C
  H32      1.0000 0.69920  0.30530  0.70800  Biso   1.000  H
  O9       1.0000 0.90018  0.91442  0.61532  Biso   1.000  O
  C17      1.0000 0.91650  0.96040  0.91970  Biso   1.000  C
  H33      1.0000 0.94320  0.89050  0.88710  Biso   1.000  H
  H34      1.0000 0.91500  0.90500  0.88590  Biso   1.000  H
  H35      1.0000 0.85890  0.98760  0.88590  Biso   1.000  H
  C18      1.0000 0.78030  0.78317  0.62340  Biso   1.000  C
  H36      1.0000 0.80080  0.80530  0.70800  Biso   1.000  H
  O10      1.0000 0.40018  0.41442  0.61532  Biso   1.000  O
  C19      1.0000 0.41650  0.46040  0.91970  Biso   1.000  C
  H37      1.0000 0.44320  0.39050  0.88710  Biso   1.000  H
  H38      1.0000 0.41500  0.40500  0.88590  Biso   1.000  H
  H39      1.0000 0.35890  0.48760  0.88590  Biso   1.000  H
  C20      1.0000 0.28030  0.28317  0.62340  Biso   1.000  C
  H40      1.0000 0.30080  0.30530  0.70800  Biso   1.000  H
  O11      1.0000 0.09982  0.08558  0.61532  Biso   1.000  O
  C21      1.0000 0.08350  0.03960  0.91970  Biso   1.000  C
  H41      1.0000 0.05680  0.10950  0.88710  Biso   1.000  H
  H42      1.0000 0.08500  0.09500  0.88590  Biso   1.000  H
  H43      1.0000 0.14110  0.01240  0.88590  Biso   1.000  H
  C22      1.0000 0.21970  0.21683  0.62340  Biso   1.000  C
  H44      1.0000 0.19920  0.19470  0.70800  Biso   1.000  H
  O12      1.0000 0.59982  0.58558  0.61532  Biso   1.000  O
  C23      1.0000 0.58350  0.53960  0.91970  Biso   1.000  C
  H45      1.0000 0.55680  0.60950  0.88710  Biso   1.000  H
  H46      1.0000 0.58500  0.59500  0.88590  Biso   1.000  H
  H47      1.0000 0.64110  0.51240  0.88590  Biso   1.000  H
  C24      1.0000 0.71970  0.71683  0.62340  Biso   1.000  C
  H48      1.0000 0.69920  0.69470  0.70800  Biso   1.000  H
  O13      1.0000 0.09982  0.91442  0.38468  Biso   1.000  O
  C25      1.0000 0.08350  0.96040  0.08030  Biso   1.000  C
  H49      1.0000 0.05680  0.89050  0.11290  Biso   1.000  H
  H50      1.0000 0.08500  0.90500  0.11410  Biso   1.000  H
  H51      1.0000 0.14110  0.98760  0.11410  Biso   1.000  H
  C26      1.0000 0.21970  0.78317  0.37660  Biso   1.000  C
  H52      1.0000 0.19920  0.80530  0.29200  Biso   1.000  H
  O14      1.0000 0.59982  0.41442  0.38468  Biso   1.000  O
  C27      1.0000 0.58350  0.46040  0.08030  Biso   1.000  C
  H53      1.0000 0.55680  0.39050  0.11290  Biso   1.000  H
  H54      1.0000 0.58500  0.40500  0.11410  Biso   1.000  H
  H55      1.0000 0.64110  0.48760  0.11410  Biso   1.000  H
  C28      1.0000 0.71970  0.28317  0.37660  Biso   1.000  C
  H56      1.0000 0.69920  0.30530  0.29200  Biso   1.000  H
  O15      1.0000 0.90018  0.08558  0.38468  Biso   1.000  O
  C29      1.0000 0.91650  0.03960  0.08030  Biso   1.000  C
  H57      1.0000 0.94320  0.10950  0.11290  Biso   1.000  H
  H58      1.0000 0.91500  0.09500  0.11410  Biso   1.000  H
  H59      1.0000 0.85890  0.01240  0.11410  Biso   1.000  H
  C30      1.0000 0.78030  0.21683  0.37660  Biso   1.000  C
  H60      1.0000 0.80080  0.19470  0.29200  Biso   1.000  H
  O16      1.0000 0.40018  0.58558  0.38468  Biso   1.000  O
  C31      1.0000 0.41650  0.53960  0.08030  Biso   1.000  C
  H61      1.0000 0.44320  0.60950  0.11290  Biso   1.000  H
  H62      1.0000 0.41500  0.59500  0.11410  Biso   1.000  H
  H63      1.0000 0.35890  0.51240  0.11410  Biso   1.000  H
  C32      1.0000 0.28030  0.71683  0.37660  Biso   1.000  C
  H64      1.0000 0.30080  0.69470  0.29200  Biso   1.000  H
  Zn1      1.0000 0.00000  0.00000  0.34767  Biso   1.000  Zn
  N1       1.0000 0.00000  0.00000  0.13360  Biso   1.000  N
  Zn2      1.0000 0.50000  0.50000  0.34767  Biso   1.000  Zn
  N2       1.0000 0.50000  0.50000  0.13360  Biso   1.000  N
  Zn3      1.0000 0.00000  0.00000  0.65233  Biso   1.000  Zn
  N3       1.0000 0.00000  0.00000  0.86640  Biso   1.000  N
  Zn4      1.0000 0.50000  0.50000  0.65233  Biso   1.000  Zn
  N4       1.0000 0.50000  0.50000  0.86640  Biso   1.000  N
  C33      1.0000 0.12460  0.11202  0.50000  Biso   1.000  C
  C34      1.0000 0.18964  0.18333  0.50000  Biso   1.000  C
  C35      1.0000 0.62460  0.61202  0.50000  Biso   1.000  C
  C36      1.0000 0.68964  0.68333  0.50000  Biso   1.000  C
  C37      1.0000 0.87540  0.88798  0.50000  Biso   1.000  C
  C38      1.0000 0.81036  0.81667  0.50000  Biso   1.000  C
  C39      1.0000 0.37540  0.38798  0.50000  Biso   1.000  C
  C40      1.0000 0.31036  0.31667  0.50000  Biso   1.000  C
  C41      1.0000 0.87540  0.11202  0.50000  Biso   1.000  C
  C42      1.0000 0.81036  0.18333  0.50000  Biso   1.000  C
  C43      1.0000 0.37540  0.61202  0.50000  Biso   1.000  C
  C44      1.0000 0.31036  0.68333  0.50000  Biso   1.000  C
  C45      1.0000 0.12460  0.88798  0.50000  Biso   1.000  C
  C46      1.0000 0.18964  0.81667  0.50000  Biso   1.000  C
  C47      1.0000 0.62460  0.38798  0.50000  Biso   1.000  C
  C48      1.0000 0.68964  0.31667  0.50000  Biso   1.000  C
  C49      1.0000 0.00000  0.08100  0.07920  Biso   1.000  C
  C50      1.0000 0.50000  0.58100  0.07920  Biso   1.000  C
  C51      1.0000 0.00000  0.91900  0.07920  Biso   1.000  C
  C52      1.0000 0.50000  0.41900  0.07920  Biso   1.000  C
  C53      1.0000 0.00000  0.08100  0.92080  Biso   1.000  C
  C54      1.0000 0.50000  0.58100  0.92080  Biso   1.000  C
  C55      1.0000 0.00000  0.91900  0.92080  Biso   1.000  C
  C56      1.0000 0.50000  0.41900  0.92080  Biso   1.000  C
