data_image0
_cell_length_a       13.4307
_cell_length_b       17.0964
_cell_length_c       9.5948
_cell_angle_alpha    90
_cell_angle_beta     90
_cell_angle_gamma    90

_symmetry_space_group_name_H-M    "P 1"
_symmetry_int_tables_number       1

loop_
  _symmetry_equiv_pos_as_xyz
  'x, y, z'

loop_
  _atom_site_label
  _atom_site_occupancy
  _atom_site_fract_x
  _atom_site_fract_y
  _atom_site_fract_z
  _atom_site_thermal_displace_type
  _atom_site_B_iso_or_equiv
  _atom_site_type_symbol
  O1       1.0000 0.60290  0.58371  0.38480  Biso   1.000  O
  C1       1.0000 0.72150  0.71690  0.62680  Biso   1.000  C
  H1       1.0000 0.70210  0.69380  0.71260  Biso   1.000  H
  H2       1.0000 0.44030  0.39150  0.11550  Biso   1.000  H
  C2       1.0000 0.41120  0.45830  0.08060  Biso   1.000  C
  H3       1.0000 0.35010  0.48410  0.11520  Biso   1.000  H
  H4       1.0000 0.41140  0.40370  0.11520  Biso   1.000  H
  O2       1.0000 0.10290  0.08371  0.38480  Biso   1.000  O
  C3       1.0000 0.22150  0.21690  0.62680  Biso   1.000  C
  H5       1.0000 0.20210  0.19380  0.71260  Biso   1.000  H
  H6       1.0000 0.94030  0.89150  0.11550  Biso   1.000  H
  C4       1.0000 0.91120  0.95830  0.08060  Biso   1.000  C
  H7       1.0000 0.85010  0.98410  0.11520  Biso   1.000  H
  H8       1.0000 0.91140  0.90370  0.11520  Biso   1.000  H
  O3       1.0000 0.39710  0.41629  0.38480  Biso   1.000  O
  C5       1.0000 0.27850  0.28310  0.62680  Biso   1.000  C
  H9       1.0000 0.29790  0.30620  0.71260  Biso   1.000  H
  H10      1.0000 0.55970  0.60850  0.11550  Biso   1.000  H
  C6       1.0000 0.58880  0.54170  0.08060  Biso   1.000  C
  H11      1.0000 0.64990  0.51590  0.11520  Biso   1.000  H
  H12      1.0000 0.58860  0.59630  0.11520  Biso   1.000  H
  O4       1.0000 0.89710  0.91629  0.38480  Biso   1.000  O
  C7       1.0000 0.77850  0.78310  0.62680  Biso   1.000  C
  H13      1.0000 0.79790  0.80620  0.71260  Biso   1.000  H
  H14      1.0000 0.05970  0.10850  0.11550  Biso   1.000  H
  C8       1.0000 0.08880  0.04170  0.08060  Biso   1.000  C
  H15      1.0000 0.14990  0.01590  0.11520  Biso   1.000  H
  H16      1.0000 0.08860  0.09630  0.11520  Biso   1.000  H
  O5       1.0000 0.39710  0.58371  0.61520  Biso   1.000  O
  C9       1.0000 0.27850  0.71690  0.37320  Biso   1.000  C
  H17      1.0000 0.29790  0.69380  0.28740  Biso   1.000  H
  H18      1.0000 0.55970  0.39150  0.88450  Biso   1.000  H
  C10      1.0000 0.58880  0.45830  0.91940  Biso   1.000  C
  H19      1.0000 0.64990  0.48410  0.88480  Biso   1.000  H
  H20      1.0000 0.58860  0.40370  0.88480  Biso   1.000  H
  O6       1.0000 0.89710  0.08371  0.61520  Biso   1.000  O
  C11      1.0000 0.77850  0.21690  0.37320  Biso   1.000  C
  H21      1.0000 0.79790  0.19380  0.28740  Biso   1.000  H
  H22      1.0000 0.05970  0.89150  0.88450  Biso   1.000  H
  C12      1.0000 0.08880  0.95830  0.91940  Biso   1.000  C
  H23      1.0000 0.14990  0.98410  0.88480  Biso   1.000  H
  H24      1.0000 0.08860  0.90370  0.88480  Biso   1.000  H
  O7       1.0000 0.60290  0.41629  0.61520  Biso   1.000  O
  C13      1.0000 0.72150  0.28310  0.37320  Biso   1.000  C
  H25      1.0000 0.70210  0.30620  0.28740  Biso   1.000  H
  H26      1.0000 0.44030  0.60850  0.88450  Biso   1.000  H
  C14      1.0000 0.41120  0.54170  0.91940  Biso   1.000  C
  H27      1.0000 0.35010  0.51590  0.88480  Biso   1.000  H
  H28      1.0000 0.41140  0.59630  0.88480  Biso   1.000  H
  O8       1.0000 0.10290  0.91629  0.61520  Biso   1.000  O
  C15      1.0000 0.22150  0.78310  0.37320  Biso   1.000  C
  H29      1.0000 0.20210  0.80620  0.28740  Biso   1.000  H
  H30      1.0000 0.94030  0.10850  0.88450  Biso   1.000  H
  C16      1.0000 0.91120  0.04170  0.91940  Biso   1.000  C
  H31      1.0000 0.85010  0.01590  0.88480  Biso   1.000  H
  H32      1.0000 0.91140  0.09630  0.88480  Biso   1.000  H
  O9       1.0000 0.39710  0.41629  0.61520  Biso   1.000  O
  C17      1.0000 0.27850  0.28310  0.37320  Biso   1.000  C
  H33      1.0000 0.29790  0.30620  0.28740  Biso   1.000  H
  H34      1.0000 0.55970  0.60850  0.88450  Biso   1.000  H
  C18      1.0000 0.58880  0.54170  0.91940  Biso   1.000  C
  H35      1.0000 0.64990  0.51590  0.88480  Biso   1.000  H
  H36      1.0000 0.58860  0.59630  0.88480  Biso   1.000  H
  O10      1.0000 0.89710  0.91629  0.61520  Biso   1.000  O
  C19      1.0000 0.77850  0.78310  0.37320  Biso   1.000  C
  H37      1.0000 0.79790  0.80620  0.28740  Biso   1.000  H
  H38      1.0000 0.05970  0.10850  0.88450  Biso   1.000  H
  C20      1.0000 0.08880  0.04170  0.91940  Biso   1.000  C
  H39      1.0000 0.14990  0.01590  0.88480  Biso   1.000  H
  H40      1.0000 0.08860  0.09630  0.88480  Biso   1.000  H
  O11      1.0000 0.60290  0.58371  0.61520  Biso   1.000  O
  C21      1.0000 0.72150  0.71690  0.37320  Biso   1.000  C
  H41      1.0000 0.70210  0.69380  0.28740  Biso   1.000  H
  H42      1.0000 0.44030  0.39150  0.88450  Biso   1.000  H
  C22      1.0000 0.41120  0.45830  0.91940  Biso   1.000  C
  H43      1.0000 0.35010  0.48410  0.88480  Biso   1.000  H
  H44      1.0000 0.41140  0.40370  0.88480  Biso   1.000  H
  O12      1.0000 0.10290  0.08371  0.61520  Biso   1.000  O
  C23      1.0000 0.22150  0.21690  0.37320  Biso   1.000  C
  H45      1.0000 0.20210  0.19380  0.28740  Biso   1.000  H
  H46      1.0000 0.94030  0.89150  0.88450  Biso   1.000  H
  C24      1.0000 0.91120  0.95830  0.91940  Biso   1.000  C
  H47      1.0000 0.85010  0.98410  0.88480  Biso   1.000  H
  H48      1.0000 0.91140  0.90370  0.88480  Biso   1.000  H
  O13      1.0000 0.60290  0.41629  0.38480  Biso   1.000  O
  C25      1.0000 0.72150  0.28310  0.62680  Biso   1.000  C
  H49      1.0000 0.70210  0.30620  0.71260  Biso   1.000  H
  H50      1.0000 0.44030  0.60850  0.11550  Biso   1.000  H
  C26      1.0000 0.41120  0.54170  0.08060  Biso   1.000  C
  H51      1.0000 0.35010  0.51590  0.11520  Biso   1.000  H
  H52      1.0000 0.41140  0.59630  0.11520  Biso   1.000  H
  O14      1.0000 0.10290  0.91629  0.38480  Biso   1.000  O
  C27      1.0000 0.22150  0.78310  0.62680  Biso   1.000  C
  H53      1.0000 0.20210  0.80620  0.71260  Biso   1.000  H
  H54      1.0000 0.94030  0.10850  0.11550  Biso   1.000  H
  C28      1.0000 0.91120  0.04170  0.08060  Biso   1.000  C
  H55      1.0000 0.85010  0.01590  0.11520  Biso   1.000  H
  H56      1.0000 0.91140  0.09630  0.11520  Biso   1.000  H
  O15      1.0000 0.39710  0.58371  0.38480  Biso   1.000  O
  C29      1.0000 0.27850  0.71690  0.62680  Biso   1.000  C
  H57      1.0000 0.29790  0.69380  0.71260  Biso   1.000  H
  H58      1.0000 0.55970  0.39150  0.11550  Biso   1.000  H
  C30      1.0000 0.58880  0.45830  0.08060  Biso   1.000  C
  H59      1.0000 0.64990  0.48410  0.11520  Biso   1.000  H
  H60      1.0000 0.58860  0.40370  0.11520  Biso   1.000  H
  O16      1.0000 0.89710  0.08371  0.38480  Biso   1.000  O
  C31      1.0000 0.77850  0.21690  0.62680  Biso   1.000  C
  H61      1.0000 0.79790  0.19380  0.71260  Biso   1.000  H
  H62      1.0000 0.05970  0.89150  0.11550  Biso   1.000  H
  C32      1.0000 0.08880  0.95830  0.08060  Biso   1.000  C
  H63      1.0000 0.14990  0.98410  0.11520  Biso   1.000  H
  H64      1.0000 0.08860  0.90370  0.11520  Biso   1.000  H
  Zn1      1.0000 0.50000  0.50000  0.34806  Biso   1.000  Zn
  N1       1.0000 0.50000  0.50000  0.13430  Biso   1.000  N
  Zn2      1.0000 0.00000  0.00000  0.34806  Biso   1.000  Zn
  N2       1.0000 0.00000  0.00000  0.13430  Biso   1.000  N
  Zn3      1.0000 0.50000  0.50000  0.65194  Biso   1.000  Zn
  N3       1.0000 0.50000  0.50000  0.86570  Biso   1.000  N
  Zn4      1.0000 0.00000  0.00000  0.65194  Biso   1.000  Zn
  N4       1.0000 0.00000  0.00000  0.86570  Biso   1.000  N
  C33      1.0000 0.62770  0.61080  0.50000  Biso   1.000  C
  C34      1.0000 0.69150  0.68280  0.50000  Biso   1.000  C
  C35      1.0000 0.12770  0.11080  0.50000  Biso   1.000  C
  C36      1.0000 0.19150  0.18280  0.50000  Biso   1.000  C
  C37      1.0000 0.37230  0.38920  0.50000  Biso   1.000  C
  C38      1.0000 0.30850  0.31720  0.50000  Biso   1.000  C
  C39      1.0000 0.87230  0.88920  0.50000  Biso   1.000  C
  C40      1.0000 0.80850  0.81720  0.50000  Biso   1.000  C
  C41      1.0000 0.37230  0.61080  0.50000  Biso   1.000  C
  C42      1.0000 0.30850  0.68280  0.50000  Biso   1.000  C
  C43      1.0000 0.87230  0.11080  0.50000  Biso   1.000  C
  C44      1.0000 0.80850  0.18280  0.50000  Biso   1.000  C
  C45      1.0000 0.62770  0.38920  0.50000  Biso   1.000  C
  C46      1.0000 0.69150  0.31720  0.50000  Biso   1.000  C
  C47      1.0000 0.12770  0.88920  0.50000  Biso   1.000  C
  C48      1.0000 0.19150  0.81720  0.50000  Biso   1.000  C
  C49      1.0000 0.50000  0.41940  0.08090  Biso   1.000  C
  C50      1.0000 0.00000  0.91940  0.08090  Biso   1.000  C
  C51      1.0000 0.50000  0.58060  0.08090  Biso   1.000  C
  C52      1.0000 0.00000  0.08060  0.08090  Biso   1.000  C
  C53      1.0000 0.50000  0.41940  0.91910  Biso   1.000  C
  C54      1.0000 0.00000  0.91940  0.91910  Biso   1.000  C
  C55      1.0000 0.50000  0.58060  0.91910  Biso   1.000  C
  C56      1.0000 0.00000  0.08060  0.91910  Biso   1.000  C
