data_image0
_cell_length_a       13.5779
_cell_length_b       16.9882
_cell_length_c       9.6192
_cell_angle_alpha    90
_cell_angle_beta     90
_cell_angle_gamma    90

_symmetry_space_group_name_H-M    "P 1"
_symmetry_int_tables_number       1

loop_
  _symmetry_equiv_pos_as_xyz
  'x, y, z'

loop_
  _atom_site_label
  _atom_site_occupancy
  _atom_site_fract_x
  _atom_site_fract_y
  _atom_site_fract_z
  _atom_site_thermal_displace_type
  _atom_site_B_iso_or_equiv
  _atom_site_type_symbol
  O1       1.0000 0.60181  0.58433  0.38470  Biso   1.000  O
  C1       1.0000 0.72000  0.71693  0.62750  Biso   1.000  C
  H1       1.0000 0.69860  0.69460  0.71300  Biso   1.000  H
  H2       1.0000 0.44100  0.39130  0.11420  Biso   1.000  H
  C2       1.0000 0.41270  0.45910  0.07990  Biso   1.000  C
  H3       1.0000 0.35250  0.48550  0.11430  Biso   1.000  H
  H4       1.0000 0.41220  0.40410  0.11430  Biso   1.000  H
  O2       1.0000 0.10181  0.08433  0.38470  Biso   1.000  O
  C3       1.0000 0.22000  0.21693  0.62750  Biso   1.000  C
  H5       1.0000 0.19860  0.19460  0.71300  Biso   1.000  H
  H6       1.0000 0.94100  0.89130  0.11420  Biso   1.000  H
  C4       1.0000 0.91270  0.95910  0.07990  Biso   1.000  C
  H7       1.0000 0.85250  0.98550  0.11430  Biso   1.000  H
  H8       1.0000 0.91220  0.90410  0.11430  Biso   1.000  H
  O3       1.0000 0.39819  0.41567  0.38470  Biso   1.000  O
  C5       1.0000 0.28000  0.28307  0.62750  Biso   1.000  C
  H9       1.0000 0.30140  0.30540  0.71300  Biso   1.000  H
  H10      1.0000 0.55900  0.60870  0.11420  Biso   1.000  H
  C6       1.0000 0.58730  0.54090  0.07990  Biso   1.000  C
  H11      1.0000 0.64750  0.51450  0.11430  Biso   1.000  H
  H12      1.0000 0.58780  0.59590  0.11430  Biso   1.000  H
  O4       1.0000 0.89819  0.91567  0.38470  Biso   1.000  O
  C7       1.0000 0.78000  0.78307  0.62750  Biso   1.000  C
  H13      1.0000 0.80140  0.80540  0.71300  Biso   1.000  H
  H14      1.0000 0.05900  0.10870  0.11420  Biso   1.000  H
  C8       1.0000 0.08730  0.04090  0.07990  Biso   1.000  C
  H15      1.0000 0.14750  0.01450  0.11430  Biso   1.000  H
  H16      1.0000 0.08780  0.09590  0.11430  Biso   1.000  H
  O5       1.0000 0.39819  0.58433  0.61530  Biso   1.000  O
  C9       1.0000 0.28000  0.71693  0.37250  Biso   1.000  C
  H17      1.0000 0.30140  0.69460  0.28700  Biso   1.000  H
  H18      1.0000 0.55900  0.39130  0.88580  Biso   1.000  H
  C10      1.0000 0.58730  0.45910  0.92010  Biso   1.000  C
  H19      1.0000 0.64750  0.48550  0.88570  Biso   1.000  H
  H20      1.0000 0.58780  0.40410  0.88570  Biso   1.000  H
  O6       1.0000 0.89819  0.08433  0.61530  Biso   1.000  O
  C11      1.0000 0.78000  0.21693  0.37250  Biso   1.000  C
  H21      1.0000 0.80140  0.19460  0.28700  Biso   1.000  H
  H22      1.0000 0.05900  0.89130  0.88580  Biso   1.000  H
  C12      1.0000 0.08730  0.95910  0.92010  Biso   1.000  C
  H23      1.0000 0.14750  0.98550  0.88570  Biso   1.000  H
  H24      1.0000 0.08780  0.90410  0.88570  Biso   1.000  H
  O7       1.0000 0.60181  0.41567  0.61530  Biso   1.000  O
  C13      1.0000 0.72000  0.28307  0.37250  Biso   1.000  C
  H25      1.0000 0.69860  0.30540  0.28700  Biso   1.000  H
  H26      1.0000 0.44100  0.60870  0.88580  Biso   1.000  H
  C14      1.0000 0.41270  0.54090  0.92010  Biso   1.000  C
  H27      1.0000 0.35250  0.51450  0.88570  Biso   1.000  H
  H28      1.0000 0.41220  0.59590  0.88570  Biso   1.000  H
  O8       1.0000 0.10181  0.91567  0.61530  Biso   1.000  O
  C15      1.0000 0.22000  0.78307  0.37250  Biso   1.000  C
  H29      1.0000 0.19860  0.80540  0.28700  Biso   1.000  H
  H30      1.0000 0.94100  0.10870  0.88580  Biso   1.000  H
  C16      1.0000 0.91270  0.04090  0.92010  Biso   1.000  C
  H31      1.0000 0.85250  0.01450  0.88570  Biso   1.000  H
  H32      1.0000 0.91220  0.09590  0.88570  Biso   1.000  H
  O9       1.0000 0.39819  0.41567  0.61530  Biso   1.000  O
  C17      1.0000 0.28000  0.28307  0.37250  Biso   1.000  C
  H33      1.0000 0.30140  0.30540  0.28700  Biso   1.000  H
  H34      1.0000 0.55900  0.60870  0.88580  Biso   1.000  H
  C18      1.0000 0.58730  0.54090  0.92010  Biso   1.000  C
  H35      1.0000 0.64750  0.51450  0.88570  Biso   1.000  H
  H36      1.0000 0.58780  0.59590  0.88570  Biso   1.000  H
  O10      1.0000 0.89819  0.91567  0.61530  Biso   1.000  O
  C19      1.0000 0.78000  0.78307  0.37250  Biso   1.000  C
  H37      1.0000 0.80140  0.80540  0.28700  Biso   1.000  H
  H38      1.0000 0.05900  0.10870  0.88580  Biso   1.000  H
  C20      1.0000 0.08730  0.04090  0.92010  Biso   1.000  C
  H39      1.0000 0.14750  0.01450  0.88570  Biso   1.000  H
  H40      1.0000 0.08780  0.09590  0.88570  Biso   1.000  H
  O11      1.0000 0.60181  0.58433  0.61530  Biso   1.000  O
  C21      1.0000 0.72000  0.71693  0.37250  Biso   1.000  C
  H41      1.0000 0.69860  0.69460  0.28700  Biso   1.000  H
  H42      1.0000 0.44100  0.39130  0.88580  Biso   1.000  H
  C22      1.0000 0.41270  0.45910  0.92010  Biso   1.000  C
  H43      1.0000 0.35250  0.48550  0.88570  Biso   1.000  H
  H44      1.0000 0.41220  0.40410  0.88570  Biso   1.000  H
  O12      1.0000 0.10181  0.08433  0.61530  Biso   1.000  O
  C23      1.0000 0.22000  0.21693  0.37250  Biso   1.000  C
  H45      1.0000 0.19860  0.19460  0.28700  Biso   1.000  H
  H46      1.0000 0.94100  0.89130  0.88580  Biso   1.000  H
  C24      1.0000 0.91270  0.95910  0.92010  Biso   1.000  C
  H47      1.0000 0.85250  0.98550  0.88570  Biso   1.000  H
  H48      1.0000 0.91220  0.90410  0.88570  Biso   1.000  H
  O13      1.0000 0.60181  0.41567  0.38470  Biso   1.000  O
  C25      1.0000 0.72000  0.28307  0.62750  Biso   1.000  C
  H49      1.0000 0.69860  0.30540  0.71300  Biso   1.000  H
  H50      1.0000 0.44100  0.60870  0.11420  Biso   1.000  H
  C26      1.0000 0.41270  0.54090  0.07990  Biso   1.000  C
  H51      1.0000 0.35250  0.51450  0.11430  Biso   1.000  H
  H52      1.0000 0.41220  0.59590  0.11430  Biso   1.000  H
  O14      1.0000 0.10181  0.91567  0.38470  Biso   1.000  O
  C27      1.0000 0.22000  0.78307  0.62750  Biso   1.000  C
  H53      1.0000 0.19860  0.80540  0.71300  Biso   1.000  H
  H54      1.0000 0.94100  0.10870  0.11420  Biso   1.000  H
  C28      1.0000 0.91270  0.04090  0.07990  Biso   1.000  C
  H55      1.0000 0.85250  0.01450  0.11430  Biso   1.000  H
  H56      1.0000 0.91220  0.09590  0.11430  Biso   1.000  H
  O15      1.0000 0.39819  0.58433  0.38470  Biso   1.000  O
  C29      1.0000 0.28000  0.71693  0.62750  Biso   1.000  C
  H57      1.0000 0.30140  0.69460  0.71300  Biso   1.000  H
  H58      1.0000 0.55900  0.39130  0.11420  Biso   1.000  H
  C30      1.0000 0.58730  0.45910  0.07990  Biso   1.000  C
  H59      1.0000 0.64750  0.48550  0.11430  Biso   1.000  H
  H60      1.0000 0.58780  0.40410  0.11430  Biso   1.000  H
  O16      1.0000 0.89819  0.08433  0.38470  Biso   1.000  O
  C31      1.0000 0.78000  0.21693  0.62750  Biso   1.000  C
  H61      1.0000 0.80140  0.19460  0.71300  Biso   1.000  H
  H62      1.0000 0.05900  0.89130  0.11420  Biso   1.000  H
  C32      1.0000 0.08730  0.95910  0.07990  Biso   1.000  C
  H63      1.0000 0.14750  0.98550  0.11430  Biso   1.000  H
  H64      1.0000 0.08780  0.90410  0.11430  Biso   1.000  H
  Zn1      1.0000 0.50000  0.50000  0.34787  Biso   1.000  Zn
  N1       1.0000 0.50000  0.50000  0.13380  Biso   1.000  N
  Zn2      1.0000 0.00000  0.00000  0.34787  Biso   1.000  Zn
  N2       1.0000 0.00000  0.00000  0.13380  Biso   1.000  N
  Zn3      1.0000 0.50000  0.50000  0.65213  Biso   1.000  Zn
  N3       1.0000 0.50000  0.50000  0.86620  Biso   1.000  N
  Zn4      1.0000 0.00000  0.00000  0.65213  Biso   1.000  Zn
  N4       1.0000 0.00000  0.00000  0.86620  Biso   1.000  N
  C33      1.0000 0.62660  0.61112  0.50000  Biso   1.000  C
  C34      1.0000 0.69060  0.68297  0.50000  Biso   1.000  C
  C35      1.0000 0.12660  0.11112  0.50000  Biso   1.000  C
  C36      1.0000 0.19060  0.18297  0.50000  Biso   1.000  C
  C37      1.0000 0.37340  0.38888  0.50000  Biso   1.000  C
  C38      1.0000 0.30940  0.31703  0.50000  Biso   1.000  C
  C39      1.0000 0.87340  0.88888  0.50000  Biso   1.000  C
  C40      1.0000 0.80940  0.81703  0.50000  Biso   1.000  C
  C41      1.0000 0.37340  0.61112  0.50000  Biso   1.000  C
  C42      1.0000 0.30940  0.68297  0.50000  Biso   1.000  C
  C43      1.0000 0.87340  0.11112  0.50000  Biso   1.000  C
  C44      1.0000 0.80940  0.18297  0.50000  Biso   1.000  C
  C45      1.0000 0.62660  0.38888  0.50000  Biso   1.000  C
  C46      1.0000 0.69060  0.31703  0.50000  Biso   1.000  C
  C47      1.0000 0.12660  0.88888  0.50000  Biso   1.000  C
  C48      1.0000 0.19060  0.81703  0.50000  Biso   1.000  C
  C49      1.0000 0.50000  0.41950  0.07990  Biso   1.000  C
  C50      1.0000 0.00000  0.91950  0.07990  Biso   1.000  C
  C51      1.0000 0.50000  0.58050  0.07990  Biso   1.000  C
  C52      1.0000 0.00000  0.08050  0.07990  Biso   1.000  C
  C53      1.0000 0.50000  0.41950  0.92010  Biso   1.000  C
  C54      1.0000 0.00000  0.91950  0.92010  Biso   1.000  C
  C55      1.0000 0.50000  0.58050  0.92010  Biso   1.000  C
  C56      1.0000 0.00000  0.08050  0.92010  Biso   1.000  C
