data_image0
_cell_length_a       14.346
_cell_length_b       16.509
_cell_length_c       9.714
_cell_angle_alpha    90
_cell_angle_beta     90
_cell_angle_gamma    90

_symmetry_space_group_name_H-M    "P 1"
_symmetry_int_tables_number       1

loop_
  _symmetry_equiv_pos_as_xyz
  'x, y, z'

loop_
  _atom_site_label
  _atom_site_occupancy
  _atom_site_fract_x
  _atom_site_fract_y
  _atom_site_fract_z
  _atom_site_thermal_displace_type
  _atom_site_B_iso_or_equiv
  _atom_site_type_symbol
  O1       1.0000 0.09670  0.08671  0.38610  Biso   1.000  O
  C1       1.0000 0.21910  0.21750  0.37870  Biso   1.000  C
  H1       1.0000 0.19840  0.19650  0.29540  Biso   1.000  H
  H2       1.0000 0.05470  0.10990  0.11200  Biso   1.000  H
  C2       1.0000 0.08150  0.04180  0.07840  Biso   1.000  C
  H3       1.0000 0.13760  0.01540  0.11140  Biso   1.000  H
  H4       1.0000 0.08210  0.09720  0.11140  Biso   1.000  H
  O2       1.0000 0.59670  0.58671  0.38610  Biso   1.000  O
  C3       1.0000 0.71910  0.71750  0.37870  Biso   1.000  C
  H5       1.0000 0.69840  0.69650  0.29540  Biso   1.000  H
  H6       1.0000 0.55470  0.60990  0.11200  Biso   1.000  H
  C4       1.0000 0.58150  0.54180  0.07840  Biso   1.000  C
  H7       1.0000 0.63760  0.51540  0.11140  Biso   1.000  H
  H8       1.0000 0.58210  0.59720  0.11140  Biso   1.000  H
  O3       1.0000 0.90330  0.91329  0.38610  Biso   1.000  O
  C5       1.0000 0.78090  0.78250  0.37870  Biso   1.000  C
  H9       1.0000 0.80160  0.80350  0.29540  Biso   1.000  H
  H10      1.0000 0.94530  0.89010  0.11200  Biso   1.000  H
  C6       1.0000 0.91850  0.95820  0.07840  Biso   1.000  C
  H11      1.0000 0.86240  0.98460  0.11140  Biso   1.000  H
  H12      1.0000 0.91790  0.90280  0.11140  Biso   1.000  H
  O4       1.0000 0.40330  0.41329  0.38610  Biso   1.000  O
  C7       1.0000 0.28090  0.28250  0.37870  Biso   1.000  C
  H13      1.0000 0.30160  0.30350  0.29540  Biso   1.000  H
  H14      1.0000 0.44530  0.39010  0.11200  Biso   1.000  H
  C8       1.0000 0.41850  0.45820  0.07840  Biso   1.000  C
  H15      1.0000 0.36240  0.48460  0.11140  Biso   1.000  H
  H16      1.0000 0.41790  0.40280  0.11140  Biso   1.000  H
  O5       1.0000 0.90330  0.08671  0.61390  Biso   1.000  O
  C9       1.0000 0.78090  0.21750  0.62130  Biso   1.000  C
  H17      1.0000 0.80160  0.19650  0.70460  Biso   1.000  H
  H18      1.0000 0.94530  0.10990  0.88800  Biso   1.000  H
  C10      1.0000 0.91850  0.04180  0.92160  Biso   1.000  C
  H19      1.0000 0.86240  0.01540  0.88860  Biso   1.000  H
  H20      1.0000 0.91790  0.09720  0.88860  Biso   1.000  H
  O6       1.0000 0.40330  0.58671  0.61390  Biso   1.000  O
  C11      1.0000 0.28090  0.71750  0.62130  Biso   1.000  C
  H21      1.0000 0.30160  0.69650  0.70460  Biso   1.000  H
  H22      1.0000 0.44530  0.60990  0.88800  Biso   1.000  H
  C12      1.0000 0.41850  0.54180  0.92160  Biso   1.000  C
  H23      1.0000 0.36240  0.51540  0.88860  Biso   1.000  H
  H24      1.0000 0.41790  0.59720  0.88860  Biso   1.000  H
  O7       1.0000 0.09670  0.91329  0.61390  Biso   1.000  O
  C13      1.0000 0.21910  0.78250  0.62130  Biso   1.000  C
  H25      1.0000 0.19840  0.80350  0.70460  Biso   1.000  H
  H26      1.0000 0.05470  0.89010  0.88800  Biso   1.000  H
  C14      1.0000 0.08150  0.95820  0.92160  Biso   1.000  C
  H27      1.0000 0.13760  0.98460  0.88860  Biso   1.000  H
  H28      1.0000 0.08210  0.90280  0.88860  Biso   1.000  H
  O8       1.0000 0.59670  0.41329  0.61390  Biso   1.000  O
  C15      1.0000 0.71910  0.28250  0.62130  Biso   1.000  C
  H29      1.0000 0.69840  0.30350  0.70460  Biso   1.000  H
  H30      1.0000 0.55470  0.39010  0.88800  Biso   1.000  H
  C16      1.0000 0.58150  0.45820  0.92160  Biso   1.000  C
  H31      1.0000 0.63760  0.48460  0.88860  Biso   1.000  H
  H32      1.0000 0.58210  0.40280  0.88860  Biso   1.000  H
  O9       1.0000 0.90330  0.91329  0.61390  Biso   1.000  O
  C17      1.0000 0.78090  0.78250  0.62130  Biso   1.000  C
  H33      1.0000 0.80160  0.80350  0.70460  Biso   1.000  H
  H34      1.0000 0.94530  0.89010  0.88800  Biso   1.000  H
  C18      1.0000 0.91850  0.95820  0.92160  Biso   1.000  C
  H35      1.0000 0.86240  0.98460  0.88860  Biso   1.000  H
  H36      1.0000 0.91790  0.90280  0.88860  Biso   1.000  H
  O10      1.0000 0.40330  0.41329  0.61390  Biso   1.000  O
  C19      1.0000 0.28090  0.28250  0.62130  Biso   1.000  C
  H37      1.0000 0.30160  0.30350  0.70460  Biso   1.000  H
  H38      1.0000 0.44530  0.39010  0.88800  Biso   1.000  H
  C20      1.0000 0.41850  0.45820  0.92160  Biso   1.000  C
  H39      1.0000 0.36240  0.48460  0.88860  Biso   1.000  H
  H40      1.0000 0.41790  0.40280  0.88860  Biso   1.000  H
  O11      1.0000 0.09670  0.08671  0.61390  Biso   1.000  O
  C21      1.0000 0.21910  0.21750  0.62130  Biso   1.000  C
  H41      1.0000 0.19840  0.19650  0.70460  Biso   1.000  H
  H42      1.0000 0.05470  0.10990  0.88800  Biso   1.000  H
  C22      1.0000 0.08150  0.04180  0.92160  Biso   1.000  C
  H43      1.0000 0.13760  0.01540  0.88860  Biso   1.000  H
  H44      1.0000 0.08210  0.09720  0.88860  Biso   1.000  H
  O12      1.0000 0.59670  0.58671  0.61390  Biso   1.000  O
  C23      1.0000 0.71910  0.71750  0.62130  Biso   1.000  C
  H45      1.0000 0.69840  0.69650  0.70460  Biso   1.000  H
  H46      1.0000 0.55470  0.60990  0.88800  Biso   1.000  H
  C24      1.0000 0.58150  0.54180  0.92160  Biso   1.000  C
  H47      1.0000 0.63760  0.51540  0.88860  Biso   1.000  H
  H48      1.0000 0.58210  0.59720  0.88860  Biso   1.000  H
  O13      1.0000 0.09670  0.91329  0.38610  Biso   1.000  O
  C25      1.0000 0.21910  0.78250  0.37870  Biso   1.000  C
  H49      1.0000 0.19840  0.80350  0.29540  Biso   1.000  H
  H50      1.0000 0.05470  0.89010  0.11200  Biso   1.000  H
  C26      1.0000 0.08150  0.95820  0.07840  Biso   1.000  C
  H51      1.0000 0.13760  0.98460  0.11140  Biso   1.000  H
  H52      1.0000 0.08210  0.90280  0.11140  Biso   1.000  H
  O14      1.0000 0.59670  0.41329  0.38610  Biso   1.000  O
  C27      1.0000 0.71910  0.28250  0.37870  Biso   1.000  C
  H53      1.0000 0.69840  0.30350  0.29540  Biso   1.000  H
  H54      1.0000 0.55470  0.39010  0.11200  Biso   1.000  H
  C28      1.0000 0.58150  0.45820  0.07840  Biso   1.000  C
  H55      1.0000 0.63760  0.48460  0.11140  Biso   1.000  H
  H56      1.0000 0.58210  0.40280  0.11140  Biso   1.000  H
  O15      1.0000 0.90330  0.08671  0.38610  Biso   1.000  O
  C29      1.0000 0.78090  0.21750  0.37870  Biso   1.000  C
  H57      1.0000 0.80160  0.19650  0.29540  Biso   1.000  H
  H58      1.0000 0.94530  0.10990  0.11200  Biso   1.000  H
  C30      1.0000 0.91850  0.04180  0.07840  Biso   1.000  C
  H59      1.0000 0.86240  0.01540  0.11140  Biso   1.000  H
  H60      1.0000 0.91790  0.09720  0.11140  Biso   1.000  H
  O16      1.0000 0.40330  0.58671  0.38610  Biso   1.000  O
  C31      1.0000 0.28090  0.71750  0.37870  Biso   1.000  C
  H61      1.0000 0.30160  0.69650  0.29540  Biso   1.000  H
  H62      1.0000 0.44530  0.60990  0.11200  Biso   1.000  H
  C32      1.0000 0.41850  0.54180  0.07840  Biso   1.000  C
  H63      1.0000 0.36240  0.51540  0.11140  Biso   1.000  H
  H64      1.0000 0.41790  0.59720  0.11140  Biso   1.000  H
  Zn1      1.0000 0.00000  0.00000  0.34765  Biso   1.000  Zn
  N1       1.0000 0.00000  0.00000  0.13380  Biso   1.000  N
  Zn2      1.0000 0.50000  0.50000  0.34765  Biso   1.000  Zn
  N2       1.0000 0.50000  0.50000  0.13380  Biso   1.000  N
  Zn3      1.0000 0.00000  0.00000  0.65235  Biso   1.000  Zn
  N3       1.0000 0.00000  0.00000  0.86620  Biso   1.000  N
  Zn4      1.0000 0.50000  0.50000  0.65235  Biso   1.000  Zn
  N4       1.0000 0.50000  0.50000  0.86620  Biso   1.000  N
  C33      1.0000 0.12300  0.11300  0.50000  Biso   1.000  C
  C34      1.0000 0.18820  0.18390  0.50000  Biso   1.000  C
  C35      1.0000 0.62300  0.61300  0.50000  Biso   1.000  C
  C36      1.0000 0.68820  0.68390  0.50000  Biso   1.000  C
  C37      1.0000 0.87700  0.88700  0.50000  Biso   1.000  C
  C38      1.0000 0.81180  0.81610  0.50000  Biso   1.000  C
  C39      1.0000 0.37700  0.38700  0.50000  Biso   1.000  C
  C40      1.0000 0.31180  0.31610  0.50000  Biso   1.000  C
  C41      1.0000 0.87700  0.11300  0.50000  Biso   1.000  C
  C42      1.0000 0.81180  0.18390  0.50000  Biso   1.000  C
  C43      1.0000 0.37700  0.61300  0.50000  Biso   1.000  C
  C44      1.0000 0.31180  0.68390  0.50000  Biso   1.000  C
  C45      1.0000 0.12300  0.88700  0.50000  Biso   1.000  C
  C46      1.0000 0.18820  0.81610  0.50000  Biso   1.000  C
  C47      1.0000 0.62300  0.38700  0.50000  Biso   1.000  C
  C48      1.0000 0.68820  0.31610  0.50000  Biso   1.000  C
  C49      1.0000 0.00000  0.08140  0.07900  Biso   1.000  C
  C50      1.0000 0.50000  0.58140  0.07900  Biso   1.000  C
  C51      1.0000 0.00000  0.91860  0.07900  Biso   1.000  C
  C52      1.0000 0.50000  0.41860  0.07900  Biso   1.000  C
  C53      1.0000 0.00000  0.08140  0.92100  Biso   1.000  C
  C54      1.0000 0.50000  0.58140  0.92100  Biso   1.000  C
  C55      1.0000 0.00000  0.91860  0.92100  Biso   1.000  C
  C56      1.0000 0.50000  0.41860  0.92100  Biso   1.000  C
