data_image0
_cell_length_a       11.9577
_cell_length_b       12.2216
_cell_length_c       13.5034
_cell_angle_alpha    102.535
_cell_angle_beta     98.857
_cell_angle_gamma    107.293

_symmetry_space_group_name_H-M    "P 1"
_symmetry_int_tables_number       1

loop_
  _symmetry_equiv_pos_as_xyz
  'x, y, z'

loop_
  _atom_site_label
  _atom_site_occupancy
  _atom_site_fract_x
  _atom_site_fract_y
  _atom_site_fract_z
  _atom_site_thermal_displace_type
  _atom_site_B_iso_or_equiv
  _atom_site_type_symbol
  Nd1      1.0000 0.67572  0.52189  0.04646  Biso   1.000  Nd
  O1       1.0000 0.70740  0.73840  0.09160  Biso   1.000  O
  O2       1.0000 0.51970  0.63320  0.01140  Biso   1.000  O
  O3       1.0000 0.83960  0.59230  0.20900  Biso   1.000  O
  O4       1.0000 0.72960  0.40270  0.16410  Biso   1.000  O
  O5       1.0000 0.63190  0.54600  0.87100  Biso   1.000  O
  O6       1.0000 0.43140  0.48150  0.81680  Biso   1.000  O
  O7       1.0000 0.38450  0.51480  0.14440  Biso   1.000  O
  O8       1.0000 0.58450  0.56510  0.19240  Biso   1.000  O
  C1       1.0000 0.60300  0.73220  0.05040  Biso   1.000  C
  C2       1.0000 0.45560  0.94540  0.97260  Biso   1.000  C
  C3       1.0000 0.47780  0.83850  0.98120  Biso   1.000  C
  H1       1.0000 0.42020  0.76310  0.94190  Biso   1.000  H
  C4       1.0000 0.57990  0.84360  0.04450  Biso   1.000  C
  C5       1.0000 0.66900  0.95490  0.09910  Biso   1.000  C
  H2       1.0000 0.74200  0.95820  0.14110  Biso   1.000  H
  C6       1.0000 0.65010  0.05790  0.09170  Biso   1.000  C
  H3       1.0000 0.70920  0.13260  0.13050  Biso   1.000  H
  C7       1.0000 0.80980  0.49140  0.22680  Biso   1.000  C
  C8       1.0000 0.01760  0.55730  0.49250  Biso   1.000  C
  C9       1.0000 0.95710  0.57000  0.39790  Biso   1.000  C
  H4       1.0000 0.97950  0.64600  0.38490  Biso   1.000  H
  C10      1.0000 0.87040  0.47850  0.32740  Biso   1.000  C
  C11      1.0000 0.83440  0.36390  0.34640  Biso   1.000  C
  H5       1.0000 0.77260  0.29850  0.29630  Biso   1.000  H
  C12      1.0000 0.88880  0.34820  0.43620  Biso   1.000  C
  H6       1.0000 0.86260  0.27280  0.44990  Biso   1.000  H
  C13      1.0000 0.53640  0.51600  0.80220  Biso   1.000  C
  C14      1.0000 0.48420  0.54000  0.21190  Biso   1.000  C
  C15      1.0000 0.54700  0.52600  0.69500  Biso   1.000  C
  C16      1.0000 0.66100  0.55400  0.66680  Biso   1.000  C
  H7       1.0000 0.73180  0.56860  0.71940  Biso   1.000  H
  C17      1.0000 0.67200  0.56500  0.57500  Biso   1.000  C
  H8       1.0000 0.75110  0.58660  0.56080  Biso   1.000  H
  C18      1.0000 0.56980  0.54600  0.49410  Biso   1.000  C
  C19      1.0000 0.57400  0.55100  0.39110  Biso   1.000  C
  H9       1.0000 0.65060  0.56740  0.37230  Biso   1.000  H
  C20      1.0000 0.47550  0.53700  0.31960  Biso   1.000  C
  C21      1.0000 0.36050  0.51450  0.34650  Biso   1.000  C
  H10      1.0000 0.29020  0.50410  0.29530  Biso   1.000  H
  C22      1.0000 0.35100  0.50300  0.44380  Biso   1.000  C
  H11      1.0000 0.27330  0.48400  0.46000  Biso   1.000  H
  C23      1.0000 0.45250  0.52000  0.52040  Biso   1.000  C
  C24      1.0000 0.44660  0.51300  0.62270  Biso   1.000  C
  H12      1.0000 0.37010  0.49460  0.64100  Biso   1.000  H
  Nd2      1.0000 0.32428  0.47811  0.95354  Biso   1.000  Nd
  O9       1.0000 0.29260  0.26160  0.90840  Biso   1.000  O
  O10      1.0000 0.48030  0.36680  0.98860  Biso   1.000  O
  O11      1.0000 0.16040  0.40770  0.79100  Biso   1.000  O
  O12      1.0000 0.27040  0.59730  0.83590  Biso   1.000  O
  O13      1.0000 0.36810  0.45400  0.12900  Biso   1.000  O
  O14      1.0000 0.56860  0.51850  0.18320  Biso   1.000  O
  O15      1.0000 0.61550  0.48520  0.85560  Biso   1.000  O
  O16      1.0000 0.41550  0.43490  0.80760  Biso   1.000  O
  C25      1.0000 0.39700  0.26780  0.94960  Biso   1.000  C
  C26      1.0000 0.54440  0.05460  0.02740  Biso   1.000  C
  C27      1.0000 0.52220  0.16150  0.01880  Biso   1.000  C
  H13      1.0000 0.57980  0.23690  0.05810  Biso   1.000  H
  C28      1.0000 0.42010  0.15640  0.95550  Biso   1.000  C
  C29      1.0000 0.33100  0.04510  0.90090  Biso   1.000  C
  H14      1.0000 0.25800  0.04180  0.85890  Biso   1.000  H
  C30      1.0000 0.34990  0.94210  0.90830  Biso   1.000  C
  H15      1.0000 0.29080  0.86740  0.86950  Biso   1.000  H
  C31      1.0000 0.19020  0.50860  0.77320  Biso   1.000  C
  C32      1.0000 0.98240  0.44270  0.50750  Biso   1.000  C
  C33      1.0000 0.04290  0.43000  0.60210  Biso   1.000  C
  H16      1.0000 0.02050  0.35400  0.61510  Biso   1.000  H
  C34      1.0000 0.12960  0.52150  0.67260  Biso   1.000  C
  C35      1.0000 0.16560  0.63610  0.65360  Biso   1.000  C
  H17      1.0000 0.22740  0.70150  0.70370  Biso   1.000  H
  C36      1.0000 0.11120  0.65180  0.56380  Biso   1.000  C
  H18      1.0000 0.13740  0.72720  0.55010  Biso   1.000  H
  C37      1.0000 0.46360  0.48400  0.19780  Biso   1.000  C
  C38      1.0000 0.51580  0.46000  0.78810  Biso   1.000  C
  C39      1.0000 0.45300  0.47400  0.30500  Biso   1.000  C
  C40      1.0000 0.33900  0.44600  0.33320  Biso   1.000  C
  H19      1.0000 0.26820  0.43140  0.28060  Biso   1.000  H
  C41      1.0000 0.32800  0.43500  0.42500  Biso   1.000  C
  H20      1.0000 0.24890  0.41340  0.43920  Biso   1.000  H
  C42      1.0000 0.43020  0.45400  0.50590  Biso   1.000  C
  C43      1.0000 0.42600  0.44900  0.60890  Biso   1.000  C
  H21      1.0000 0.34940  0.43260  0.62770  Biso   1.000  H
  C44      1.0000 0.52450  0.46300  0.68040  Biso   1.000  C
  C45      1.0000 0.63950  0.48550  0.65350  Biso   1.000  C
  H22      1.0000 0.70980  0.49590  0.70470  Biso   1.000  H
  C46      1.0000 0.64900  0.49700  0.55620  Biso   1.000  C
  H23      1.0000 0.72670  0.51600  0.54000  Biso   1.000  H
  C47      1.0000 0.54750  0.48000  0.47960  Biso   1.000  C
  C48      1.0000 0.55340  0.48700  0.37730  Biso   1.000  C
  H24      1.0000 0.62990  0.50540  0.35900  Biso   1.000  H
