data_image0
_cell_length_a       10.9504
_cell_length_b       10.9504
_cell_length_c       9.6032
_cell_angle_alpha    90
_cell_angle_beta     90
_cell_angle_gamma    90

_symmetry_space_group_name_H-M    "P 1"
_symmetry_int_tables_number       1

loop_
  _symmetry_equiv_pos_as_xyz
  'x, y, z'

loop_
  _atom_site_label
  _atom_site_occupancy
  _atom_site_fract_x
  _atom_site_fract_y
  _atom_site_fract_z
  _atom_site_thermal_displace_type
  _atom_site_B_iso_or_equiv
  _atom_site_type_symbol
  O1       1.0000 0.18270  0.01630  0.38467  Biso   1.000  O
  C1       1.0000 0.04780  0.11360  0.07990  Biso   1.000  C
  H1       1.0000 0.13220  0.12560  0.11420  Biso   1.000  H
  H2       1.0000 0.99730  0.18240  0.11420  Biso   1.000  H
  O2       1.0000 0.81730  0.98370  0.38467  Biso   1.000  O
  C2       1.0000 0.95220  0.88640  0.07990  Biso   1.000  C
  H3       1.0000 0.86780  0.87440  0.11420  Biso   1.000  H
  H4       1.0000 0.00270  0.81760  0.11420  Biso   1.000  H
  O3       1.0000 0.98370  0.18270  0.38467  Biso   1.000  O
  C3       1.0000 0.88640  0.04780  0.07990  Biso   1.000  C
  H5       1.0000 0.87440  0.13220  0.11420  Biso   1.000  H
  H6       1.0000 0.81760  0.99730  0.11420  Biso   1.000  H
  O4       1.0000 0.01630  0.81730  0.38467  Biso   1.000  O
  C4       1.0000 0.11360  0.95220  0.07990  Biso   1.000  C
  H7       1.0000 0.12560  0.86780  0.11420  Biso   1.000  H
  H8       1.0000 0.18240  0.00270  0.11420  Biso   1.000  H
  O5       1.0000 0.81730  0.01630  0.61533  Biso   1.000  O
  C5       1.0000 0.95220  0.11360  0.92010  Biso   1.000  C
  H9       1.0000 0.86780  0.12560  0.88580  Biso   1.000  H
  H10      1.0000 0.00270  0.18240  0.88580  Biso   1.000  H
  O6       1.0000 0.18270  0.98370  0.61533  Biso   1.000  O
  C6       1.0000 0.04780  0.88640  0.92010  Biso   1.000  C
  H11      1.0000 0.13220  0.87440  0.88580  Biso   1.000  H
  H12      1.0000 0.99730  0.81760  0.88580  Biso   1.000  H
  O7       1.0000 0.01630  0.18270  0.61533  Biso   1.000  O
  C7       1.0000 0.11360  0.04780  0.92010  Biso   1.000  C
  H13      1.0000 0.12560  0.13220  0.88580  Biso   1.000  H
  H14      1.0000 0.18240  0.99730  0.88580  Biso   1.000  H
  O8       1.0000 0.98370  0.81730  0.61533  Biso   1.000  O
  C8       1.0000 0.88640  0.95220  0.92010  Biso   1.000  C
  H15      1.0000 0.87440  0.86780  0.88580  Biso   1.000  H
  H16      1.0000 0.81760  0.00270  0.88580  Biso   1.000  H
  O9       1.0000 0.81730  0.98370  0.61533  Biso   1.000  O
  C9       1.0000 0.95220  0.88640  0.92010  Biso   1.000  C
  H17      1.0000 0.86780  0.87440  0.88580  Biso   1.000  H
  H18      1.0000 0.00270  0.81760  0.88580  Biso   1.000  H
  O10      1.0000 0.18270  0.01630  0.61533  Biso   1.000  O
  C10      1.0000 0.04780  0.11360  0.92010  Biso   1.000  C
  H19      1.0000 0.13220  0.12560  0.88580  Biso   1.000  H
  H20      1.0000 0.99730  0.18240  0.88580  Biso   1.000  H
  O11      1.0000 0.01630  0.81730  0.61533  Biso   1.000  O
  C11      1.0000 0.11360  0.95220  0.92010  Biso   1.000  C
  H21      1.0000 0.12560  0.86780  0.88580  Biso   1.000  H
  H22      1.0000 0.18240  0.00270  0.88580  Biso   1.000  H
  O12      1.0000 0.98370  0.18270  0.61533  Biso   1.000  O
  C12      1.0000 0.88640  0.04780  0.92010  Biso   1.000  C
  H23      1.0000 0.87440  0.13220  0.88580  Biso   1.000  H
  H24      1.0000 0.81760  0.99730  0.88580  Biso   1.000  H
  O13      1.0000 0.18270  0.98370  0.38467  Biso   1.000  O
  C13      1.0000 0.04780  0.88640  0.07990  Biso   1.000  C
  H25      1.0000 0.13220  0.87440  0.11420  Biso   1.000  H
  H26      1.0000 0.99730  0.81760  0.11420  Biso   1.000  H
  O14      1.0000 0.81730  0.01630  0.38467  Biso   1.000  O
  C14      1.0000 0.95220  0.11360  0.07990  Biso   1.000  C
  H27      1.0000 0.86780  0.12560  0.11420  Biso   1.000  H
  H28      1.0000 0.00270  0.18240  0.11420  Biso   1.000  H
  O15      1.0000 0.98370  0.81730  0.38467  Biso   1.000  O
  C15      1.0000 0.88640  0.95220  0.07990  Biso   1.000  C
  H29      1.0000 0.87440  0.86780  0.11420  Biso   1.000  H
  H30      1.0000 0.81760  0.00270  0.11420  Biso   1.000  H
  O16      1.0000 0.01630  0.18270  0.38467  Biso   1.000  O
  C16      1.0000 0.11360  0.04780  0.07990  Biso   1.000  C
  H31      1.0000 0.12560  0.13220  0.11420  Biso   1.000  H
  H32      1.0000 0.18240  0.99730  0.11420  Biso   1.000  H
  Zn1      1.0000 0.00000  0.00000  0.34998  Biso   1.000  Zn
  N1       1.0000 0.00000  0.00000  0.13410  Biso   1.000  N
  Zn2      1.0000 0.00000  0.00000  0.65002  Biso   1.000  Zn
  N2       1.0000 0.00000  0.00000  0.86590  Biso   1.000  N
  C17      1.0000 0.23529  0.00000  0.50000  Biso   1.000  C
  C18      1.0000 0.37258  0.00000  0.50000  Biso   1.000  C
  C19      1.0000 0.76471  0.00000  0.50000  Biso   1.000  C
  C20      1.0000 0.62742  0.00000  0.50000  Biso   1.000  C
  C21      1.0000 0.00000  0.23529  0.50000  Biso   1.000  C
  C22      1.0000 0.00000  0.37258  0.50000  Biso   1.000  C
  C23      1.0000 0.00000  0.76471  0.50000  Biso   1.000  C
  C24      1.0000 0.00000  0.62742  0.50000  Biso   1.000  C
  C25      1.0000 0.43666  0.00000  0.62239  Biso   1.000  C
  H33      1.0000 0.39380  0.00000  0.70840  Biso   1.000  H
  C26      1.0000 0.56334  0.00000  0.62239  Biso   1.000  C
  H34      1.0000 0.60620  0.00000  0.70840  Biso   1.000  H
  C27      1.0000 0.00000  0.43666  0.62239  Biso   1.000  C
  H35      1.0000 0.00000  0.39380  0.70840  Biso   1.000  H
  C28      1.0000 0.00000  0.56334  0.62239  Biso   1.000  C
  H36      1.0000 0.00000  0.60620  0.70840  Biso   1.000  H
  C29      1.0000 0.56334  0.00000  0.37761  Biso   1.000  C
  H37      1.0000 0.60620  0.00000  0.29160  Biso   1.000  H
  C30      1.0000 0.43666  0.00000  0.37761  Biso   1.000  C
  H38      1.0000 0.39380  0.00000  0.29160  Biso   1.000  H
  C31      1.0000 0.00000  0.43666  0.37761  Biso   1.000  C
  H39      1.0000 0.00000  0.39380  0.29160  Biso   1.000  H
  C32      1.0000 0.00000  0.56334  0.37761  Biso   1.000  C
  H40      1.0000 0.00000  0.60620  0.29160  Biso   1.000  H
