data_image0
_cell_length_a       13.5004
_cell_length_b       17.0664
_cell_length_c       9.6715
_cell_angle_alpha    90
_cell_angle_beta     90
_cell_angle_gamma    90

_symmetry_space_group_name_H-M    "P 1"
_symmetry_int_tables_number       1

loop_
  _symmetry_equiv_pos_as_xyz
  'x, y, z'

loop_
  _atom_site_label
  _atom_site_occupancy
  _atom_site_fract_x
  _atom_site_fract_y
  _atom_site_fract_z
  _atom_site_thermal_displace_type
  _atom_site_B_iso_or_equiv
  _atom_site_type_symbol
  O1       1.0000 0.10330  0.08340  0.11510  Biso   1.000  O
  C1       1.0000 0.21900  0.21770  0.12260  Biso   1.000  C
  H1       1.0000 0.19630  0.19710  0.20700  Biso   1.000  H
  C2       1.0000 0.04980  0.06900  0.42050  Biso   1.000  C
  H2       1.0000 0.01620  0.11620  0.38680  Biso   1.000  H
  H3       1.0000 0.11820  0.07020  0.38680  Biso   1.000  H
  H4       1.0000 0.13660  0.04650  0.38440  Biso   1.000  H
  O2       1.0000 0.60330  0.58340  0.11510  Biso   1.000  O
  C3       1.0000 0.71900  0.71770  0.12260  Biso   1.000  C
  H5       1.0000 0.69630  0.69710  0.20700  Biso   1.000  H
  C4       1.0000 0.54980  0.56900  0.42050  Biso   1.000  C
  H6       1.0000 0.51620  0.61620  0.38680  Biso   1.000  H
  H7       1.0000 0.61820  0.57020  0.38680  Biso   1.000  H
  H8       1.0000 0.63660  0.54650  0.38440  Biso   1.000  H
  O3       1.0000 0.89670  0.91660  0.11510  Biso   1.000  O
  C5       1.0000 0.78100  0.78230  0.12260  Biso   1.000  C
  H9       1.0000 0.80370  0.80290  0.20700  Biso   1.000  H
  C6       1.0000 0.95020  0.93100  0.42050  Biso   1.000  C
  H10      1.0000 0.98380  0.88380  0.38680  Biso   1.000  H
  H11      1.0000 0.88180  0.92980  0.38680  Biso   1.000  H
  H12      1.0000 0.86340  0.95350  0.38440  Biso   1.000  H
  O4       1.0000 0.39670  0.41660  0.11510  Biso   1.000  O
  C7       1.0000 0.28100  0.28230  0.12260  Biso   1.000  C
  H13      1.0000 0.30370  0.30290  0.20700  Biso   1.000  H
  C8       1.0000 0.45020  0.43100  0.42050  Biso   1.000  C
  H14      1.0000 0.48380  0.38380  0.38680  Biso   1.000  H
  H15      1.0000 0.38180  0.42980  0.38680  Biso   1.000  H
  H16      1.0000 0.36340  0.45350  0.38440  Biso   1.000  H
  O5       1.0000 0.89670  0.08340  0.88490  Biso   1.000  O
  C9       1.0000 0.78100  0.21770  0.87740  Biso   1.000  C
  H17      1.0000 0.80370  0.19710  0.79300  Biso   1.000  H
  C10      1.0000 0.95020  0.06900  0.57950  Biso   1.000  C
  H18      1.0000 0.98380  0.11620  0.61320  Biso   1.000  H
  H19      1.0000 0.88180  0.07020  0.61320  Biso   1.000  H
  H20      1.0000 0.86340  0.04650  0.61560  Biso   1.000  H
  O6       1.0000 0.39670  0.58340  0.88490  Biso   1.000  O
  C11      1.0000 0.28100  0.71770  0.87740  Biso   1.000  C
  H21      1.0000 0.30370  0.69710  0.79300  Biso   1.000  H
  C12      1.0000 0.45020  0.56900  0.57950  Biso   1.000  C
  H22      1.0000 0.48380  0.61620  0.61320  Biso   1.000  H
  H23      1.0000 0.38180  0.57020  0.61320  Biso   1.000  H
  H24      1.0000 0.36340  0.54650  0.61560  Biso   1.000  H
  O7       1.0000 0.10330  0.91660  0.88490  Biso   1.000  O
  C13      1.0000 0.21900  0.78230  0.87740  Biso   1.000  C
  H25      1.0000 0.19630  0.80290  0.79300  Biso   1.000  H
  C14      1.0000 0.04980  0.93100  0.57950  Biso   1.000  C
  H26      1.0000 0.01620  0.88380  0.61320  Biso   1.000  H
  H27      1.0000 0.11820  0.92980  0.61320  Biso   1.000  H
  H28      1.0000 0.13660  0.95350  0.61560  Biso   1.000  H
  O8       1.0000 0.60330  0.41660  0.88490  Biso   1.000  O
  C15      1.0000 0.71900  0.28230  0.87740  Biso   1.000  C
  H29      1.0000 0.69630  0.30290  0.79300  Biso   1.000  H
  C16      1.0000 0.54980  0.43100  0.57950  Biso   1.000  C
  H30      1.0000 0.51620  0.38380  0.61320  Biso   1.000  H
  H31      1.0000 0.61820  0.42980  0.61320  Biso   1.000  H
  H32      1.0000 0.63660  0.45350  0.61560  Biso   1.000  H
  O9       1.0000 0.89670  0.91660  0.88490  Biso   1.000  O
  C17      1.0000 0.78100  0.78230  0.87740  Biso   1.000  C
  H33      1.0000 0.80370  0.80290  0.79300  Biso   1.000  H
  C18      1.0000 0.95020  0.93100  0.57950  Biso   1.000  C
  H34      1.0000 0.98380  0.88380  0.61320  Biso   1.000  H
  H35      1.0000 0.88180  0.92980  0.61320  Biso   1.000  H
  H36      1.0000 0.86340  0.95350  0.61560  Biso   1.000  H
  O10      1.0000 0.39670  0.41660  0.88490  Biso   1.000  O
  C19      1.0000 0.28100  0.28230  0.87740  Biso   1.000  C
  H37      1.0000 0.30370  0.30290  0.79300  Biso   1.000  H
  C20      1.0000 0.45020  0.43100  0.57950  Biso   1.000  C
  H38      1.0000 0.48380  0.38380  0.61320  Biso   1.000  H
  H39      1.0000 0.38180  0.42980  0.61320  Biso   1.000  H
  H40      1.0000 0.36340  0.45350  0.61560  Biso   1.000  H
  O11      1.0000 0.10330  0.08340  0.88490  Biso   1.000  O
  C21      1.0000 0.21900  0.21770  0.87740  Biso   1.000  C
  H41      1.0000 0.19630  0.19710  0.79300  Biso   1.000  H
  C22      1.0000 0.04980  0.06900  0.57950  Biso   1.000  C
  H42      1.0000 0.01620  0.11620  0.61320  Biso   1.000  H
  H43      1.0000 0.11820  0.07020  0.61320  Biso   1.000  H
  H44      1.0000 0.13660  0.04650  0.61560  Biso   1.000  H
  O12      1.0000 0.60330  0.58340  0.88490  Biso   1.000  O
  C23      1.0000 0.71900  0.71770  0.87740  Biso   1.000  C
  H45      1.0000 0.69630  0.69710  0.79300  Biso   1.000  H
  C24      1.0000 0.54980  0.56900  0.57950  Biso   1.000  C
  H46      1.0000 0.51620  0.61620  0.61320  Biso   1.000  H
  H47      1.0000 0.61820  0.57020  0.61320  Biso   1.000  H
  H48      1.0000 0.63660  0.54650  0.61560  Biso   1.000  H
  O13      1.0000 0.10330  0.91660  0.11510  Biso   1.000  O
  C25      1.0000 0.21900  0.78230  0.12260  Biso   1.000  C
  H49      1.0000 0.19630  0.80290  0.20700  Biso   1.000  H
  C26      1.0000 0.04980  0.93100  0.42050  Biso   1.000  C
  H50      1.0000 0.01620  0.88380  0.38680  Biso   1.000  H
  H51      1.0000 0.11820  0.92980  0.38680  Biso   1.000  H
  H52      1.0000 0.13660  0.95350  0.38440  Biso   1.000  H
  O14      1.0000 0.60330  0.41660  0.11510  Biso   1.000  O
  C27      1.0000 0.71900  0.28230  0.12260  Biso   1.000  C
  H53      1.0000 0.69630  0.30290  0.20700  Biso   1.000  H
  C28      1.0000 0.54980  0.43100  0.42050  Biso   1.000  C
  H54      1.0000 0.51620  0.38380  0.38680  Biso   1.000  H
  H55      1.0000 0.61820  0.42980  0.38680  Biso   1.000  H
  H56      1.0000 0.63660  0.45350  0.38440  Biso   1.000  H
  O15      1.0000 0.89670  0.08340  0.11510  Biso   1.000  O
  C29      1.0000 0.78100  0.21770  0.12260  Biso   1.000  C
  H57      1.0000 0.80370  0.19710  0.20700  Biso   1.000  H
  C30      1.0000 0.95020  0.06900  0.42050  Biso   1.000  C
  H58      1.0000 0.98380  0.11620  0.38680  Biso   1.000  H
  H59      1.0000 0.88180  0.07020  0.38680  Biso   1.000  H
  H60      1.0000 0.86340  0.04650  0.38440  Biso   1.000  H
  O16      1.0000 0.39670  0.58340  0.11510  Biso   1.000  O
  C31      1.0000 0.28100  0.71770  0.12260  Biso   1.000  C
  H61      1.0000 0.30370  0.69710  0.20700  Biso   1.000  H
  C32      1.0000 0.45020  0.56900  0.42050  Biso   1.000  C
  H62      1.0000 0.48380  0.61620  0.38680  Biso   1.000  H
  H63      1.0000 0.38180  0.57020  0.38680  Biso   1.000  H
  H64      1.0000 0.36340  0.54650  0.38440  Biso   1.000  H
  C33      1.0000 0.12670  0.11070  0.00000  Biso   1.000  C
  C34      1.0000 0.19040  0.18330  0.00000  Biso   1.000  C
  C35      1.0000 0.62670  0.61070  0.00000  Biso   1.000  C
  C36      1.0000 0.69040  0.68330  0.00000  Biso   1.000  C
  C37      1.0000 0.87330  0.88930  0.00000  Biso   1.000  C
  C38      1.0000 0.80960  0.81670  0.00000  Biso   1.000  C
  C39      1.0000 0.37330  0.38930  0.00000  Biso   1.000  C
  C40      1.0000 0.30960  0.31670  0.00000  Biso   1.000  C
  C41      1.0000 0.87330  0.11070  0.00000  Biso   1.000  C
  C42      1.0000 0.80960  0.18330  0.00000  Biso   1.000  C
  C43      1.0000 0.37330  0.61070  0.00000  Biso   1.000  C
  C44      1.0000 0.30960  0.68330  0.00000  Biso   1.000  C
  C45      1.0000 0.12670  0.88930  0.00000  Biso   1.000  C
  C46      1.0000 0.19040  0.81670  0.00000  Biso   1.000  C
  C47      1.0000 0.62670  0.38930  0.00000  Biso   1.000  C
  C48      1.0000 0.69040  0.31670  0.00000  Biso   1.000  C
  Zn1      1.0000 0.00000  0.00000  0.15238  Biso   1.000  Zn
  N1       1.0000 0.00000  0.00000  0.36630  Biso   1.000  N
  Zn2      1.0000 0.50000  0.50000  0.15238  Biso   1.000  Zn
  N2       1.0000 0.50000  0.50000  0.36630  Biso   1.000  N
  Zn3      1.0000 0.00000  0.00000  0.84762  Biso   1.000  Zn
  N3       1.0000 0.00000  0.00000  0.63370  Biso   1.000  N
  Zn4      1.0000 0.50000  0.50000  0.84762  Biso   1.000  Zn
  N4       1.0000 0.50000  0.50000  0.63370  Biso   1.000  N
  C49      1.0000 0.10170  0.00000  0.41840  Biso   1.000  C
  C50      1.0000 0.60170  0.50000  0.41840  Biso   1.000  C
  C51      1.0000 0.89830  0.00000  0.41840  Biso   1.000  C
  C52      1.0000 0.39830  0.50000  0.41840  Biso   1.000  C
  C53      1.0000 0.89830  0.00000  0.58160  Biso   1.000  C
  C54      1.0000 0.39830  0.50000  0.58160  Biso   1.000  C
  C55      1.0000 0.10170  0.00000  0.58160  Biso   1.000  C
  C56      1.0000 0.60170  0.50000  0.58160  Biso   1.000  C
