data_image0
_cell_length_a       10.9449
_cell_length_b       10.9449
_cell_length_c       9.609
_cell_angle_alpha    90
_cell_angle_beta     90
_cell_angle_gamma    90

_symmetry_space_group_name_H-M    "P 1"
_symmetry_int_tables_number       1

loop_
  _symmetry_equiv_pos_as_xyz
  'x, y, z'

loop_
  _atom_site_label
  _atom_site_occupancy
  _atom_site_fract_x
  _atom_site_fract_y
  _atom_site_fract_z
  _atom_site_thermal_displace_type
  _atom_site_B_iso_or_equiv
  _atom_site_type_symbol
  O1       1.0000 0.18275  0.01610  0.38482  Biso   1.000  O
  C1       1.0000 0.04780  0.11410  0.07990  Biso   1.000  C
  H1       1.0000 0.13130  0.12610  0.11390  Biso   1.000  H
  H2       1.0000 0.99770  0.18200  0.11390  Biso   1.000  H
  O2       1.0000 0.81725  0.98390  0.38482  Biso   1.000  O
  C2       1.0000 0.95220  0.88590  0.07990  Biso   1.000  C
  H3       1.0000 0.86870  0.87390  0.11390  Biso   1.000  H
  H4       1.0000 0.00230  0.81800  0.11390  Biso   1.000  H
  O3       1.0000 0.98390  0.18275  0.38482  Biso   1.000  O
  C3       1.0000 0.88590  0.04780  0.07990  Biso   1.000  C
  H5       1.0000 0.87390  0.13130  0.11390  Biso   1.000  H
  H6       1.0000 0.81800  0.99770  0.11390  Biso   1.000  H
  O4       1.0000 0.01610  0.81725  0.38482  Biso   1.000  O
  C4       1.0000 0.11410  0.95220  0.07990  Biso   1.000  C
  H7       1.0000 0.12610  0.86870  0.11390  Biso   1.000  H
  H8       1.0000 0.18200  0.00230  0.11390  Biso   1.000  H
  O5       1.0000 0.81725  0.01610  0.61518  Biso   1.000  O
  C5       1.0000 0.95220  0.11410  0.92010  Biso   1.000  C
  H9       1.0000 0.86870  0.12610  0.88610  Biso   1.000  H
  H10      1.0000 0.00230  0.18200  0.88610  Biso   1.000  H
  O6       1.0000 0.18275  0.98390  0.61518  Biso   1.000  O
  C6       1.0000 0.04780  0.88590  0.92010  Biso   1.000  C
  H11      1.0000 0.13130  0.87390  0.88610  Biso   1.000  H
  H12      1.0000 0.99770  0.81800  0.88610  Biso   1.000  H
  O7       1.0000 0.01610  0.18275  0.61518  Biso   1.000  O
  C7       1.0000 0.11410  0.04780  0.92010  Biso   1.000  C
  H13      1.0000 0.12610  0.13130  0.88610  Biso   1.000  H
  H14      1.0000 0.18200  0.99770  0.88610  Biso   1.000  H
  O8       1.0000 0.98390  0.81725  0.61518  Biso   1.000  O
  C8       1.0000 0.88590  0.95220  0.92010  Biso   1.000  C
  H15      1.0000 0.87390  0.86870  0.88610  Biso   1.000  H
  H16      1.0000 0.81800  0.00230  0.88610  Biso   1.000  H
  O9       1.0000 0.81725  0.98390  0.61518  Biso   1.000  O
  C9       1.0000 0.95220  0.88590  0.92010  Biso   1.000  C
  H17      1.0000 0.86870  0.87390  0.88610  Biso   1.000  H
  H18      1.0000 0.00230  0.81800  0.88610  Biso   1.000  H
  O10      1.0000 0.18275  0.01610  0.61518  Biso   1.000  O
  C10      1.0000 0.04780  0.11410  0.92010  Biso   1.000  C
  H19      1.0000 0.13130  0.12610  0.88610  Biso   1.000  H
  H20      1.0000 0.99770  0.18200  0.88610  Biso   1.000  H
  O11      1.0000 0.01610  0.81725  0.61518  Biso   1.000  O
  C11      1.0000 0.11410  0.95220  0.92010  Biso   1.000  C
  H21      1.0000 0.12610  0.86870  0.88610  Biso   1.000  H
  H22      1.0000 0.18200  0.00230  0.88610  Biso   1.000  H
  O12      1.0000 0.98390  0.18275  0.61518  Biso   1.000  O
  C12      1.0000 0.88590  0.04780  0.92010  Biso   1.000  C
  H23      1.0000 0.87390  0.13130  0.88610  Biso   1.000  H
  H24      1.0000 0.81800  0.99770  0.88610  Biso   1.000  H
  O13      1.0000 0.18275  0.98390  0.38482  Biso   1.000  O
  C13      1.0000 0.04780  0.88590  0.07990  Biso   1.000  C
  H25      1.0000 0.13130  0.87390  0.11390  Biso   1.000  H
  H26      1.0000 0.99770  0.81800  0.11390  Biso   1.000  H
  O14      1.0000 0.81725  0.01610  0.38482  Biso   1.000  O
  C14      1.0000 0.95220  0.11410  0.07990  Biso   1.000  C
  H27      1.0000 0.86870  0.12610  0.11390  Biso   1.000  H
  H28      1.0000 0.00230  0.18200  0.11390  Biso   1.000  H
  O15      1.0000 0.98390  0.81725  0.38482  Biso   1.000  O
  C15      1.0000 0.88590  0.95220  0.07990  Biso   1.000  C
  H29      1.0000 0.87390  0.86870  0.11390  Biso   1.000  H
  H30      1.0000 0.81800  0.00230  0.11390  Biso   1.000  H
  O16      1.0000 0.01610  0.18275  0.38482  Biso   1.000  O
  C16      1.0000 0.11410  0.04780  0.07990  Biso   1.000  C
  H31      1.0000 0.12610  0.13130  0.11390  Biso   1.000  H
  H32      1.0000 0.18200  0.99770  0.11390  Biso   1.000  H
  Zn1      1.0000 0.00000  0.00000  0.34993  Biso   1.000  Zn
  N1       1.0000 0.00000  0.00000  0.13390  Biso   1.000  N
  Zn2      1.0000 0.00000  0.00000  0.65007  Biso   1.000  Zn
  N2       1.0000 0.00000  0.00000  0.86610  Biso   1.000  N
  C17      1.0000 0.23534  0.00000  0.50000  Biso   1.000  C
  C18      1.0000 0.37259  0.00000  0.50000  Biso   1.000  C
  C19      1.0000 0.76466  0.00000  0.50000  Biso   1.000  C
  C20      1.0000 0.62741  0.00000  0.50000  Biso   1.000  C
  C21      1.0000 0.00000  0.23534  0.50000  Biso   1.000  C
  C22      1.0000 0.00000  0.37259  0.50000  Biso   1.000  C
  C23      1.0000 0.00000  0.76466  0.50000  Biso   1.000  C
  C24      1.0000 0.00000  0.62741  0.50000  Biso   1.000  C
  C25      1.0000 0.43664  0.00000  0.62195  Biso   1.000  C
  H33      1.0000 0.39430  0.00000  0.70700  Biso   1.000  H
  C26      1.0000 0.56336  0.00000  0.62195  Biso   1.000  C
  H34      1.0000 0.60570  0.00000  0.70700  Biso   1.000  H
  C27      1.0000 0.00000  0.43664  0.62195  Biso   1.000  C
  H35      1.0000 0.00000  0.39430  0.70700  Biso   1.000  H
  C28      1.0000 0.00000  0.56336  0.62195  Biso   1.000  C
  H36      1.0000 0.00000  0.60570  0.70700  Biso   1.000  H
  C29      1.0000 0.56336  0.00000  0.37805  Biso   1.000  C
  H37      1.0000 0.60570  0.00000  0.29300  Biso   1.000  H
  C30      1.0000 0.43664  0.00000  0.37805  Biso   1.000  C
  H38      1.0000 0.39430  0.00000  0.29300  Biso   1.000  H
  C31      1.0000 0.00000  0.43664  0.37805  Biso   1.000  C
  H39      1.0000 0.00000  0.39430  0.29300  Biso   1.000  H
  C32      1.0000 0.00000  0.56336  0.37805  Biso   1.000  C
  H40      1.0000 0.00000  0.60570  0.29300  Biso   1.000  H
