data_image0
_cell_length_a       10.1274
_cell_length_b       14.4606
_cell_length_c       17.0203
_cell_angle_alpha    70.461
_cell_angle_beta     86.321
_cell_angle_gamma    83.639

_symmetry_space_group_name_H-M    "P 1"
_symmetry_int_tables_number       1

loop_
  _symmetry_equiv_pos_as_xyz
  'x, y, z'

loop_
  _atom_site_label
  _atom_site_occupancy
  _atom_site_fract_x
  _atom_site_fract_y
  _atom_site_fract_z
  _atom_site_thermal_displace_type
  _atom_site_B_iso_or_equiv
  _atom_site_type_symbol
  Cd1      1.0000 0.61474  0.81819  0.40229  Biso   1.000  Cd
  Cd2      1.0000 0.95916  0.32224  0.89099  Biso   1.000  Cd
  O1       1.0000 0.68730  0.90480  0.48060  Biso   1.000  O
  O2       1.0000 0.81080  0.90900  0.36950  Biso   1.000  O
  O3       1.0000 0.53590  0.94980  0.63690  Biso   1.000  O
  O4       1.0000 0.50320  0.06780  0.69550  Biso   1.000  O
  O5       1.0000 0.87320  0.75650  0.02860  Biso   1.000  O
  O6       1.0000 0.84690  0.62820  0.98750  Biso   1.000  O
  O7       1.0000 0.96630  0.43880  0.13880  Biso   1.000  O
  O8       1.0000 0.92080  0.56090  0.19300  Biso   1.000  O
  O9       1.0000 0.53260  0.26090  0.50660  Biso   1.000  O
  O10      1.0000 0.61650  0.13100  0.47060  Biso   1.000  O
  O11      1.0000 0.84760  0.40030  0.98430  Biso   1.000  O
  O12      1.0000 0.74720  0.40690  0.87150  Biso   1.000  O
  O13      1.0000 0.85600  0.18890  0.96910  Biso   1.000  O
  N1       1.0000 0.83500  0.10360  0.10400  Biso   1.000  N
  C1       1.0000 0.79240  0.92670  0.43570  Biso   1.000  C
  C2       1.0000 0.89720  0.96680  0.46890  Biso   1.000  C
  C3       1.0000 0.88790  0.97170  0.54910  Biso   1.000  C
  H1       1.0000 0.81060  0.95260  0.58270  Biso   1.000  H
  C4       1.0000 0.01210  0.99640  0.41970  Biso   1.000  C
  H2       1.0000 0.01980  0.99420  0.36440  Biso   1.000  H
  C5       1.0000 0.54380  0.98410  0.69520  Biso   1.000  C
  C6       1.0000 0.61130  0.91290  0.77140  Biso   1.000  C
  C7       1.0000 0.63910  0.94560  0.83720  Biso   1.000  C
  H3       1.0000 0.61180  0.01140  0.83480  Biso   1.000  H
  C8       1.0000 0.70680  0.88090  0.90570  Biso   1.000  C
  H4       1.0000 0.72560  0.90290  0.95020  Biso   1.000  H
  C9       1.0000 0.74720  0.78480  0.90980  Biso   1.000  C
  C10      1.0000 0.71570  0.75180  0.84620  Biso   1.000  C
  H5       1.0000 0.73920  0.68500  0.84990  Biso   1.000  H
  C11      1.0000 0.65060  0.81580  0.77770  Biso   1.000  C
  H6       1.0000 0.63220  0.79290  0.73380  Biso   1.000  H
  C12      1.0000 0.82930  0.71680  0.98120  Biso   1.000  C
  C13      1.0000 0.39450  0.53920  0.94690  Biso   1.000  C
  H7       1.0000 0.32270  0.56650  0.91030  Biso   1.000  H
  C14      1.0000 0.51270  0.50290  0.91790  Biso   1.000  C
  H8       1.0000 0.52120  0.50440  0.86160  Biso   1.000  H
  C15      1.0000 0.61920  0.46410  0.97060  Biso   1.000  C
  C16      1.0000 0.74680  0.42280  0.93950  Biso   1.000  C
  C17      1.0000 0.91180  0.47590  0.19130  Biso   1.000  C
  C18      1.0000 0.82980  0.41080  0.26110  Biso   1.000  C
  C19      1.0000 0.76260  0.44630  0.31970  Biso   1.000  C
  H9       1.0000 0.76590  0.51320  0.31550  Biso   1.000  H
  C20      1.0000 0.69060  0.38560  0.38430  Biso   1.000  C
  H10      1.0000 0.64400  0.41130  0.42390  Biso   1.000  H
  C21      1.0000 0.68570  0.28680  0.39200  Biso   1.000  C
  C22      1.0000 0.60540  0.22140  0.46130  Biso   1.000  C
  C23      1.0000 0.75440  0.25070  0.33460  Biso   1.000  C
  H11      1.0000 0.75350  0.18330  0.34000  Biso   1.000  H
  C24      1.0000 0.82620  0.31270  0.26780  Biso   1.000  C
  H12      1.0000 0.87190  0.28760  0.22760  Biso   1.000  H
  C25      1.0000 0.78580  0.15560  0.03050  Biso   1.000  C
  C26      1.0000 0.65300  0.13900  0.01720  Biso   1.000  C
  H13      1.0000 0.63790  0.15870  0.95860  Biso   1.000  H
  H14      1.0000 0.64240  0.07000  0.04250  Biso   1.000  H
  H15      1.0000 0.59020  0.17620  0.04240  Biso   1.000  H
  C27      1.0000 0.94650  0.14800  0.12930  Biso   1.000  C
  H16      1.0000 0.93900  0.16510  0.17940  Biso   1.000  H
  H17      1.0000 0.00800  0.09030  0.13730  Biso   1.000  H
  H18      1.0000 0.97800  0.20170  0.08410  Biso   1.000  H
  C28      1.0000 0.73000  0.10190  0.17680  Biso   1.000  C
  H19      1.0000 0.73440  0.14100  0.21210  Biso   1.000  H
  H20      1.0000 0.64180  0.11240  0.15530  Biso   1.000  H
  H21      1.0000 0.74870  0.03340  0.20860  Biso   1.000  H
  O14      1.0000 0.83000  0.18600  0.97160  Biso   1.000  O
  N2       1.0000 0.82040  0.13340  0.11000  Biso   1.000  N
  C29      1.0000 0.87900  0.10780  0.02170  Biso   1.000  C
  C30      1.0000 0.96100  0.04390  0.98470  Biso   1.000  C
  H22      1.0000 0.95710  0.06940  0.92500  Biso   1.000  H
  H23      1.0000 0.05060  0.03920  0.00120  Biso   1.000  H
  H24      1.0000 0.92880  0.97960  0.00460  Biso   1.000  H
  C31      1.0000 0.73900  0.18020  0.11680  Biso   1.000  C
  H25      1.0000 0.70390  0.22300  0.06450  Biso   1.000  H
  H26      1.0000 0.66750  0.14940  0.15240  Biso   1.000  H
  H27      1.0000 0.78130  0.21790  0.14300  Biso   1.000  H
  C32      1.0000 0.91800  0.02060  0.15790  Biso   1.000  C
  H28      1.0000 0.97050  0.98640  0.12530  Biso   1.000  H
  H29      1.0000 0.97620  0.04480  0.18750  Biso   1.000  H
  H30      1.0000 0.86240  0.97630  0.19700  Biso   1.000  H
  Cd3      1.0000 0.38526  0.18181  0.59771  Biso   1.000  Cd
  Cd4      1.0000 0.04084  0.67776  0.10901  Biso   1.000  Cd
  O15      1.0000 0.31270  0.09520  0.51940  Biso   1.000  O
  O16      1.0000 0.18920  0.09100  0.63050  Biso   1.000  O
  O17      1.0000 0.46410  0.05020  0.36310  Biso   1.000  O
  O18      1.0000 0.49680  0.93220  0.30450  Biso   1.000  O
  O19      1.0000 0.12680  0.24350  0.97140  Biso   1.000  O
  O20      1.0000 0.15310  0.37180  0.01250  Biso   1.000  O
  O21      1.0000 0.03370  0.56120  0.86120  Biso   1.000  O
  O22      1.0000 0.07920  0.43910  0.80700  Biso   1.000  O
  O23      1.0000 0.46740  0.73910  0.49340  Biso   1.000  O
  O24      1.0000 0.38350  0.86900  0.52940  Biso   1.000  O
  O25      1.0000 0.15240  0.59970  0.01570  Biso   1.000  O
  O26      1.0000 0.25280  0.59310  0.12850  Biso   1.000  O
  O27      1.0000 0.14400  0.81110  0.03090  Biso   1.000  O
  N3       1.0000 0.16500  0.89640  0.89600  Biso   1.000  N
  C33      1.0000 0.20760  0.07330  0.56430  Biso   1.000  C
  C34      1.0000 0.10280  0.03320  0.53110  Biso   1.000  C
  C35      1.0000 0.11210  0.02830  0.45090  Biso   1.000  C
  H31      1.0000 0.18940  0.04740  0.41730  Biso   1.000  H
  C36      1.0000 0.98790  0.00360  0.58030  Biso   1.000  C
  H32      1.0000 0.98020  0.00580  0.63560  Biso   1.000  H
  C37      1.0000 0.45620  0.01590  0.30480  Biso   1.000  C
  C38      1.0000 0.38870  0.08710  0.22860  Biso   1.000  C
  C39      1.0000 0.36090  0.05440  0.16280  Biso   1.000  C
  H33      1.0000 0.38820  0.98860  0.16520  Biso   1.000  H
  C40      1.0000 0.29320  0.11910  0.09430  Biso   1.000  C
  H34      1.0000 0.27440  0.09710  0.04980  Biso   1.000  H
  C41      1.0000 0.25280  0.21520  0.09020  Biso   1.000  C
  C42      1.0000 0.28430  0.24820  0.15380  Biso   1.000  C
  H35      1.0000 0.26080  0.31500  0.15010  Biso   1.000  H
  C43      1.0000 0.34940  0.18420  0.22230  Biso   1.000  C
  H36      1.0000 0.36780  0.20710  0.26620  Biso   1.000  H
  C44      1.0000 0.17070  0.28320  0.01880  Biso   1.000  C
  C45      1.0000 0.60550  0.46080  0.05310  Biso   1.000  C
  H37      1.0000 0.67730  0.43350  0.08970  Biso   1.000  H
  C46      1.0000 0.48730  0.49710  0.08210  Biso   1.000  C
  H38      1.0000 0.47880  0.49560  0.13840  Biso   1.000  H
  C47      1.0000 0.38080  0.53590  0.02940  Biso   1.000  C
  C48      1.0000 0.25320  0.57720  0.06050  Biso   1.000  C
  C49      1.0000 0.08820  0.52410  0.80870  Biso   1.000  C
  C50      1.0000 0.17020  0.58920  0.73890  Biso   1.000  C
  C51      1.0000 0.23740  0.55370  0.68030  Biso   1.000  C
  H39      1.0000 0.23410  0.48680  0.68450  Biso   1.000  H
  C52      1.0000 0.30940  0.61440  0.61570  Biso   1.000  C
  H40      1.0000 0.35600  0.58870  0.57610  Biso   1.000  H
  C53      1.0000 0.31430  0.71320  0.60800  Biso   1.000  C
  C54      1.0000 0.39460  0.77860  0.53870  Biso   1.000  C
  C55      1.0000 0.24560  0.74930  0.66540  Biso   1.000  C
  H41      1.0000 0.24650  0.81670  0.66000  Biso   1.000  H
  C56      1.0000 0.17380  0.68730  0.73220  Biso   1.000  C
  H42      1.0000 0.12810  0.71240  0.77240  Biso   1.000  H
  C57      1.0000 0.21420  0.84440  0.96950  Biso   1.000  C
  C58      1.0000 0.34700  0.86100  0.98280  Biso   1.000  C
  H43      1.0000 0.36210  0.84130  0.04140  Biso   1.000  H
  H44      1.0000 0.35760  0.93000  0.95750  Biso   1.000  H
  H45      1.0000 0.40980  0.82380  0.95760  Biso   1.000  H
  C59      1.0000 0.05350  0.85200  0.87070  Biso   1.000  C
  H46      1.0000 0.06100  0.83490  0.82060  Biso   1.000  H
  H47      1.0000 0.99200  0.90970  0.86270  Biso   1.000  H
  H48      1.0000 0.02200  0.79830  0.91590  Biso   1.000  H
  C60      1.0000 0.27000  0.89810  0.82320  Biso   1.000  C
  H49      1.0000 0.26560  0.85900  0.78790  Biso   1.000  H
  H50      1.0000 0.35820  0.88760  0.84470  Biso   1.000  H
  H51      1.0000 0.25130  0.96660  0.79140  Biso   1.000  H
  O28      1.0000 0.17000  0.81400  0.02840  Biso   1.000  O
  N4       1.0000 0.17960  0.86660  0.89000  Biso   1.000  N
  C61      1.0000 0.12100  0.89220  0.97830  Biso   1.000  C
  C62      1.0000 0.03900  0.95610  0.01530  Biso   1.000  C
  H52      1.0000 0.04290  0.93060  0.07500  Biso   1.000  H
  H53      1.0000 0.94940  0.96080  0.99880  Biso   1.000  H
  H54      1.0000 0.07120  0.02040  0.99540  Biso   1.000  H
  C63      1.0000 0.26100  0.81980  0.88320  Biso   1.000  C
  H55      1.0000 0.29610  0.77700  0.93550  Biso   1.000  H
  H56      1.0000 0.33250  0.85060  0.84760  Biso   1.000  H
  H57      1.0000 0.21870  0.78210  0.85700  Biso   1.000  H
  C64      1.0000 0.08200  0.97940  0.84210  Biso   1.000  C
  H58      1.0000 0.02950  0.01360  0.87470  Biso   1.000  H
  H59      1.0000 0.02380  0.95520  0.81250  Biso   1.000  H
  H60      1.0000 0.13760  0.02370  0.80300  Biso   1.000  H
  Cd5      1.0000 0.50000  0.00000  0.50000  Biso   1.000  Cd
  Cd6      1.0000 0.00000  0.50000  0.00000  Biso   1.000  Cd
