data_image0
_cell_length_a       30.8568
_cell_length_b       30.8568
_cell_length_c       6.4681
_cell_angle_alpha    90
_cell_angle_beta     90
_cell_angle_gamma    90

_symmetry_space_group_name_H-M    "P 1"
_symmetry_int_tables_number       1

loop_
  _symmetry_equiv_pos_as_xyz
  'x, y, z'

loop_
  _atom_site_label
  _atom_site_occupancy
  _atom_site_fract_x
  _atom_site_fract_y
  _atom_site_fract_z
  _atom_site_thermal_displace_type
  _atom_site_B_iso_or_equiv
  _atom_site_type_symbol
  Na1      1.0000 0.34048  0.72119  0.81931  Biso   1.000  Na
  O1       1.0000 0.44024  0.83950  0.97390  Biso   1.000  O
  O2       1.0000 0.48556  0.80896  0.22930  Biso   1.000  O
  O3       1.0000 0.35947  0.80380  0.66690  Biso   1.000  O
  C1       1.0000 0.34101  0.81547  0.83030  Biso   1.000  C
  C2       1.0000 0.33762  0.86311  0.87770  Biso   1.000  C
  H1       1.0000 0.36570  0.87700  0.85380  Biso   1.000  H
  H2       1.0000 0.32920  0.86700  0.02250  Biso   1.000  H
  H3       1.0000 0.31580  0.87630  0.78770  Biso   1.000  H
  O4       1.0000 0.32519  0.78942  0.95990  Biso   1.000  O
  O5       1.0000 0.26569  0.70246  0.84850  Biso   1.000  O
  H4       1.0000 0.27690  0.62400  0.93700  Biso   1.000  H
  H5       1.0000 0.22510  0.62400  0.92050  Biso   1.000  H
  H6       1.0000 0.24800  0.62400  0.14250  Biso   1.000  H
  Na2      1.0000 0.84048  0.22119  0.31931  Biso   1.000  Na
  O6       1.0000 0.94024  0.33950  0.47390  Biso   1.000  O
  O7       1.0000 0.98556  0.30896  0.72930  Biso   1.000  O
  O8       1.0000 0.85947  0.30380  0.16690  Biso   1.000  O
  C3       1.0000 0.84101  0.31547  0.33030  Biso   1.000  C
  C4       1.0000 0.83762  0.36311  0.37770  Biso   1.000  C
  H7       1.0000 0.86570  0.37700  0.35380  Biso   1.000  H
  H8       1.0000 0.82920  0.36700  0.52250  Biso   1.000  H
  H9       1.0000 0.81580  0.37630  0.28770  Biso   1.000  H
  O9       1.0000 0.82519  0.28942  0.45990  Biso   1.000  O
  O10      1.0000 0.76569  0.20246  0.34850  Biso   1.000  O
  H10      1.0000 0.77690  0.12400  0.43700  Biso   1.000  H
  H11      1.0000 0.72510  0.12400  0.42050  Biso   1.000  H
  H12      1.0000 0.74800  0.12400  0.64250  Biso   1.000  H
  Na3      1.0000 0.15952  0.27881  0.31931  Biso   1.000  Na
  O11      1.0000 0.05976  0.16050  0.47390  Biso   1.000  O
  O12      1.0000 0.01444  0.19104  0.72930  Biso   1.000  O
  O13      1.0000 0.14053  0.19620  0.16690  Biso   1.000  O
  C5       1.0000 0.15899  0.18453  0.33030  Biso   1.000  C
  C6       1.0000 0.16238  0.13689  0.37770  Biso   1.000  C
  H13      1.0000 0.13430  0.12300  0.35380  Biso   1.000  H
  H14      1.0000 0.17080  0.13300  0.52250  Biso   1.000  H
  H15      1.0000 0.18420  0.12370  0.28770  Biso   1.000  H
  O14      1.0000 0.17481  0.21058  0.45990  Biso   1.000  O
  O15      1.0000 0.23431  0.29754  0.34850  Biso   1.000  O
  H16      1.0000 0.22310  0.37600  0.43700  Biso   1.000  H
  H17      1.0000 0.27490  0.37600  0.42050  Biso   1.000  H
  H18      1.0000 0.25200  0.37600  0.64250  Biso   1.000  H
  Na4      1.0000 0.65952  0.77881  0.81931  Biso   1.000  Na
  O16      1.0000 0.55976  0.66050  0.97390  Biso   1.000  O
  O17      1.0000 0.51444  0.69104  0.22930  Biso   1.000  O
  O18      1.0000 0.64053  0.69620  0.66690  Biso   1.000  O
  C7       1.0000 0.65899  0.68453  0.83030  Biso   1.000  C
  C8       1.0000 0.66238  0.63689  0.87770  Biso   1.000  C
  H19      1.0000 0.63430  0.62300  0.85380  Biso   1.000  H
  H20      1.0000 0.67080  0.63300  0.02250  Biso   1.000  H
  H21      1.0000 0.68420  0.62370  0.78770  Biso   1.000  H
  O19      1.0000 0.67481  0.71058  0.95990  Biso   1.000  O
  O20      1.0000 0.73431  0.79754  0.84850  Biso   1.000  O
  H22      1.0000 0.72310  0.87600  0.93700  Biso   1.000  H
  H23      1.0000 0.77490  0.87600  0.92050  Biso   1.000  H
  H24      1.0000 0.75200  0.87600  0.14250  Biso   1.000  H
  Na5      1.0000 0.52881  0.09048  0.06931  Biso   1.000  Na
  O21      1.0000 0.41050  0.19024  0.22390  Biso   1.000  O
  O22      1.0000 0.44104  0.23556  0.47930  Biso   1.000  O
  O23      1.0000 0.44620  0.10947  0.91690  Biso   1.000  O
  C9       1.0000 0.43453  0.09101  0.08030  Biso   1.000  C
  C10      1.0000 0.38689  0.08762  0.12770  Biso   1.000  C
  H25      1.0000 0.37300  0.11570  0.10380  Biso   1.000  H
  H26      1.0000 0.38300  0.07920  0.27250  Biso   1.000  H
  H27      1.0000 0.37370  0.06580  0.03770  Biso   1.000  H
  O24      1.0000 0.46058  0.07519  0.20990  Biso   1.000  O
  O25      1.0000 0.54754  0.01569  0.09850  Biso   1.000  O
  H28      1.0000 0.62600  0.02690  0.18700  Biso   1.000  H
  H29      1.0000 0.62600  0.97510  0.17050  Biso   1.000  H
  H30      1.0000 0.62600  0.99800  0.39250  Biso   1.000  H
  Na6      1.0000 0.02881  0.59048  0.56931  Biso   1.000  Na
  O26      1.0000 0.91050  0.69024  0.72390  Biso   1.000  O
  O27      1.0000 0.94104  0.73556  0.97930  Biso   1.000  O
  O28      1.0000 0.94620  0.60947  0.41690  Biso   1.000  O
  C11      1.0000 0.93453  0.59101  0.58030  Biso   1.000  C
  C12      1.0000 0.88689  0.58762  0.62770  Biso   1.000  C
  H31      1.0000 0.87300  0.61570  0.60380  Biso   1.000  H
  H32      1.0000 0.88300  0.57920  0.77250  Biso   1.000  H
  H33      1.0000 0.87370  0.56580  0.53770  Biso   1.000  H
  O29      1.0000 0.96058  0.57519  0.70990  Biso   1.000  O
  O30      1.0000 0.04754  0.51569  0.59850  Biso   1.000  O
  H34      1.0000 0.12600  0.52690  0.68700  Biso   1.000  H
  H35      1.0000 0.12600  0.47510  0.67050  Biso   1.000  H
  H36      1.0000 0.12600  0.49800  0.89250  Biso   1.000  H
  Na7      1.0000 0.97119  0.90952  0.56931  Biso   1.000  Na
  O31      1.0000 0.08950  0.80976  0.72390  Biso   1.000  O
  O32      1.0000 0.05896  0.76444  0.97930  Biso   1.000  O
  O33      1.0000 0.05380  0.89053  0.41690  Biso   1.000  O
  C13      1.0000 0.06547  0.90899  0.58030  Biso   1.000  C
  C14      1.0000 0.11311  0.91238  0.62770  Biso   1.000  C
  H37      1.0000 0.12700  0.88430  0.60380  Biso   1.000  H
  H38      1.0000 0.11700  0.92080  0.77250  Biso   1.000  H
  H39      1.0000 0.12630  0.93420  0.53770  Biso   1.000  H
  O34      1.0000 0.03942  0.92481  0.70990  Biso   1.000  O
  O35      1.0000 0.95246  0.98431  0.59850  Biso   1.000  O
  H40      1.0000 0.87400  0.97310  0.68700  Biso   1.000  H
  H41      1.0000 0.87400  0.02490  0.67050  Biso   1.000  H
  H42      1.0000 0.87400  0.00200  0.89250  Biso   1.000  H
  Na8      1.0000 0.47119  0.40952  0.06931  Biso   1.000  Na
  O36      1.0000 0.58950  0.30976  0.22390  Biso   1.000  O
  O37      1.0000 0.55896  0.26444  0.47930  Biso   1.000  O
  O38      1.0000 0.55380  0.39053  0.91690  Biso   1.000  O
  C15      1.0000 0.56547  0.40899  0.08030  Biso   1.000  C
  C16      1.0000 0.61311  0.41238  0.12770  Biso   1.000  C
  H43      1.0000 0.62700  0.38430  0.10380  Biso   1.000  H
  H44      1.0000 0.61700  0.42080  0.27250  Biso   1.000  H
  H45      1.0000 0.62630  0.43420  0.03770  Biso   1.000  H
  O39      1.0000 0.53942  0.42481  0.20990  Biso   1.000  O
  O40      1.0000 0.45246  0.48431  0.09850  Biso   1.000  O
  H46      1.0000 0.37400  0.47310  0.18700  Biso   1.000  H
  H47      1.0000 0.37400  0.52490  0.17050  Biso   1.000  H
  H48      1.0000 0.37400  0.50200  0.39250  Biso   1.000  H
  Na9      1.0000 0.15952  0.72119  0.18069  Biso   1.000  Na
  O41      1.0000 0.05976  0.83950  0.02610  Biso   1.000  O
  O42      1.0000 0.01444  0.80896  0.77070  Biso   1.000  O
  O43      1.0000 0.14053  0.80380  0.33310  Biso   1.000  O
  C17      1.0000 0.15899  0.81547  0.16970  Biso   1.000  C
  C18      1.0000 0.16238  0.86311  0.12230  Biso   1.000  C
  H49      1.0000 0.13430  0.87700  0.14620  Biso   1.000  H
  H50      1.0000 0.17080  0.86700  0.97750  Biso   1.000  H
  H51      1.0000 0.18420  0.87630  0.21230  Biso   1.000  H
  O44      1.0000 0.17481  0.78942  0.04010  Biso   1.000  O
  O45      1.0000 0.23431  0.70246  0.15150  Biso   1.000  O
  H52      1.0000 0.22310  0.62400  0.06300  Biso   1.000  H
  H53      1.0000 0.27490  0.62400  0.07950  Biso   1.000  H
  H54      1.0000 0.25200  0.62400  0.85750  Biso   1.000  H
  Na10     1.0000 0.65952  0.22119  0.68069  Biso   1.000  Na
  O46      1.0000 0.55976  0.33950  0.52610  Biso   1.000  O
  O47      1.0000 0.51444  0.30896  0.27070  Biso   1.000  O
  O48      1.0000 0.64053  0.30380  0.83310  Biso   1.000  O
  C19      1.0000 0.65899  0.31547  0.66970  Biso   1.000  C
  C20      1.0000 0.66238  0.36311  0.62230  Biso   1.000  C
  H55      1.0000 0.63430  0.37700  0.64620  Biso   1.000  H
  H56      1.0000 0.67080  0.36700  0.47750  Biso   1.000  H
  H57      1.0000 0.68420  0.37630  0.71230  Biso   1.000  H
  O49      1.0000 0.67481  0.28942  0.54010  Biso   1.000  O
  O50      1.0000 0.73431  0.20246  0.65150  Biso   1.000  O
  H58      1.0000 0.72310  0.12400  0.56300  Biso   1.000  H
  H59      1.0000 0.77490  0.12400  0.57950  Biso   1.000  H
  H60      1.0000 0.75200  0.12400  0.35750  Biso   1.000  H
  Na11     1.0000 0.34048  0.27881  0.68069  Biso   1.000  Na
  O51      1.0000 0.44024  0.16050  0.52610  Biso   1.000  O
  O52      1.0000 0.48556  0.19104  0.27070  Biso   1.000  O
  O53      1.0000 0.35947  0.19620  0.83310  Biso   1.000  O
  C21      1.0000 0.34101  0.18453  0.66970  Biso   1.000  C
  C22      1.0000 0.33762  0.13689  0.62230  Biso   1.000  C
  H61      1.0000 0.36570  0.12300  0.64620  Biso   1.000  H
  H62      1.0000 0.32920  0.13300  0.47750  Biso   1.000  H
  H63      1.0000 0.31580  0.12370  0.71230  Biso   1.000  H
  O54      1.0000 0.32519  0.21058  0.54010  Biso   1.000  O
  O55      1.0000 0.26569  0.29754  0.65150  Biso   1.000  O
  H64      1.0000 0.27690  0.37600  0.56300  Biso   1.000  H
  H65      1.0000 0.22510  0.37600  0.57950  Biso   1.000  H
  H66      1.0000 0.24800  0.37600  0.35750  Biso   1.000  H
  Na12     1.0000 0.84048  0.77881  0.18069  Biso   1.000  Na
  O56      1.0000 0.94024  0.66050  0.02610  Biso   1.000  O
  O57      1.0000 0.98556  0.69104  0.77070  Biso   1.000  O
  O58      1.0000 0.85947  0.69620  0.33310  Biso   1.000  O
  C23      1.0000 0.84101  0.68453  0.16970  Biso   1.000  C
  C24      1.0000 0.83762  0.63689  0.12230  Biso   1.000  C
  H67      1.0000 0.86570  0.62300  0.14620  Biso   1.000  H
  H68      1.0000 0.82920  0.63300  0.97750  Biso   1.000  H
  H69      1.0000 0.81580  0.62370  0.21230  Biso   1.000  H
  O59      1.0000 0.82519  0.71058  0.04010  Biso   1.000  O
  O60      1.0000 0.76569  0.79754  0.15150  Biso   1.000  O
  H70      1.0000 0.77690  0.87600  0.06300  Biso   1.000  H
  H71      1.0000 0.72510  0.87600  0.07950  Biso   1.000  H
  H72      1.0000 0.74800  0.87600  0.85750  Biso   1.000  H
  Na13     1.0000 0.97119  0.09048  0.93069  Biso   1.000  Na
  O61      1.0000 0.08950  0.19024  0.77610  Biso   1.000  O
  O62      1.0000 0.05896  0.23556  0.52070  Biso   1.000  O
  O63      1.0000 0.05380  0.10947  0.08310  Biso   1.000  O
  C25      1.0000 0.06547  0.09101  0.91970  Biso   1.000  C
  C26      1.0000 0.11311  0.08762  0.87230  Biso   1.000  C
  H73      1.0000 0.12700  0.11570  0.89620  Biso   1.000  H
  H74      1.0000 0.11700  0.07920  0.72750  Biso   1.000  H
  H75      1.0000 0.12630  0.06580  0.96230  Biso   1.000  H
  O64      1.0000 0.03942  0.07519  0.79010  Biso   1.000  O
  O65      1.0000 0.95246  0.01569  0.90150  Biso   1.000  O
  H76      1.0000 0.87400  0.02690  0.81300  Biso   1.000  H
  H77      1.0000 0.87400  0.97510  0.82950  Biso   1.000  H
  H78      1.0000 0.87400  0.99800  0.60750  Biso   1.000  H
  Na14     1.0000 0.47119  0.59048  0.43069  Biso   1.000  Na
  O66      1.0000 0.58950  0.69024  0.27610  Biso   1.000  O
  O67      1.0000 0.55896  0.73556  0.02070  Biso   1.000  O
  O68      1.0000 0.55380  0.60947  0.58310  Biso   1.000  O
  C27      1.0000 0.56547  0.59101  0.41970  Biso   1.000  C
  C28      1.0000 0.61311  0.58762  0.37230  Biso   1.000  C
  H79      1.0000 0.62700  0.61570  0.39620  Biso   1.000  H
  H80      1.0000 0.61700  0.57920  0.22750  Biso   1.000  H
  H81      1.0000 0.62630  0.56580  0.46230  Biso   1.000  H
  O69      1.0000 0.53942  0.57519  0.29010  Biso   1.000  O
  O70      1.0000 0.45246  0.51569  0.40150  Biso   1.000  O
  H82      1.0000 0.37400  0.52690  0.31300  Biso   1.000  H
  H83      1.0000 0.37400  0.47510  0.32950  Biso   1.000  H
  H84      1.0000 0.37400  0.49800  0.10750  Biso   1.000  H
  Na15     1.0000 0.52881  0.90952  0.43069  Biso   1.000  Na
  O71      1.0000 0.41050  0.80976  0.27610  Biso   1.000  O
  O72      1.0000 0.44104  0.76444  0.02070  Biso   1.000  O
  O73      1.0000 0.44620  0.89053  0.58310  Biso   1.000  O
  C29      1.0000 0.43453  0.90899  0.41970  Biso   1.000  C
  C30      1.0000 0.38689  0.91238  0.37230  Biso   1.000  C
  H85      1.0000 0.37300  0.88430  0.39620  Biso   1.000  H
  H86      1.0000 0.38300  0.92080  0.22750  Biso   1.000  H
  H87      1.0000 0.37370  0.93420  0.46230  Biso   1.000  H
  O74      1.0000 0.46058  0.92481  0.29010  Biso   1.000  O
  O75      1.0000 0.54754  0.98431  0.40150  Biso   1.000  O
  H88      1.0000 0.62600  0.97310  0.31300  Biso   1.000  H
  H89      1.0000 0.62600  0.02490  0.32950  Biso   1.000  H
  H90      1.0000 0.62600  0.00200  0.10750  Biso   1.000  H
  Na16     1.0000 0.02881  0.40952  0.93069  Biso   1.000  Na
  O76      1.0000 0.91050  0.30976  0.77610  Biso   1.000  O
  O77      1.0000 0.94104  0.26444  0.52070  Biso   1.000  O
  O78      1.0000 0.94620  0.39053  0.08310  Biso   1.000  O
  C31      1.0000 0.93453  0.40899  0.91970  Biso   1.000  C
  C32      1.0000 0.88689  0.41238  0.87230  Biso   1.000  C
  H91      1.0000 0.87300  0.38430  0.89620  Biso   1.000  H
  H92      1.0000 0.88300  0.42080  0.72750  Biso   1.000  H
  H93      1.0000 0.87370  0.43420  0.96230  Biso   1.000  H
  O79      1.0000 0.96058  0.42481  0.79010  Biso   1.000  O
  O80      1.0000 0.04754  0.48431  0.90150  Biso   1.000  O
  H94      1.0000 0.12600  0.47310  0.81300  Biso   1.000  H
  H95      1.0000 0.12600  0.52490  0.82950  Biso   1.000  H
  H96      1.0000 0.12600  0.50200  0.60750  Biso   1.000  H
  Na17     1.0000 0.65952  0.27881  0.18069  Biso   1.000  Na
  O81      1.0000 0.55976  0.16050  0.02610  Biso   1.000  O
  O82      1.0000 0.51444  0.19104  0.77070  Biso   1.000  O
  O83      1.0000 0.64053  0.19620  0.33310  Biso   1.000  O
  C33      1.0000 0.65899  0.18453  0.16970  Biso   1.000  C
  C34      1.0000 0.66238  0.13689  0.12230  Biso   1.000  C
  H97      1.0000 0.63430  0.12300  0.14620  Biso   1.000  H
  H98      1.0000 0.67080  0.13300  0.97750  Biso   1.000  H
  H99      1.0000 0.68420  0.12370  0.21230  Biso   1.000  H
  O84      1.0000 0.67481  0.21058  0.04010  Biso   1.000  O
  O85      1.0000 0.73431  0.29754  0.15150  Biso   1.000  O
  H100     1.0000 0.72310  0.37600  0.06300  Biso   1.000  H
  H101     1.0000 0.77490  0.37600  0.07950  Biso   1.000  H
  H102     1.0000 0.75200  0.37600  0.85750  Biso   1.000  H
  Na18     1.0000 0.15952  0.77881  0.68069  Biso   1.000  Na
  O86      1.0000 0.05976  0.66050  0.52610  Biso   1.000  O
  O87      1.0000 0.01444  0.69104  0.27070  Biso   1.000  O
  O88      1.0000 0.14053  0.69620  0.83310  Biso   1.000  O
  C35      1.0000 0.15899  0.68453  0.66970  Biso   1.000  C
  C36      1.0000 0.16238  0.63689  0.62230  Biso   1.000  C
  H103     1.0000 0.13430  0.62300  0.64620  Biso   1.000  H
  H104     1.0000 0.17080  0.63300  0.47750  Biso   1.000  H
  H105     1.0000 0.18420  0.62370  0.71230  Biso   1.000  H
  O89      1.0000 0.17481  0.71058  0.54010  Biso   1.000  O
  O90      1.0000 0.23431  0.79754  0.65150  Biso   1.000  O
  H106     1.0000 0.22310  0.87600  0.56300  Biso   1.000  H
  H107     1.0000 0.27490  0.87600  0.57950  Biso   1.000  H
  H108     1.0000 0.25200  0.87600  0.35750  Biso   1.000  H
  Na19     1.0000 0.84048  0.72119  0.68069  Biso   1.000  Na
  O91      1.0000 0.94024  0.83950  0.52610  Biso   1.000  O
  O92      1.0000 0.98556  0.80896  0.27070  Biso   1.000  O
  O93      1.0000 0.85947  0.80380  0.83310  Biso   1.000  O
  C37      1.0000 0.84101  0.81547  0.66970  Biso   1.000  C
  C38      1.0000 0.83762  0.86311  0.62230  Biso   1.000  C
  H109     1.0000 0.86570  0.87700  0.64620  Biso   1.000  H
  H110     1.0000 0.82920  0.86700  0.47750  Biso   1.000  H
  H111     1.0000 0.81580  0.87630  0.71230  Biso   1.000  H
  O94      1.0000 0.82519  0.78942  0.54010  Biso   1.000  O
  O95      1.0000 0.76569  0.70246  0.65150  Biso   1.000  O
  H112     1.0000 0.77690  0.62400  0.56300  Biso   1.000  H
  H113     1.0000 0.72510  0.62400  0.57950  Biso   1.000  H
  H114     1.0000 0.74800  0.62400  0.35750  Biso   1.000  H
  Na20     1.0000 0.34048  0.22119  0.18069  Biso   1.000  Na
  O96      1.0000 0.44024  0.33950  0.02610  Biso   1.000  O
  O97      1.0000 0.48556  0.30896  0.77070  Biso   1.000  O
  O98      1.0000 0.35947  0.30380  0.33310  Biso   1.000  O
  C39      1.0000 0.34101  0.31547  0.16970  Biso   1.000  C
  C40      1.0000 0.33762  0.36311  0.12230  Biso   1.000  C
  H115     1.0000 0.36570  0.37700  0.14620  Biso   1.000  H
  H116     1.0000 0.32920  0.36700  0.97750  Biso   1.000  H
  H117     1.0000 0.31580  0.37630  0.21230  Biso   1.000  H
  O99      1.0000 0.32519  0.28942  0.04010  Biso   1.000  O
  O100     1.0000 0.26569  0.20246  0.15150  Biso   1.000  O
  H118     1.0000 0.27690  0.12400  0.06300  Biso   1.000  H
  H119     1.0000 0.22510  0.12400  0.07950  Biso   1.000  H
  H120     1.0000 0.24800  0.12400  0.85750  Biso   1.000  H
  Na21     1.0000 0.47119  0.90952  0.93069  Biso   1.000  Na
  O101     1.0000 0.58950  0.80976  0.77610  Biso   1.000  O
  O102     1.0000 0.55896  0.76444  0.52070  Biso   1.000  O
  O103     1.0000 0.55380  0.89053  0.08310  Biso   1.000  O
  C41      1.0000 0.56547  0.90899  0.91970  Biso   1.000  C
  C42      1.0000 0.61311  0.91238  0.87230  Biso   1.000  C
  H121     1.0000 0.62700  0.88430  0.89620  Biso   1.000  H
  H122     1.0000 0.61700  0.92080  0.72750  Biso   1.000  H
  H123     1.0000 0.62630  0.93420  0.96230  Biso   1.000  H
  O104     1.0000 0.53942  0.92481  0.79010  Biso   1.000  O
  O105     1.0000 0.45246  0.98431  0.90150  Biso   1.000  O
  H124     1.0000 0.37400  0.97310  0.81300  Biso   1.000  H
  H125     1.0000 0.37400  0.02490  0.82950  Biso   1.000  H
  H126     1.0000 0.37400  0.00200  0.60750  Biso   1.000  H
  Na22     1.0000 0.97119  0.40952  0.43069  Biso   1.000  Na
  O106     1.0000 0.08950  0.30976  0.27610  Biso   1.000  O
  O107     1.0000 0.05896  0.26444  0.02070  Biso   1.000  O
  O108     1.0000 0.05380  0.39053  0.58310  Biso   1.000  O
  C43      1.0000 0.06547  0.40899  0.41970  Biso   1.000  C
  C44      1.0000 0.11311  0.41238  0.37230  Biso   1.000  C
  H127     1.0000 0.12700  0.38430  0.39620  Biso   1.000  H
  H128     1.0000 0.11700  0.42080  0.22750  Biso   1.000  H
  H129     1.0000 0.12630  0.43420  0.46230  Biso   1.000  H
  O109     1.0000 0.03942  0.42481  0.29010  Biso   1.000  O
  O110     1.0000 0.95246  0.48431  0.40150  Biso   1.000  O
  H130     1.0000 0.87400  0.47310  0.31300  Biso   1.000  H
  H131     1.0000 0.87400  0.52490  0.32950  Biso   1.000  H
  H132     1.0000 0.87400  0.50200  0.10750  Biso   1.000  H
  Na23     1.0000 0.02881  0.09048  0.43069  Biso   1.000  Na
  O111     1.0000 0.91050  0.19024  0.27610  Biso   1.000  O
  O112     1.0000 0.94104  0.23556  0.02070  Biso   1.000  O
  O113     1.0000 0.94620  0.10947  0.58310  Biso   1.000  O
  C45      1.0000 0.93453  0.09101  0.41970  Biso   1.000  C
  C46      1.0000 0.88689  0.08762  0.37230  Biso   1.000  C
  H133     1.0000 0.87300  0.11570  0.39620  Biso   1.000  H
  H134     1.0000 0.88300  0.07920  0.22750  Biso   1.000  H
  H135     1.0000 0.87370  0.06580  0.46230  Biso   1.000  H
  O114     1.0000 0.96058  0.07519  0.29010  Biso   1.000  O
  O115     1.0000 0.04754  0.01569  0.40150  Biso   1.000  O
  H136     1.0000 0.12600  0.02690  0.31300  Biso   1.000  H
  H137     1.0000 0.12600  0.97510  0.32950  Biso   1.000  H
  H138     1.0000 0.12600  0.99800  0.10750  Biso   1.000  H
  Na24     1.0000 0.52881  0.59048  0.93069  Biso   1.000  Na
  O116     1.0000 0.41050  0.69024  0.77610  Biso   1.000  O
  O117     1.0000 0.44104  0.73556  0.52070  Biso   1.000  O
  O118     1.0000 0.44620  0.60947  0.08310  Biso   1.000  O
  C47      1.0000 0.43453  0.59101  0.91970  Biso   1.000  C
  C48      1.0000 0.38689  0.58762  0.87230  Biso   1.000  C
  H139     1.0000 0.37300  0.61570  0.89620  Biso   1.000  H
  H140     1.0000 0.38300  0.57920  0.72750  Biso   1.000  H
  H141     1.0000 0.37370  0.56580  0.96230  Biso   1.000  H
  O119     1.0000 0.46058  0.57519  0.79010  Biso   1.000  O
  O120     1.0000 0.54754  0.51569  0.90150  Biso   1.000  O
  H142     1.0000 0.62600  0.52690  0.81300  Biso   1.000  H
  H143     1.0000 0.62600  0.47510  0.82950  Biso   1.000  H
  H144     1.0000 0.62600  0.49800  0.60750  Biso   1.000  H
  Na25     1.0000 0.84048  0.27881  0.81931  Biso   1.000  Na
  O121     1.0000 0.94024  0.16050  0.97390  Biso   1.000  O
  O122     1.0000 0.98556  0.19104  0.22930  Biso   1.000  O
  O123     1.0000 0.85947  0.19620  0.66690  Biso   1.000  O
  C49      1.0000 0.84101  0.18453  0.83030  Biso   1.000  C
  C50      1.0000 0.83762  0.13689  0.87770  Biso   1.000  C
  H145     1.0000 0.86570  0.12300  0.85380  Biso   1.000  H
  H146     1.0000 0.82920  0.13300  0.02250  Biso   1.000  H
  H147     1.0000 0.81580  0.12370  0.78770  Biso   1.000  H
  O124     1.0000 0.82519  0.21058  0.95990  Biso   1.000  O
  O125     1.0000 0.76569  0.29754  0.84850  Biso   1.000  O
  H148     1.0000 0.77690  0.37600  0.93700  Biso   1.000  H
  H149     1.0000 0.72510  0.37600  0.92050  Biso   1.000  H
  H150     1.0000 0.74800  0.37600  0.14250  Biso   1.000  H
  Na26     1.0000 0.34048  0.77881  0.31931  Biso   1.000  Na
  O126     1.0000 0.44024  0.66050  0.47390  Biso   1.000  O
  O127     1.0000 0.48556  0.69104  0.72930  Biso   1.000  O
  O128     1.0000 0.35947  0.69620  0.16690  Biso   1.000  O
  C51      1.0000 0.34101  0.68453  0.33030  Biso   1.000  C
  C52      1.0000 0.33762  0.63689  0.37770  Biso   1.000  C
  H151     1.0000 0.36570  0.62300  0.35380  Biso   1.000  H
  H152     1.0000 0.32920  0.63300  0.52250  Biso   1.000  H
  H153     1.0000 0.31580  0.62370  0.28770  Biso   1.000  H
  O129     1.0000 0.32519  0.71058  0.45990  Biso   1.000  O
  O130     1.0000 0.26569  0.79754  0.34850  Biso   1.000  O
  H154     1.0000 0.27690  0.87600  0.43700  Biso   1.000  H
  H155     1.0000 0.22510  0.87600  0.42050  Biso   1.000  H
  H156     1.0000 0.24800  0.87600  0.64250  Biso   1.000  H
  Na27     1.0000 0.65952  0.72119  0.31931  Biso   1.000  Na
  O131     1.0000 0.55976  0.83950  0.47390  Biso   1.000  O
  O132     1.0000 0.51444  0.80896  0.72930  Biso   1.000  O
  O133     1.0000 0.64053  0.80380  0.16690  Biso   1.000  O
  C53      1.0000 0.65899  0.81547  0.33030  Biso   1.000  C
  C54      1.0000 0.66238  0.86311  0.37770  Biso   1.000  C
  H157     1.0000 0.63430  0.87700  0.35380  Biso   1.000  H
  H158     1.0000 0.67080  0.86700  0.52250  Biso   1.000  H
  H159     1.0000 0.68420  0.87630  0.28770  Biso   1.000  H
  O134     1.0000 0.67481  0.78942  0.45990  Biso   1.000  O
  O135     1.0000 0.73431  0.70246  0.34850  Biso   1.000  O
  H160     1.0000 0.72310  0.62400  0.43700  Biso   1.000  H
  H161     1.0000 0.77490  0.62400  0.42050  Biso   1.000  H
  H162     1.0000 0.75200  0.62400  0.64250  Biso   1.000  H
  Na28     1.0000 0.15952  0.22119  0.81931  Biso   1.000  Na
  O136     1.0000 0.05976  0.33950  0.97390  Biso   1.000  O
  O137     1.0000 0.01444  0.30896  0.22930  Biso   1.000  O
  O138     1.0000 0.14053  0.30380  0.66690  Biso   1.000  O
  C55      1.0000 0.15899  0.31547  0.83030  Biso   1.000  C
  C56      1.0000 0.16238  0.36311  0.87770  Biso   1.000  C
  H163     1.0000 0.13430  0.37700  0.85380  Biso   1.000  H
  H164     1.0000 0.17080  0.36700  0.02250  Biso   1.000  H
  H165     1.0000 0.18420  0.37630  0.78770  Biso   1.000  H
  O139     1.0000 0.17481  0.28942  0.95990  Biso   1.000  O
  O140     1.0000 0.23431  0.20246  0.84850  Biso   1.000  O
  H166     1.0000 0.22310  0.12400  0.93700  Biso   1.000  H
  H167     1.0000 0.27490  0.12400  0.92050  Biso   1.000  H
  H168     1.0000 0.25200  0.12400  0.14250  Biso   1.000  H
  Na29     1.0000 0.02881  0.90952  0.06931  Biso   1.000  Na
  O141     1.0000 0.91050  0.80976  0.22390  Biso   1.000  O
  O142     1.0000 0.94104  0.76444  0.47930  Biso   1.000  O
  O143     1.0000 0.94620  0.89053  0.91690  Biso   1.000  O
  C57      1.0000 0.93453  0.90899  0.08030  Biso   1.000  C
  C58      1.0000 0.88689  0.91238  0.12770  Biso   1.000  C
  H169     1.0000 0.87300  0.88430  0.10380  Biso   1.000  H
  H170     1.0000 0.88300  0.92080  0.27250  Biso   1.000  H
  H171     1.0000 0.87370  0.93420  0.03770  Biso   1.000  H
  O144     1.0000 0.96058  0.92481  0.20990  Biso   1.000  O
  O145     1.0000 0.04754  0.98431  0.09850  Biso   1.000  O
  H172     1.0000 0.12600  0.97310  0.18700  Biso   1.000  H
  H173     1.0000 0.12600  0.02490  0.17050  Biso   1.000  H
  H174     1.0000 0.12600  0.00200  0.39250  Biso   1.000  H
  Na30     1.0000 0.52881  0.40952  0.56931  Biso   1.000  Na
  O146     1.0000 0.41050  0.30976  0.72390  Biso   1.000  O
  O147     1.0000 0.44104  0.26444  0.97930  Biso   1.000  O
  O148     1.0000 0.44620  0.39053  0.41690  Biso   1.000  O
  C59      1.0000 0.43453  0.40899  0.58030  Biso   1.000  C
  C60      1.0000 0.38689  0.41238  0.62770  Biso   1.000  C
  H175     1.0000 0.37300  0.38430  0.60380  Biso   1.000  H
  H176     1.0000 0.38300  0.42080  0.77250  Biso   1.000  H
  H177     1.0000 0.37370  0.43420  0.53770  Biso   1.000  H
  O149     1.0000 0.46058  0.42481  0.70990  Biso   1.000  O
  O150     1.0000 0.54754  0.48431  0.59850  Biso   1.000  O
  H178     1.0000 0.62600  0.47310  0.68700  Biso   1.000  H
  H179     1.0000 0.62600  0.52490  0.67050  Biso   1.000  H
  H180     1.0000 0.62600  0.50200  0.89250  Biso   1.000  H
  Na31     1.0000 0.47119  0.09048  0.56931  Biso   1.000  Na
  O151     1.0000 0.58950  0.19024  0.72390  Biso   1.000  O
  O152     1.0000 0.55896  0.23556  0.97930  Biso   1.000  O
  O153     1.0000 0.55380  0.10947  0.41690  Biso   1.000  O
  C61      1.0000 0.56547  0.09101  0.58030  Biso   1.000  C
  C62      1.0000 0.61311  0.08762  0.62770  Biso   1.000  C
  H181     1.0000 0.62700  0.11570  0.60380  Biso   1.000  H
  H182     1.0000 0.61700  0.07920  0.77250  Biso   1.000  H
  H183     1.0000 0.62630  0.06580  0.53770  Biso   1.000  H
  O154     1.0000 0.53942  0.07519  0.70990  Biso   1.000  O
  O155     1.0000 0.45246  0.01569  0.59850  Biso   1.000  O
  H184     1.0000 0.37400  0.02690  0.68700  Biso   1.000  H
  H185     1.0000 0.37400  0.97510  0.67050  Biso   1.000  H
  H186     1.0000 0.37400  0.99800  0.89250  Biso   1.000  H
  Na32     1.0000 0.97119  0.59048  0.06931  Biso   1.000  Na
  O156     1.0000 0.08950  0.69024  0.22390  Biso   1.000  O
  O157     1.0000 0.05896  0.73556  0.47930  Biso   1.000  O
  O158     1.0000 0.05380  0.60947  0.91690  Biso   1.000  O
  C63      1.0000 0.06547  0.59101  0.08030  Biso   1.000  C
  C64      1.0000 0.11311  0.58762  0.12770  Biso   1.000  C
  H187     1.0000 0.12700  0.61570  0.10380  Biso   1.000  H
  H188     1.0000 0.11700  0.57920  0.27250  Biso   1.000  H
  H189     1.0000 0.12630  0.56580  0.03770  Biso   1.000  H
  O159     1.0000 0.03942  0.57519  0.20990  Biso   1.000  O
  O160     1.0000 0.95246  0.51569  0.09850  Biso   1.000  O
  H190     1.0000 0.87400  0.52690  0.18700  Biso   1.000  H
  H191     1.0000 0.87400  0.47510  0.17050  Biso   1.000  H
  H192     1.0000 0.87400  0.49800  0.39250  Biso   1.000  H
  Na33     1.0000 0.25000  0.77806  0.00000  Biso   1.000  Na
  C65      1.0000 0.25000  0.68309  0.00000  Biso   1.000  C
  C66      1.0000 0.25000  0.63461  0.00000  Biso   1.000  C
  Na34     1.0000 0.75000  0.27806  0.50000  Biso   1.000  Na
  C67      1.0000 0.75000  0.18309  0.50000  Biso   1.000  C
  C68      1.0000 0.75000  0.13461  0.50000  Biso   1.000  C
  Na35     1.0000 0.25000  0.22194  0.50000  Biso   1.000  Na
  C69      1.0000 0.25000  0.31691  0.50000  Biso   1.000  C
  C70      1.0000 0.25000  0.36539  0.50000  Biso   1.000  C
  Na36     1.0000 0.75000  0.72194  0.00000  Biso   1.000  Na
  C71      1.0000 0.75000  0.81691  0.00000  Biso   1.000  C
  C72      1.0000 0.75000  0.86539  0.00000  Biso   1.000  C
  Na37     1.0000 0.47194  0.00000  0.25000  Biso   1.000  Na
  C73      1.0000 0.56691  0.00000  0.25000  Biso   1.000  C
  C74      1.0000 0.61539  0.00000  0.25000  Biso   1.000  C
  Na38     1.0000 0.97194  0.50000  0.75000  Biso   1.000  Na
  C75      1.0000 0.06691  0.50000  0.75000  Biso   1.000  C
  C76      1.0000 0.11539  0.50000  0.75000  Biso   1.000  C
  Na39     1.0000 0.02806  0.00000  0.75000  Biso   1.000  Na
  C77      1.0000 0.93309  0.00000  0.75000  Biso   1.000  C
  C78      1.0000 0.88461  0.00000  0.75000  Biso   1.000  C
  Na40     1.0000 0.52806  0.50000  0.25000  Biso   1.000  Na
  C79      1.0000 0.43309  0.50000  0.25000  Biso   1.000  C
  C80      1.0000 0.38461  0.50000  0.25000  Biso   1.000  C
  Na41     1.0000 0.75000  0.22194  0.00000  Biso   1.000  Na
  C81      1.0000 0.75000  0.31691  0.00000  Biso   1.000  C
  C82      1.0000 0.75000  0.36539  0.00000  Biso   1.000  C
  Na42     1.0000 0.25000  0.72194  0.50000  Biso   1.000  Na
  C83      1.0000 0.25000  0.81691  0.50000  Biso   1.000  C
  C84      1.0000 0.25000  0.86539  0.50000  Biso   1.000  C
  Na43     1.0000 0.75000  0.77806  0.50000  Biso   1.000  Na
  C85      1.0000 0.75000  0.68309  0.50000  Biso   1.000  C
  C86      1.0000 0.75000  0.63461  0.50000  Biso   1.000  C
  Na44     1.0000 0.25000  0.27806  0.00000  Biso   1.000  Na
  C87      1.0000 0.25000  0.18309  0.00000  Biso   1.000  C
  C88      1.0000 0.25000  0.13461  0.00000  Biso   1.000  C
  Na45     1.0000 0.52806  0.00000  0.75000  Biso   1.000  Na
  C89      1.0000 0.43309  0.00000  0.75000  Biso   1.000  C
  C90      1.0000 0.38461  0.00000  0.75000  Biso   1.000  C
  Na46     1.0000 0.02806  0.50000  0.25000  Biso   1.000  Na
  C91      1.0000 0.93309  0.50000  0.25000  Biso   1.000  C
  C92      1.0000 0.88461  0.50000  0.25000  Biso   1.000  C
  Na47     1.0000 0.97194  0.00000  0.25000  Biso   1.000  Na
  C93      1.0000 0.06691  0.00000  0.25000  Biso   1.000  C
  C94      1.0000 0.11539  0.00000  0.25000  Biso   1.000  C
  Na48     1.0000 0.47194  0.50000  0.75000  Biso   1.000  Na
  C95      1.0000 0.56691  0.50000  0.75000  Biso   1.000  C
  C96      1.0000 0.61539  0.50000  0.75000  Biso   1.000  C
  Na49     1.0000 0.43656  0.81344  0.62500  Biso   1.000  Na
  Na50     1.0000 0.93656  0.31344  0.12500  Biso   1.000  Na
  Na51     1.0000 0.06344  0.18656  0.12500  Biso   1.000  Na
  Na52     1.0000 0.56344  0.68656  0.62500  Biso   1.000  Na
  Na53     1.0000 0.43656  0.18656  0.87500  Biso   1.000  Na
  Na54     1.0000 0.93656  0.68656  0.37500  Biso   1.000  Na
  Na55     1.0000 0.06344  0.81344  0.37500  Biso   1.000  Na
  Na56     1.0000 0.56344  0.31344  0.87500  Biso   1.000  Na
  Na57     1.0000 0.56344  0.18656  0.37500  Biso   1.000  Na
  Na58     1.0000 0.06344  0.68656  0.87500  Biso   1.000  Na
  Na59     1.0000 0.93656  0.81344  0.87500  Biso   1.000  Na
  Na60     1.0000 0.43656  0.31344  0.37500  Biso   1.000  Na
  Na61     1.0000 0.56344  0.81344  0.12500  Biso   1.000  Na
  Na62     1.0000 0.06344  0.31344  0.62500  Biso   1.000  Na
  Na63     1.0000 0.93656  0.18656  0.62500  Biso   1.000  Na
  Na64     1.0000 0.43656  0.68656  0.12500  Biso   1.000  Na
  Cl1      1.0000 0.44473  0.80527  0.12500  Biso   1.000  Cl
  Cl2      1.0000 0.94473  0.30527  0.62500  Biso   1.000  Cl
  Cl3      1.0000 0.05527  0.19473  0.62500  Biso   1.000  Cl
  Cl4      1.0000 0.55527  0.69473  0.12500  Biso   1.000  Cl
  Cl5      1.0000 0.44473  0.19473  0.37500  Biso   1.000  Cl
  Cl6      1.0000 0.94473  0.69473  0.87500  Biso   1.000  Cl
  Cl7      1.0000 0.05527  0.80527  0.87500  Biso   1.000  Cl
  Cl8      1.0000 0.55527  0.30527  0.37500  Biso   1.000  Cl
  Cl9      1.0000 0.55527  0.19473  0.87500  Biso   1.000  Cl
  Cl10     1.0000 0.05527  0.69473  0.37500  Biso   1.000  Cl
  Cl11     1.0000 0.94473  0.80527  0.37500  Biso   1.000  Cl
  Cl12     1.0000 0.44473  0.30527  0.87500  Biso   1.000  Cl
  Cl13     1.0000 0.55527  0.80527  0.62500  Biso   1.000  Cl
  Cl14     1.0000 0.05527  0.30527  0.12500  Biso   1.000  Cl
  Cl15     1.0000 0.94473  0.19473  0.12500  Biso   1.000  Cl
  Cl16     1.0000 0.44473  0.69473  0.62500  Biso   1.000  Cl
