data_image0
_cell_length_a       12.547
_cell_length_b       12.502
_cell_length_c       8.201
_cell_angle_alpha    75.93
_cell_angle_beta     82.21
_cell_angle_gamma    76.05

_symmetry_space_group_name_H-M    "P 1"
_symmetry_int_tables_number       1

loop_
  _symmetry_equiv_pos_as_xyz
  'x, y, z'

loop_
  _atom_site_label
  _atom_site_occupancy
  _atom_site_fract_x
  _atom_site_fract_y
  _atom_site_fract_z
  _atom_site_thermal_displace_type
  _atom_site_B_iso_or_equiv
  _atom_site_type_symbol
  Cu1      1.0000 0.37121  0.49041  0.16700  Biso   1.000  Cu
  Cu2      1.0000 0.21895  0.33830  0.27180  Biso   1.000  Cu
  Cu3      1.0000 0.39090  0.19992  0.15100  Biso   1.000  Cu
  Cu4      1.0000 0.51130  0.66440  0.99770  Biso   1.000  Cu
  Cu5      1.0000 0.53030  0.67090  0.10120  Biso   1.000  Cu
  Cu6      1.0000 0.44037  0.15385  0.50840  Biso   1.000  Cu
  Cu7      1.0000 0.50579  0.91292  0.16330  Biso   1.000  Cu
  Cu8      1.0000 0.31959  0.26841  0.76280  Biso   1.000  Cu
  Cu9      1.0000 0.41683  0.41641  0.58220  Biso   1.000  Cu
  Cu10     1.0000 0.11020  0.43120  0.57240  Biso   1.000  Cu
  Cl1      1.0000 0.54540  0.08300  0.28970  Biso   1.000  Cl
  Cl2      1.0000 0.34740  0.68470  0.07180  Biso   1.000  Cl
  Cl3      1.0000 0.35280  0.05080  0.04560  Biso   1.000  Cl
  Cl4      1.0000 0.53350  0.44640  0.29850  Biso   1.000  Cl
  Cl5      1.0000 0.14210  0.29850  0.81860  Biso   1.000  Cl
  Cl6      1.0000 0.26460  0.16610  0.45010  Biso   1.000  Cl
  Cl7      1.0000 0.03530  0.39860  0.34810  Biso   1.000  Cl
  Cl8      1.0000 0.25390  0.52050  0.47040  Biso   1.000  Cl
  O1       1.0000 0.11270  0.61010  0.04310  Biso   1.000  O
  O2       1.0000 0.74590  0.19510  0.62480  Biso   1.000  O
  C1       1.0000 0.33700  0.36290  0.06690  Biso   1.000  C
  C2       1.0000 0.25810  0.44730  0.05090  Biso   1.000  C
  C3       1.0000 0.17360  0.53530  0.95600  Biso   1.000  C
  C4       1.0000 0.46970  0.24900  0.67300  Biso   1.000  C
  C5       1.0000 0.55650  0.18760  0.62370  Biso   1.000  C
  C6       1.0000 0.67620  0.16820  0.54990  Biso   1.000  C
  H1       1.0000 0.21400  0.58100  0.85200  Biso   1.000  H
  H2       1.0000 0.12400  0.50100  0.90800  Biso   1.000  H
  H3       1.0000 0.69900  0.08700  0.54200  Biso   1.000  H
  H4       1.0000 0.67400  0.21500  0.42700  Biso   1.000  H
  H5       1.0000 0.68700  0.23000  0.70500  Biso   1.000  H
  H6       1.0000 0.09800  0.61000  0.19200  Biso   1.000  H
  Cu11     1.0000 0.62879  0.50959  0.83300  Biso   1.000  Cu
  Cu12     1.0000 0.78105  0.66170  0.72820  Biso   1.000  Cu
  Cu13     1.0000 0.60910  0.80008  0.84900  Biso   1.000  Cu
  Cu14     1.0000 0.48870  0.33560  0.00230  Biso   1.000  Cu
  Cu15     1.0000 0.46970  0.32910  0.89880  Biso   1.000  Cu
  Cu16     1.0000 0.55963  0.84615  0.49160  Biso   1.000  Cu
  Cu17     1.0000 0.49421  0.08708  0.83670  Biso   1.000  Cu
  Cu18     1.0000 0.68041  0.73159  0.23720  Biso   1.000  Cu
  Cu19     1.0000 0.58317  0.58359  0.41780  Biso   1.000  Cu
  Cu20     1.0000 0.88980  0.56880  0.42760  Biso   1.000  Cu
  Cl9      1.0000 0.45460  0.91700  0.71030  Biso   1.000  Cl
  Cl10     1.0000 0.65260  0.31530  0.92820  Biso   1.000  Cl
  Cl11     1.0000 0.64720  0.94920  0.95440  Biso   1.000  Cl
  Cl12     1.0000 0.46650  0.55360  0.70150  Biso   1.000  Cl
  Cl13     1.0000 0.85790  0.70150  0.18140  Biso   1.000  Cl
  Cl14     1.0000 0.73540  0.83390  0.54990  Biso   1.000  Cl
  Cl15     1.0000 0.96470  0.60140  0.65190  Biso   1.000  Cl
  Cl16     1.0000 0.74610  0.47950  0.52960  Biso   1.000  Cl
  O3       1.0000 0.88730  0.38990  0.95690  Biso   1.000  O
  O4       1.0000 0.25410  0.80490  0.37520  Biso   1.000  O
  C7       1.0000 0.66300  0.63710  0.93310  Biso   1.000  C
  C8       1.0000 0.74190  0.55270  0.94910  Biso   1.000  C
  C9       1.0000 0.82640  0.46470  0.04400  Biso   1.000  C
  C10      1.0000 0.53030  0.75100  0.32700  Biso   1.000  C
  C11      1.0000 0.44350  0.81240  0.37630  Biso   1.000  C
  C12      1.0000 0.32380  0.83180  0.45010  Biso   1.000  C
  H7       1.0000 0.78600  0.41900  0.14800  Biso   1.000  H
  H8       1.0000 0.87600  0.49900  0.09200  Biso   1.000  H
  H9       1.0000 0.30100  0.91300  0.45800  Biso   1.000  H
  H10      1.0000 0.32600  0.78500  0.57300  Biso   1.000  H
  H11      1.0000 0.31300  0.77000  0.29500  Biso   1.000  H
  H12      1.0000 0.90200  0.39000  0.80800  Biso   1.000  H
