data_image0
_cell_length_a       18.5503
_cell_length_b       18.5503
_cell_length_c       38.8068
_cell_angle_alpha    90
_cell_angle_beta     90
_cell_angle_gamma    120

_symmetry_space_group_name_H-M    "P 1"
_symmetry_int_tables_number       1

loop_
  _symmetry_equiv_pos_as_xyz
  'x, y, z'

loop_
  _atom_site_label
  _atom_site_occupancy
  _atom_site_fract_x
  _atom_site_fract_y
  _atom_site_fract_z
  _atom_site_thermal_displace_type
  _atom_site_B_iso_or_equiv
  _atom_site_type_symbol
  C1       1.0000 0.45220  0.09190  0.02763  Biso   1.000  C
  C2       1.0000 0.43000  0.15050  0.04467  Biso   1.000  C
  C3       1.0000 0.40000  0.13470  0.07805  Biso   1.000  C
  H1       1.0000 0.39040  0.08630  0.08920  Biso   1.000  H
  O1       1.0000 0.48133  0.11018  0.99732  Biso   1.000  O
  O2       1.0000 0.44081  0.02942  0.04454  Biso   1.000  O
  C4       1.0000 0.28180  0.10400  0.14234  Biso   1.000  C
  C5       1.0000 0.26590  0.09610  0.17691  Biso   1.000  C
  H2       1.0000 0.21450  0.05640  0.18770  Biso   1.000  H
  C6       1.0000 0.21530  0.03460  0.11670  Biso   1.000  C
  F1       1.0000 0.20500  0.06730  0.08738  Biso   1.000  F
  F2       1.0000 0.23920  0.97890  0.11017  Biso   1.000  F
  F3       1.0000 0.13920  0.98960  0.13060  Biso   1.000  F
  H3       1.0000 0.24660  0.06260  0.12540  Biso   1.000  H
  C7       1.0000 0.11887  0.42523  0.36096  Biso   1.000  C
  C8       1.0000 0.09667  0.48383  0.37800  Biso   1.000  C
  C9       1.0000 0.06667  0.46803  0.41138  Biso   1.000  C
  H4       1.0000 0.05707  0.41963  0.42253  Biso   1.000  H
  O3       1.0000 0.14800  0.44351  0.33065  Biso   1.000  O
  O4       1.0000 0.10748  0.36275  0.37787  Biso   1.000  O
  C10      1.0000 0.94847  0.43733  0.47567  Biso   1.000  C
  C11      1.0000 0.93257  0.42943  0.51024  Biso   1.000  C
  H5       1.0000 0.88117  0.38973  0.52103  Biso   1.000  H
  C12      1.0000 0.88197  0.36793  0.45003  Biso   1.000  C
  F4       1.0000 0.87167  0.40063  0.42071  Biso   1.000  F
  F5       1.0000 0.90587  0.31223  0.44350  Biso   1.000  F
  F6       1.0000 0.80587  0.32293  0.46393  Biso   1.000  F
  H6       1.0000 0.91327  0.39593  0.45873  Biso   1.000  H
  C13      1.0000 0.78553  0.75857  0.69430  Biso   1.000  C
  C14      1.0000 0.76333  0.81717  0.71134  Biso   1.000  C
  C15      1.0000 0.73333  0.80137  0.74472  Biso   1.000  C
  H7       1.0000 0.72373  0.75297  0.75587  Biso   1.000  H
  O5       1.0000 0.81466  0.77685  0.66399  Biso   1.000  O
  O6       1.0000 0.77414  0.69609  0.71121  Biso   1.000  O
  C16      1.0000 0.61513  0.77067  0.80901  Biso   1.000  C
  C17      1.0000 0.59923  0.76277  0.84358  Biso   1.000  C
  H8       1.0000 0.54783  0.72307  0.85437  Biso   1.000  H
  C18      1.0000 0.54863  0.70127  0.78337  Biso   1.000  C
  F7       1.0000 0.53833  0.73397  0.75405  Biso   1.000  F
  F8       1.0000 0.57253  0.64557  0.77684  Biso   1.000  F
  F9       1.0000 0.47253  0.65627  0.79727  Biso   1.000  F
  H9       1.0000 0.57993  0.72927  0.79207  Biso   1.000  H
  C19      1.0000 0.90810  0.36030  0.02763  Biso   1.000  C
  C20      1.0000 0.84950  0.27950  0.04467  Biso   1.000  C
  C21      1.0000 0.86530  0.26530  0.07805  Biso   1.000  C
  H10      1.0000 0.91370  0.30410  0.08920  Biso   1.000  H
  O7       1.0000 0.88982  0.37115  0.99732  Biso   1.000  O
  O8       1.0000 0.97058  0.41139  0.04454  Biso   1.000  O
  C22      1.0000 0.89600  0.17780  0.14234  Biso   1.000  C
  C23      1.0000 0.90390  0.16980  0.17691  Biso   1.000  C
  H11      1.0000 0.94360  0.15810  0.18770  Biso   1.000  H
  C24      1.0000 0.96540  0.18070  0.11670  Biso   1.000  C
  F10      1.0000 0.93270  0.13770  0.08738  Biso   1.000  F
  F11      1.0000 0.02110  0.26030  0.11017  Biso   1.000  F
  F12      1.0000 0.01040  0.14960  0.13060  Biso   1.000  F
  H12      1.0000 0.93740  0.18400  0.12540  Biso   1.000  H
  C25      1.0000 0.57477  0.69363  0.36096  Biso   1.000  C
  C26      1.0000 0.51617  0.61283  0.37800  Biso   1.000  C
  C27      1.0000 0.53197  0.59863  0.41138  Biso   1.000  C
  H13      1.0000 0.58037  0.63743  0.42253  Biso   1.000  H
  O9       1.0000 0.55649  0.70448  0.33065  Biso   1.000  O
  O10      1.0000 0.63725  0.74472  0.37787  Biso   1.000  O
  C28      1.0000 0.56267  0.51113  0.47567  Biso   1.000  C
  C29      1.0000 0.57057  0.50313  0.51024  Biso   1.000  C
  H14      1.0000 0.61027  0.49143  0.52103  Biso   1.000  H
  C30      1.0000 0.63207  0.51403  0.45003  Biso   1.000  C
  F13      1.0000 0.59937  0.47103  0.42071  Biso   1.000  F
  F14      1.0000 0.68777  0.59363  0.44350  Biso   1.000  F
  F15      1.0000 0.67707  0.48293  0.46393  Biso   1.000  F
  H15      1.0000 0.60407  0.51733  0.45873  Biso   1.000  H
  C31      1.0000 0.24143  0.02697  0.69430  Biso   1.000  C
  C32      1.0000 0.18283  0.94617  0.71134  Biso   1.000  C
  C33      1.0000 0.19863  0.93197  0.74472  Biso   1.000  C
  H16      1.0000 0.24703  0.97077  0.75587  Biso   1.000  H
  O11      1.0000 0.22315  0.03782  0.66399  Biso   1.000  O
  O12      1.0000 0.30391  0.07806  0.71121  Biso   1.000  O
  C34      1.0000 0.22933  0.84447  0.80901  Biso   1.000  C
  C35      1.0000 0.23723  0.83647  0.84358  Biso   1.000  C
  H17      1.0000 0.27693  0.82477  0.85437  Biso   1.000  H
  C36      1.0000 0.29873  0.84737  0.78337  Biso   1.000  C
  F16      1.0000 0.26603  0.80437  0.75405  Biso   1.000  F
  F17      1.0000 0.35443  0.92697  0.77684  Biso   1.000  F
  F18      1.0000 0.34373  0.81627  0.79727  Biso   1.000  F
  H18      1.0000 0.27073  0.85067  0.79207  Biso   1.000  H
  C37      1.0000 0.63970  0.54780  0.02763  Biso   1.000  C
  C38      1.0000 0.72050  0.57000  0.04467  Biso   1.000  C
  C39      1.0000 0.73470  0.60000  0.07805  Biso   1.000  C
  H19      1.0000 0.69590  0.60960  0.08920  Biso   1.000  H
  O13      1.0000 0.62885  0.51867  0.99732  Biso   1.000  O
  O14      1.0000 0.58861  0.55919  0.04454  Biso   1.000  O
  C40      1.0000 0.82220  0.71820  0.14234  Biso   1.000  C
  C41      1.0000 0.83020  0.73410  0.17691  Biso   1.000  C
  H20      1.0000 0.84190  0.78550  0.18770  Biso   1.000  H
  C42      1.0000 0.81930  0.78470  0.11670  Biso   1.000  C
  F19      1.0000 0.86230  0.79500  0.08738  Biso   1.000  F
  F20      1.0000 0.73970  0.76080  0.11017  Biso   1.000  F
  F21      1.0000 0.85040  0.86080  0.13060  Biso   1.000  F
  H21      1.0000 0.81600  0.75340  0.12540  Biso   1.000  H
  C43      1.0000 0.30637  0.88113  0.36096  Biso   1.000  C
  C44      1.0000 0.38717  0.90333  0.37800  Biso   1.000  C
  C45      1.0000 0.40137  0.93333  0.41138  Biso   1.000  C
  H22      1.0000 0.36257  0.94293  0.42253  Biso   1.000  H
  O15      1.0000 0.29552  0.85200  0.33065  Biso   1.000  O
  O16      1.0000 0.25528  0.89252  0.37787  Biso   1.000  O
  C46      1.0000 0.48887  0.05153  0.47567  Biso   1.000  C
  C47      1.0000 0.49687  0.06743  0.51024  Biso   1.000  C
  H23      1.0000 0.50857  0.11883  0.52103  Biso   1.000  H
  C48      1.0000 0.48597  0.11803  0.45003  Biso   1.000  C
  F22      1.0000 0.52897  0.12833  0.42071  Biso   1.000  F
  F23      1.0000 0.40637  0.09413  0.44350  Biso   1.000  F
  F24      1.0000 0.51707  0.19413  0.46393  Biso   1.000  F
  H24      1.0000 0.48267  0.08673  0.45873  Biso   1.000  H
  C49      1.0000 0.97303  0.21447  0.69430  Biso   1.000  C
  C50      1.0000 0.05383  0.23667  0.71134  Biso   1.000  C
  C51      1.0000 0.06803  0.26667  0.74472  Biso   1.000  C
  H25      1.0000 0.02923  0.27627  0.75587  Biso   1.000  H
  O17      1.0000 0.96218  0.18534  0.66399  Biso   1.000  O
  O18      1.0000 0.92194  0.22586  0.71121  Biso   1.000  O
  C52      1.0000 0.15553  0.38487  0.80901  Biso   1.000  C
  C53      1.0000 0.16353  0.40077  0.84358  Biso   1.000  C
  H26      1.0000 0.17523  0.45217  0.85437  Biso   1.000  H
  C54      1.0000 0.15263  0.45137  0.78337  Biso   1.000  C
  F25      1.0000 0.19563  0.46167  0.75405  Biso   1.000  F
  F26      1.0000 0.07303  0.42747  0.77684  Biso   1.000  F
  F27      1.0000 0.18373  0.52747  0.79727  Biso   1.000  F
  H27      1.0000 0.14933  0.42007  0.79207  Biso   1.000  H
  C55      1.0000 0.09190  0.45220  0.97237  Biso   1.000  C
  C56      1.0000 0.15050  0.43000  0.95533  Biso   1.000  C
  C57      1.0000 0.13470  0.40000  0.92195  Biso   1.000  C
  H28      1.0000 0.08630  0.39040  0.91080  Biso   1.000  H
  O19      1.0000 0.11018  0.48133  0.00268  Biso   1.000  O
  O20      1.0000 0.02942  0.44081  0.95546  Biso   1.000  O
  C58      1.0000 0.10400  0.28180  0.85766  Biso   1.000  C
  C59      1.0000 0.09610  0.26590  0.82309  Biso   1.000  C
  H29      1.0000 0.05640  0.21450  0.81230  Biso   1.000  H
  C60      1.0000 0.03460  0.21530  0.88330  Biso   1.000  C
  F28      1.0000 0.06730  0.20500  0.91262  Biso   1.000  F
  F29      1.0000 0.97890  0.23920  0.88983  Biso   1.000  F
  F30      1.0000 0.98960  0.13920  0.86940  Biso   1.000  F
  H30      1.0000 0.06260  0.24660  0.87460  Biso   1.000  H
  C61      1.0000 0.75857  0.78553  0.30570  Biso   1.000  C
  C62      1.0000 0.81717  0.76333  0.28866  Biso   1.000  C
  C63      1.0000 0.80137  0.73333  0.25528  Biso   1.000  C
  H31      1.0000 0.75297  0.72373  0.24413  Biso   1.000  H
  O21      1.0000 0.77685  0.81466  0.33601  Biso   1.000  O
  O22      1.0000 0.69609  0.77414  0.28879  Biso   1.000  O
  C64      1.0000 0.77067  0.61513  0.19099  Biso   1.000  C
  C65      1.0000 0.76277  0.59923  0.15642  Biso   1.000  C
  H32      1.0000 0.72307  0.54783  0.14563  Biso   1.000  H
  C66      1.0000 0.70127  0.54863  0.21663  Biso   1.000  C
  F31      1.0000 0.73397  0.53833  0.24595  Biso   1.000  F
  F32      1.0000 0.64557  0.57253  0.22316  Biso   1.000  F
  F33      1.0000 0.65627  0.47253  0.20273  Biso   1.000  F
  H33      1.0000 0.72927  0.57993  0.20793  Biso   1.000  H
  C67      1.0000 0.42523  0.11887  0.63904  Biso   1.000  C
  C68      1.0000 0.48383  0.09667  0.62200  Biso   1.000  C
  C69      1.0000 0.46803  0.06667  0.58862  Biso   1.000  C
  H34      1.0000 0.41963  0.05707  0.57747  Biso   1.000  H
  O23      1.0000 0.44351  0.14800  0.66935  Biso   1.000  O
  O24      1.0000 0.36275  0.10748  0.62213  Biso   1.000  O
  C70      1.0000 0.43733  0.94847  0.52433  Biso   1.000  C
  C71      1.0000 0.42943  0.93257  0.48976  Biso   1.000  C
  H35      1.0000 0.38973  0.88117  0.47897  Biso   1.000  H
  C72      1.0000 0.36793  0.88197  0.54997  Biso   1.000  C
  F34      1.0000 0.40063  0.87167  0.57929  Biso   1.000  F
  F35      1.0000 0.31223  0.90587  0.55650  Biso   1.000  F
  F36      1.0000 0.32293  0.80587  0.53607  Biso   1.000  F
  H36      1.0000 0.39593  0.91327  0.54127  Biso   1.000  H
  C73      1.0000 0.36030  0.90810  0.97237  Biso   1.000  C
  C74      1.0000 0.27950  0.84950  0.95533  Biso   1.000  C
  C75      1.0000 0.26530  0.86530  0.92195  Biso   1.000  C
  H37      1.0000 0.30410  0.91370  0.91080  Biso   1.000  H
  O25      1.0000 0.37115  0.88982  0.00268  Biso   1.000  O
  O26      1.0000 0.41139  0.97058  0.95546  Biso   1.000  O
  C76      1.0000 0.17780  0.89600  0.85766  Biso   1.000  C
  C77      1.0000 0.16980  0.90390  0.82309  Biso   1.000  C
  H38      1.0000 0.15810  0.94360  0.81230  Biso   1.000  H
  C78      1.0000 0.18070  0.96540  0.88330  Biso   1.000  C
  F37      1.0000 0.13770  0.93270  0.91262  Biso   1.000  F
  F38      1.0000 0.26030  0.02110  0.88983  Biso   1.000  F
  F39      1.0000 0.14960  0.01040  0.86940  Biso   1.000  F
  H39      1.0000 0.18400  0.93740  0.87460  Biso   1.000  H
  C79      1.0000 0.02697  0.24143  0.30570  Biso   1.000  C
  C80      1.0000 0.94617  0.18283  0.28866  Biso   1.000  C
  C81      1.0000 0.93197  0.19863  0.25528  Biso   1.000  C
  H40      1.0000 0.97077  0.24703  0.24413  Biso   1.000  H
  O27      1.0000 0.03782  0.22315  0.33601  Biso   1.000  O
  O28      1.0000 0.07806  0.30391  0.28879  Biso   1.000  O
  C82      1.0000 0.84447  0.22933  0.19099  Biso   1.000  C
  C83      1.0000 0.83647  0.23723  0.15642  Biso   1.000  C
  H41      1.0000 0.82477  0.27693  0.14563  Biso   1.000  H
  C84      1.0000 0.84737  0.29873  0.21663  Biso   1.000  C
  F40      1.0000 0.80437  0.26603  0.24595  Biso   1.000  F
  F41      1.0000 0.92697  0.35443  0.22316  Biso   1.000  F
  F42      1.0000 0.81627  0.34373  0.20273  Biso   1.000  F
  H42      1.0000 0.85067  0.27073  0.20793  Biso   1.000  H
  C85      1.0000 0.69363  0.57477  0.63904  Biso   1.000  C
  C86      1.0000 0.61283  0.51617  0.62200  Biso   1.000  C
  C87      1.0000 0.59863  0.53197  0.58862  Biso   1.000  C
  H43      1.0000 0.63743  0.58037  0.57747  Biso   1.000  H
  O29      1.0000 0.70448  0.55649  0.66935  Biso   1.000  O
  O30      1.0000 0.74472  0.63725  0.62213  Biso   1.000  O
  C88      1.0000 0.51113  0.56267  0.52433  Biso   1.000  C
  C89      1.0000 0.50313  0.57057  0.48976  Biso   1.000  C
  H44      1.0000 0.49143  0.61027  0.47897  Biso   1.000  H
  C90      1.0000 0.51403  0.63207  0.54997  Biso   1.000  C
  F43      1.0000 0.47103  0.59937  0.57929  Biso   1.000  F
  F44      1.0000 0.59363  0.68777  0.55650  Biso   1.000  F
  F45      1.0000 0.48293  0.67707  0.53607  Biso   1.000  F
  H45      1.0000 0.51733  0.60407  0.54127  Biso   1.000  H
  C91      1.0000 0.54780  0.63970  0.97237  Biso   1.000  C
  C92      1.0000 0.57000  0.72050  0.95533  Biso   1.000  C
  C93      1.0000 0.60000  0.73470  0.92195  Biso   1.000  C
  H46      1.0000 0.60960  0.69590  0.91080  Biso   1.000  H
  O31      1.0000 0.51867  0.62885  0.00268  Biso   1.000  O
  O32      1.0000 0.55919  0.58861  0.95546  Biso   1.000  O
  C94      1.0000 0.71820  0.82220  0.85766  Biso   1.000  C
  C95      1.0000 0.73410  0.83020  0.82309  Biso   1.000  C
  H47      1.0000 0.78550  0.84190  0.81230  Biso   1.000  H
  C96      1.0000 0.78470  0.81930  0.88330  Biso   1.000  C
  F46      1.0000 0.79500  0.86230  0.91262  Biso   1.000  F
  F47      1.0000 0.76080  0.73970  0.88983  Biso   1.000  F
  F48      1.0000 0.86080  0.85040  0.86940  Biso   1.000  F
  H48      1.0000 0.75340  0.81600  0.87460  Biso   1.000  H
  C97      1.0000 0.21447  0.97303  0.30570  Biso   1.000  C
  C98      1.0000 0.23667  0.05383  0.28866  Biso   1.000  C
  C99      1.0000 0.26667  0.06803  0.25528  Biso   1.000  C
  H49      1.0000 0.27627  0.02923  0.24413  Biso   1.000  H
  O33      1.0000 0.18534  0.96218  0.33601  Biso   1.000  O
  O34      1.0000 0.22586  0.92194  0.28879  Biso   1.000  O
  C100     1.0000 0.38487  0.15553  0.19099  Biso   1.000  C
  C101     1.0000 0.40077  0.16353  0.15642  Biso   1.000  C
  H50      1.0000 0.45217  0.17523  0.14563  Biso   1.000  H
  C102     1.0000 0.45137  0.15263  0.21663  Biso   1.000  C
  F49      1.0000 0.46167  0.19563  0.24595  Biso   1.000  F
  F50      1.0000 0.42747  0.07303  0.22316  Biso   1.000  F
  F51      1.0000 0.52747  0.18373  0.20273  Biso   1.000  F
  H51      1.0000 0.42007  0.14933  0.20793  Biso   1.000  H
  C103     1.0000 0.88113  0.30637  0.63904  Biso   1.000  C
  C104     1.0000 0.90333  0.38717  0.62200  Biso   1.000  C
  C105     1.0000 0.93333  0.40137  0.58862  Biso   1.000  C
  H52      1.0000 0.94293  0.36257  0.57747  Biso   1.000  H
  O35      1.0000 0.85200  0.29552  0.66935  Biso   1.000  O
  O36      1.0000 0.89252  0.25528  0.62213  Biso   1.000  O
  C106     1.0000 0.05153  0.48887  0.52433  Biso   1.000  C
  C107     1.0000 0.06743  0.49687  0.48976  Biso   1.000  C
  H53      1.0000 0.11883  0.50857  0.47897  Biso   1.000  H
  C108     1.0000 0.11803  0.48597  0.54997  Biso   1.000  C
  F52      1.0000 0.12833  0.52897  0.57929  Biso   1.000  F
  F53      1.0000 0.09413  0.40637  0.55650  Biso   1.000  F
  F54      1.0000 0.19413  0.51707  0.53607  Biso   1.000  F
  H54      1.0000 0.08673  0.48267  0.54127  Biso   1.000  H
  C109     1.0000 0.54780  0.90810  0.97237  Biso   1.000  C
  C110     1.0000 0.57000  0.84950  0.95533  Biso   1.000  C
  C111     1.0000 0.60000  0.86530  0.92195  Biso   1.000  C
  H55      1.0000 0.60960  0.91370  0.91080  Biso   1.000  H
  O37      1.0000 0.51867  0.88982  0.00268  Biso   1.000  O
  O38      1.0000 0.55919  0.97058  0.95546  Biso   1.000  O
  C112     1.0000 0.71820  0.89600  0.85766  Biso   1.000  C
  C113     1.0000 0.73410  0.90390  0.82309  Biso   1.000  C
  H56      1.0000 0.78550  0.94360  0.81230  Biso   1.000  H
  C114     1.0000 0.78470  0.96540  0.88330  Biso   1.000  C
  F55      1.0000 0.79500  0.93270  0.91262  Biso   1.000  F
  F56      1.0000 0.76080  0.02110  0.88983  Biso   1.000  F
  F57      1.0000 0.86080  0.01040  0.86940  Biso   1.000  F
  H57      1.0000 0.75340  0.93740  0.87460  Biso   1.000  H
  C115     1.0000 0.21447  0.24143  0.30570  Biso   1.000  C
  C116     1.0000 0.23667  0.18283  0.28866  Biso   1.000  C
  C117     1.0000 0.26667  0.19863  0.25528  Biso   1.000  C
  H58      1.0000 0.27627  0.24703  0.24413  Biso   1.000  H
  O39      1.0000 0.18534  0.22315  0.33601  Biso   1.000  O
  O40      1.0000 0.22586  0.30391  0.28879  Biso   1.000  O
  C118     1.0000 0.38487  0.22933  0.19099  Biso   1.000  C
  C119     1.0000 0.40077  0.23723  0.15642  Biso   1.000  C
  H59      1.0000 0.45217  0.27693  0.14563  Biso   1.000  H
  C120     1.0000 0.45137  0.29873  0.21663  Biso   1.000  C
  F58      1.0000 0.46167  0.26603  0.24595  Biso   1.000  F
  F59      1.0000 0.42747  0.35443  0.22316  Biso   1.000  F
  F60      1.0000 0.52747  0.34373  0.20273  Biso   1.000  F
  H60      1.0000 0.42007  0.27073  0.20793  Biso   1.000  H
  C121     1.0000 0.88113  0.57477  0.63904  Biso   1.000  C
  C122     1.0000 0.90333  0.51617  0.62200  Biso   1.000  C
  C123     1.0000 0.93333  0.53197  0.58862  Biso   1.000  C
  H61      1.0000 0.94293  0.58037  0.57747  Biso   1.000  H
  O41      1.0000 0.85200  0.55649  0.66935  Biso   1.000  O
  O42      1.0000 0.89252  0.63725  0.62213  Biso   1.000  O
  C124     1.0000 0.05153  0.56267  0.52433  Biso   1.000  C
  C125     1.0000 0.06743  0.57057  0.48976  Biso   1.000  C
  H62      1.0000 0.11883  0.61027  0.47897  Biso   1.000  H
  C126     1.0000 0.11803  0.63207  0.54997  Biso   1.000  C
  F61      1.0000 0.12833  0.59937  0.57929  Biso   1.000  F
  F62      1.0000 0.09413  0.68777  0.55650  Biso   1.000  F
  F63      1.0000 0.19413  0.67707  0.53607  Biso   1.000  F
  H63      1.0000 0.08673  0.60407  0.54127  Biso   1.000  H
  C127     1.0000 0.09190  0.63970  0.97237  Biso   1.000  C
  C128     1.0000 0.15050  0.72050  0.95533  Biso   1.000  C
  C129     1.0000 0.13470  0.73470  0.92195  Biso   1.000  C
  H64      1.0000 0.08630  0.69590  0.91080  Biso   1.000  H
  O43      1.0000 0.11018  0.62885  0.00268  Biso   1.000  O
  O44      1.0000 0.02942  0.58861  0.95546  Biso   1.000  O
  C130     1.0000 0.10400  0.82220  0.85766  Biso   1.000  C
  C131     1.0000 0.09610  0.83020  0.82309  Biso   1.000  C
  H65      1.0000 0.05640  0.84190  0.81230  Biso   1.000  H
  C132     1.0000 0.03460  0.81930  0.88330  Biso   1.000  C
  F64      1.0000 0.06730  0.86230  0.91262  Biso   1.000  F
  F65      1.0000 0.97890  0.73970  0.88983  Biso   1.000  F
  F66      1.0000 0.98960  0.85040  0.86940  Biso   1.000  F
  H66      1.0000 0.06260  0.81600  0.87460  Biso   1.000  H
  C133     1.0000 0.75857  0.97303  0.30570  Biso   1.000  C
  C134     1.0000 0.81717  0.05383  0.28866  Biso   1.000  C
  C135     1.0000 0.80137  0.06803  0.25528  Biso   1.000  C
  H67      1.0000 0.75297  0.02923  0.24413  Biso   1.000  H
  O45      1.0000 0.77685  0.96218  0.33601  Biso   1.000  O
  O46      1.0000 0.69609  0.92194  0.28879  Biso   1.000  O
  C136     1.0000 0.77067  0.15553  0.19099  Biso   1.000  C
  C137     1.0000 0.76277  0.16353  0.15642  Biso   1.000  C
  H68      1.0000 0.72307  0.17523  0.14563  Biso   1.000  H
  C138     1.0000 0.70127  0.15263  0.21663  Biso   1.000  C
  F67      1.0000 0.73397  0.19563  0.24595  Biso   1.000  F
  F68      1.0000 0.64557  0.07303  0.22316  Biso   1.000  F
  F69      1.0000 0.65627  0.18373  0.20273  Biso   1.000  F
  H69      1.0000 0.72927  0.14933  0.20793  Biso   1.000  H
  C139     1.0000 0.42523  0.30637  0.63904  Biso   1.000  C
  C140     1.0000 0.48383  0.38717  0.62200  Biso   1.000  C
  C141     1.0000 0.46803  0.40137  0.58862  Biso   1.000  C
  H70      1.0000 0.41963  0.36257  0.57747  Biso   1.000  H
  O47      1.0000 0.44351  0.29552  0.66935  Biso   1.000  O
  O48      1.0000 0.36275  0.25528  0.62213  Biso   1.000  O
  C142     1.0000 0.43733  0.48887  0.52433  Biso   1.000  C
  C143     1.0000 0.42943  0.49687  0.48976  Biso   1.000  C
  H71      1.0000 0.38973  0.50857  0.47897  Biso   1.000  H
  C144     1.0000 0.36793  0.48597  0.54997  Biso   1.000  C
  F70      1.0000 0.40063  0.52897  0.57929  Biso   1.000  F
  F71      1.0000 0.31223  0.40637  0.55650  Biso   1.000  F
  F72      1.0000 0.32293  0.51707  0.53607  Biso   1.000  F
  H72      1.0000 0.39593  0.48267  0.54127  Biso   1.000  H
  C145     1.0000 0.36030  0.45220  0.97237  Biso   1.000  C
  C146     1.0000 0.27950  0.43000  0.95533  Biso   1.000  C
  C147     1.0000 0.26530  0.40000  0.92195  Biso   1.000  C
  H73      1.0000 0.30410  0.39040  0.91080  Biso   1.000  H
  O49      1.0000 0.37115  0.48133  0.00268  Biso   1.000  O
  O50      1.0000 0.41139  0.44081  0.95546  Biso   1.000  O
  C148     1.0000 0.17780  0.28180  0.85766  Biso   1.000  C
  C149     1.0000 0.16980  0.26590  0.82309  Biso   1.000  C
  H74      1.0000 0.15810  0.21450  0.81230  Biso   1.000  H
  C150     1.0000 0.18070  0.21530  0.88330  Biso   1.000  C
  F73      1.0000 0.13770  0.20500  0.91262  Biso   1.000  F
  F74      1.0000 0.26030  0.23920  0.88983  Biso   1.000  F
  F75      1.0000 0.14960  0.13920  0.86940  Biso   1.000  F
  H75      1.0000 0.18400  0.24660  0.87460  Biso   1.000  H
  C151     1.0000 0.02697  0.78553  0.30570  Biso   1.000  C
  C152     1.0000 0.94617  0.76333  0.28866  Biso   1.000  C
  C153     1.0000 0.93197  0.73333  0.25528  Biso   1.000  C
  H76      1.0000 0.97077  0.72373  0.24413  Biso   1.000  H
  O51      1.0000 0.03782  0.81466  0.33601  Biso   1.000  O
  O52      1.0000 0.07806  0.77414  0.28879  Biso   1.000  O
  C154     1.0000 0.84447  0.61513  0.19099  Biso   1.000  C
  C155     1.0000 0.83647  0.59923  0.15642  Biso   1.000  C
  H77      1.0000 0.82477  0.54783  0.14563  Biso   1.000  H
  C156     1.0000 0.84737  0.54863  0.21663  Biso   1.000  C
  F76      1.0000 0.80437  0.53833  0.24595  Biso   1.000  F
  F77      1.0000 0.92697  0.57253  0.22316  Biso   1.000  F
  F78      1.0000 0.81627  0.47253  0.20273  Biso   1.000  F
  H78      1.0000 0.85067  0.57993  0.20793  Biso   1.000  H
  C157     1.0000 0.69363  0.11887  0.63904  Biso   1.000  C
  C158     1.0000 0.61283  0.09667  0.62200  Biso   1.000  C
  C159     1.0000 0.59863  0.06667  0.58862  Biso   1.000  C
  H79      1.0000 0.63743  0.05707  0.57747  Biso   1.000  H
  O53      1.0000 0.70448  0.14800  0.66935  Biso   1.000  O
  O54      1.0000 0.74472  0.10748  0.62213  Biso   1.000  O
  C160     1.0000 0.51113  0.94847  0.52433  Biso   1.000  C
  C161     1.0000 0.50313  0.93257  0.48976  Biso   1.000  C
  H80      1.0000 0.49143  0.88117  0.47897  Biso   1.000  H
  C162     1.0000 0.51403  0.88197  0.54997  Biso   1.000  C
  F79      1.0000 0.47103  0.87167  0.57929  Biso   1.000  F
  F80      1.0000 0.59363  0.90587  0.55650  Biso   1.000  F
  F81      1.0000 0.48293  0.80587  0.53607  Biso   1.000  F
  H81      1.0000 0.51733  0.91327  0.54127  Biso   1.000  H
  C163     1.0000 0.90810  0.54780  0.02763  Biso   1.000  C
  C164     1.0000 0.84950  0.57000  0.04467  Biso   1.000  C
  C165     1.0000 0.86530  0.60000  0.07805  Biso   1.000  C
  H82      1.0000 0.91370  0.60960  0.08920  Biso   1.000  H
  O55      1.0000 0.88982  0.51867  0.99732  Biso   1.000  O
  O56      1.0000 0.97058  0.55919  0.04454  Biso   1.000  O
  C166     1.0000 0.89600  0.71820  0.14234  Biso   1.000  C
  C167     1.0000 0.90390  0.73410  0.17691  Biso   1.000  C
  H83      1.0000 0.94360  0.78550  0.18770  Biso   1.000  H
  C168     1.0000 0.96540  0.78470  0.11670  Biso   1.000  C
  F82      1.0000 0.93270  0.79500  0.08738  Biso   1.000  F
  F83      1.0000 0.02110  0.76080  0.11017  Biso   1.000  F
  F84      1.0000 0.01040  0.86080  0.13060  Biso   1.000  F
  H84      1.0000 0.93740  0.75340  0.12540  Biso   1.000  H
  C169     1.0000 0.57477  0.88113  0.36096  Biso   1.000  C
  C170     1.0000 0.51617  0.90333  0.37800  Biso   1.000  C
  C171     1.0000 0.53197  0.93333  0.41138  Biso   1.000  C
  H85      1.0000 0.58037  0.94293  0.42253  Biso   1.000  H
  O57      1.0000 0.55649  0.85200  0.33065  Biso   1.000  O
  O58      1.0000 0.63725  0.89252  0.37787  Biso   1.000  O
  C172     1.0000 0.56267  0.05153  0.47567  Biso   1.000  C
  C173     1.0000 0.57057  0.06743  0.51024  Biso   1.000  C
  H86      1.0000 0.61027  0.11883  0.52103  Biso   1.000  H
  C174     1.0000 0.63207  0.11803  0.45003  Biso   1.000  C
  F85      1.0000 0.59937  0.12833  0.42071  Biso   1.000  F
  F86      1.0000 0.68777  0.09413  0.44350  Biso   1.000  F
  F87      1.0000 0.67707  0.19413  0.46393  Biso   1.000  F
  H87      1.0000 0.60407  0.08673  0.45873  Biso   1.000  H
  C175     1.0000 0.24143  0.21447  0.69430  Biso   1.000  C
  C176     1.0000 0.18283  0.23667  0.71134  Biso   1.000  C
  C177     1.0000 0.19863  0.26667  0.74472  Biso   1.000  C
  H88      1.0000 0.24703  0.27627  0.75587  Biso   1.000  H
  O59      1.0000 0.22315  0.18534  0.66399  Biso   1.000  O
  O60      1.0000 0.30391  0.22586  0.71121  Biso   1.000  O
  C178     1.0000 0.22933  0.38487  0.80901  Biso   1.000  C
  C179     1.0000 0.23723  0.40077  0.84358  Biso   1.000  C
  H89      1.0000 0.27693  0.45217  0.85437  Biso   1.000  H
  C180     1.0000 0.29873  0.45137  0.78337  Biso   1.000  C
  F88      1.0000 0.26603  0.46167  0.75405  Biso   1.000  F
  F89      1.0000 0.35443  0.42747  0.77684  Biso   1.000  F
  F90      1.0000 0.34373  0.52747  0.79727  Biso   1.000  F
  H90      1.0000 0.27073  0.42007  0.79207  Biso   1.000  H
  C181     1.0000 0.63970  0.09190  0.02763  Biso   1.000  C
  C182     1.0000 0.72050  0.15050  0.04467  Biso   1.000  C
  C183     1.0000 0.73470  0.13470  0.07805  Biso   1.000  C
  H91      1.0000 0.69590  0.08630  0.08920  Biso   1.000  H
  O61      1.0000 0.62885  0.11018  0.99732  Biso   1.000  O
  O62      1.0000 0.58861  0.02942  0.04454  Biso   1.000  O
  C184     1.0000 0.82220  0.10400  0.14234  Biso   1.000  C
  C185     1.0000 0.83020  0.09610  0.17691  Biso   1.000  C
  H92      1.0000 0.84190  0.05640  0.18770  Biso   1.000  H
  C186     1.0000 0.81930  0.03460  0.11670  Biso   1.000  C
  F91      1.0000 0.86230  0.06730  0.08738  Biso   1.000  F
  F92      1.0000 0.73970  0.97890  0.11017  Biso   1.000  F
  F93      1.0000 0.85040  0.98960  0.13060  Biso   1.000  F
  H93      1.0000 0.81600  0.06260  0.12540  Biso   1.000  H
  C187     1.0000 0.30637  0.42523  0.36096  Biso   1.000  C
  C188     1.0000 0.38717  0.48383  0.37800  Biso   1.000  C
  C189     1.0000 0.40137  0.46803  0.41138  Biso   1.000  C
  H94      1.0000 0.36257  0.41963  0.42253  Biso   1.000  H
  O63      1.0000 0.29552  0.44351  0.33065  Biso   1.000  O
  O64      1.0000 0.25528  0.36275  0.37787  Biso   1.000  O
  C190     1.0000 0.48887  0.43733  0.47567  Biso   1.000  C
  C191     1.0000 0.49687  0.42943  0.51024  Biso   1.000  C
  H95      1.0000 0.50857  0.38973  0.52103  Biso   1.000  H
  C192     1.0000 0.48597  0.36793  0.45003  Biso   1.000  C
  F94      1.0000 0.52897  0.40063  0.42071  Biso   1.000  F
  F95      1.0000 0.40637  0.31223  0.44350  Biso   1.000  F
  F96      1.0000 0.51707  0.32293  0.46393  Biso   1.000  F
  H96      1.0000 0.48267  0.39593  0.45873  Biso   1.000  H
  C193     1.0000 0.97303  0.75857  0.69430  Biso   1.000  C
  C194     1.0000 0.05383  0.81717  0.71134  Biso   1.000  C
  C195     1.0000 0.06803  0.80137  0.74472  Biso   1.000  C
  H97      1.0000 0.02923  0.75297  0.75587  Biso   1.000  H
  O65      1.0000 0.96218  0.77685  0.66399  Biso   1.000  O
  O66      1.0000 0.92194  0.69609  0.71121  Biso   1.000  O
  C196     1.0000 0.15553  0.77067  0.80901  Biso   1.000  C
  C197     1.0000 0.16353  0.76277  0.84358  Biso   1.000  C
  H98      1.0000 0.17523  0.72307  0.85437  Biso   1.000  H
  C198     1.0000 0.15263  0.70127  0.78337  Biso   1.000  C
  F97      1.0000 0.19563  0.73397  0.75405  Biso   1.000  F
  F98      1.0000 0.07303  0.64557  0.77684  Biso   1.000  F
  F99      1.0000 0.18373  0.65627  0.79727  Biso   1.000  F
  H99      1.0000 0.14933  0.72927  0.79207  Biso   1.000  H
  C199     1.0000 0.45220  0.36030  0.02763  Biso   1.000  C
  C200     1.0000 0.43000  0.27950  0.04467  Biso   1.000  C
  C201     1.0000 0.40000  0.26530  0.07805  Biso   1.000  C
  H100     1.0000 0.39040  0.30410  0.08920  Biso   1.000  H
  O67      1.0000 0.48133  0.37115  0.99732  Biso   1.000  O
  O68      1.0000 0.44081  0.41139  0.04454  Biso   1.000  O
  C202     1.0000 0.28180  0.17780  0.14234  Biso   1.000  C
  C203     1.0000 0.26590  0.16980  0.17691  Biso   1.000  C
  H101     1.0000 0.21450  0.15810  0.18770  Biso   1.000  H
  C204     1.0000 0.21530  0.18070  0.11670  Biso   1.000  C
  F100     1.0000 0.20500  0.13770  0.08738  Biso   1.000  F
  F101     1.0000 0.23920  0.26030  0.11017  Biso   1.000  F
  F102     1.0000 0.13920  0.14960  0.13060  Biso   1.000  F
  H102     1.0000 0.24660  0.18400  0.12540  Biso   1.000  H
  C205     1.0000 0.11887  0.69363  0.36096  Biso   1.000  C
  C206     1.0000 0.09667  0.61283  0.37800  Biso   1.000  C
  C207     1.0000 0.06667  0.59863  0.41138  Biso   1.000  C
  H103     1.0000 0.05707  0.63743  0.42253  Biso   1.000  H
  O69      1.0000 0.14800  0.70448  0.33065  Biso   1.000  O
  O70      1.0000 0.10748  0.74472  0.37787  Biso   1.000  O
  C208     1.0000 0.94847  0.51113  0.47567  Biso   1.000  C
  C209     1.0000 0.93257  0.50313  0.51024  Biso   1.000  C
  H104     1.0000 0.88117  0.49143  0.52103  Biso   1.000  H
  C210     1.0000 0.88197  0.51403  0.45003  Biso   1.000  C
  F103     1.0000 0.87167  0.47103  0.42071  Biso   1.000  F
  F104     1.0000 0.90587  0.59363  0.44350  Biso   1.000  F
  F105     1.0000 0.80587  0.48293  0.46393  Biso   1.000  F
  H105     1.0000 0.91327  0.51733  0.45873  Biso   1.000  H
  C211     1.0000 0.78553  0.02697  0.69430  Biso   1.000  C
  C212     1.0000 0.76333  0.94617  0.71134  Biso   1.000  C
  C213     1.0000 0.73333  0.93197  0.74472  Biso   1.000  C
  H106     1.0000 0.72373  0.97077  0.75587  Biso   1.000  H
  O71      1.0000 0.81466  0.03782  0.66399  Biso   1.000  O
  O72      1.0000 0.77414  0.07806  0.71121  Biso   1.000  O
  C214     1.0000 0.61513  0.84447  0.80901  Biso   1.000  C
  C215     1.0000 0.59923  0.83647  0.84358  Biso   1.000  C
  H107     1.0000 0.54783  0.82477  0.85437  Biso   1.000  H
  C216     1.0000 0.54863  0.84737  0.78337  Biso   1.000  C
  F106     1.0000 0.53833  0.80437  0.75405  Biso   1.000  F
  F107     1.0000 0.57253  0.92697  0.77684  Biso   1.000  F
  F108     1.0000 0.47253  0.81627  0.79727  Biso   1.000  F
  H108     1.0000 0.57993  0.85067  0.79207  Biso   1.000  H
  C217     1.0000 0.44490  0.22245  0.02802  Biso   1.000  C
  H109     1.0000 0.46500  0.23250  0.00550  Biso   1.000  H
  C218     1.0000 0.38410  0.19205  0.09499  Biso   1.000  C
  C219     1.0000 0.35610  0.17805  0.13208  Biso   1.000  C
  C220     1.0000 0.11157  0.55578  0.36135  Biso   1.000  C
  H110     1.0000 0.13167  0.56583  0.33883  Biso   1.000  H
  C221     1.0000 0.05077  0.52538  0.42832  Biso   1.000  C
  C222     1.0000 0.02277  0.51138  0.46541  Biso   1.000  C
  C223     1.0000 0.77823  0.88912  0.69469  Biso   1.000  C
  H111     1.0000 0.79833  0.89917  0.67217  Biso   1.000  H
  C224     1.0000 0.71743  0.85872  0.76166  Biso   1.000  C
  C225     1.0000 0.68943  0.84472  0.79875  Biso   1.000  C
  C226     1.0000 0.77755  0.22245  0.02802  Biso   1.000  C
  H112     1.0000 0.76750  0.23250  0.00550  Biso   1.000  H
  C227     1.0000 0.80795  0.19205  0.09499  Biso   1.000  C
  C228     1.0000 0.82195  0.17805  0.13208  Biso   1.000  C
  C229     1.0000 0.44422  0.55578  0.36135  Biso   1.000  C
  H113     1.0000 0.43417  0.56583  0.33883  Biso   1.000  H
  C230     1.0000 0.47462  0.52538  0.42832  Biso   1.000  C
  C231     1.0000 0.48862  0.51138  0.46541  Biso   1.000  C
  C232     1.0000 0.11088  0.88912  0.69469  Biso   1.000  C
  H114     1.0000 0.10083  0.89917  0.67217  Biso   1.000  H
  C233     1.0000 0.14128  0.85872  0.76166  Biso   1.000  C
  C234     1.0000 0.15528  0.84472  0.79875  Biso   1.000  C
  C235     1.0000 0.77755  0.55510  0.02802  Biso   1.000  C
  H115     1.0000 0.76750  0.53500  0.00550  Biso   1.000  H
  C236     1.0000 0.80795  0.61590  0.09499  Biso   1.000  C
  C237     1.0000 0.82195  0.64390  0.13208  Biso   1.000  C
  C238     1.0000 0.44422  0.88843  0.36135  Biso   1.000  C
  H116     1.0000 0.43417  0.86833  0.33883  Biso   1.000  H
  C239     1.0000 0.47462  0.94923  0.42832  Biso   1.000  C
  C240     1.0000 0.48862  0.97723  0.46541  Biso   1.000  C
  C241     1.0000 0.11088  0.22177  0.69469  Biso   1.000  C
  H117     1.0000 0.10083  0.20167  0.67217  Biso   1.000  H
  C242     1.0000 0.14128  0.28257  0.76166  Biso   1.000  C
  C243     1.0000 0.15528  0.31057  0.79875  Biso   1.000  C
  C244     1.0000 0.22245  0.44490  0.97198  Biso   1.000  C
  H118     1.0000 0.23250  0.46500  0.99450  Biso   1.000  H
  C245     1.0000 0.19205  0.38410  0.90501  Biso   1.000  C
  C246     1.0000 0.17805  0.35610  0.86792  Biso   1.000  C
  C247     1.0000 0.88912  0.77823  0.30531  Biso   1.000  C
  H119     1.0000 0.89917  0.79833  0.32783  Biso   1.000  H
  C248     1.0000 0.85872  0.71743  0.23834  Biso   1.000  C
  C249     1.0000 0.84472  0.68943  0.20125  Biso   1.000  C
  C250     1.0000 0.55578  0.11157  0.63865  Biso   1.000  C
  H120     1.0000 0.56583  0.13167  0.66117  Biso   1.000  H
  C251     1.0000 0.52538  0.05077  0.57168  Biso   1.000  C
  C252     1.0000 0.51138  0.02277  0.53459  Biso   1.000  C
  C253     1.0000 0.22245  0.77755  0.97198  Biso   1.000  C
  H121     1.0000 0.23250  0.76750  0.99450  Biso   1.000  H
  C254     1.0000 0.19205  0.80795  0.90501  Biso   1.000  C
  C255     1.0000 0.17805  0.82195  0.86792  Biso   1.000  C
  C256     1.0000 0.88912  0.11088  0.30531  Biso   1.000  C
  H122     1.0000 0.89917  0.10083  0.32783  Biso   1.000  H
  C257     1.0000 0.85872  0.14128  0.23834  Biso   1.000  C
  C258     1.0000 0.84472  0.15528  0.20125  Biso   1.000  C
  C259     1.0000 0.55578  0.44422  0.63865  Biso   1.000  C
  H123     1.0000 0.56583  0.43417  0.66117  Biso   1.000  H
  C260     1.0000 0.52538  0.47462  0.57168  Biso   1.000  C
  C261     1.0000 0.51138  0.48862  0.53459  Biso   1.000  C
  C262     1.0000 0.55510  0.77755  0.97198  Biso   1.000  C
  H124     1.0000 0.53500  0.76750  0.99450  Biso   1.000  H
  C263     1.0000 0.61590  0.80795  0.90501  Biso   1.000  C
  C264     1.0000 0.64390  0.82195  0.86792  Biso   1.000  C
  C265     1.0000 0.22177  0.11088  0.30531  Biso   1.000  C
  H125     1.0000 0.20167  0.10083  0.32783  Biso   1.000  H
  C266     1.0000 0.28257  0.14128  0.23834  Biso   1.000  C
  C267     1.0000 0.31057  0.15528  0.20125  Biso   1.000  C
  C268     1.0000 0.88843  0.44422  0.63865  Biso   1.000  C
  H126     1.0000 0.86833  0.43417  0.66117  Biso   1.000  H
  C269     1.0000 0.94923  0.47462  0.57168  Biso   1.000  C
  C270     1.0000 0.97723  0.48862  0.53459  Biso   1.000  C
  Cu1      1.0000 0.52406  0.04812  0.97214  Biso   1.000  Cu
  Cu2      1.0000 0.19073  0.38145  0.30547  Biso   1.000  Cu
  Cu3      1.0000 0.85739  0.71479  0.63880  Biso   1.000  Cu
  Cu4      1.0000 0.95188  0.47594  0.97214  Biso   1.000  Cu
  Cu5      1.0000 0.61855  0.80927  0.30547  Biso   1.000  Cu
  Cu6      1.0000 0.28521  0.14261  0.63880  Biso   1.000  Cu
  Cu7      1.0000 0.52406  0.47594  0.97214  Biso   1.000  Cu
  Cu8      1.0000 0.19073  0.80927  0.30547  Biso   1.000  Cu
  Cu9      1.0000 0.85739  0.14261  0.63880  Biso   1.000  Cu
  Cu10     1.0000 0.04812  0.52406  0.02786  Biso   1.000  Cu
  Cu11     1.0000 0.71479  0.85739  0.36120  Biso   1.000  Cu
  Cu12     1.0000 0.38145  0.19073  0.69453  Biso   1.000  Cu
  Cu13     1.0000 0.47594  0.95188  0.02786  Biso   1.000  Cu
  Cu14     1.0000 0.14261  0.28521  0.36120  Biso   1.000  Cu
  Cu15     1.0000 0.80927  0.61855  0.69453  Biso   1.000  Cu
  Cu16     1.0000 0.47594  0.52406  0.02786  Biso   1.000  Cu
  Cu17     1.0000 0.14261  0.85739  0.36120  Biso   1.000  Cu
  Cu18     1.0000 0.80927  0.19073  0.69453  Biso   1.000  Cu
