data_image0
_cell_length_a       18.6166
_cell_length_b       18.6166
_cell_length_c       38.6451
_cell_angle_alpha    90
_cell_angle_beta     90
_cell_angle_gamma    120

_symmetry_space_group_name_H-M    "P 1"
_symmetry_int_tables_number       1

loop_
  _symmetry_equiv_pos_as_xyz
  'x, y, z'

loop_
  _atom_site_label
  _atom_site_occupancy
  _atom_site_fract_x
  _atom_site_fract_y
  _atom_site_fract_z
  _atom_site_thermal_displace_type
  _atom_site_B_iso_or_equiv
  _atom_site_type_symbol
  C1       1.0000 0.45150  0.09190  0.02706  Biso   1.000  C
  C2       1.0000 0.43100  0.15110  0.04412  Biso   1.000  C
  C3       1.0000 0.39990  0.13640  0.07751  Biso   1.000  C
  H1       1.0000 0.38890  0.08750  0.08850  Biso   1.000  H
  O1       1.0000 0.48140  0.11035  0.99677  Biso   1.000  O
  O2       1.0000 0.44120  0.02993  0.04420  Biso   1.000  O
  C4       1.0000 0.28990  0.10170  0.14270  Biso   1.000  C
  C5       1.0000 0.27400  0.09380  0.17720  Biso   1.000  C
  H2       1.0000 0.22270  0.05420  0.18800  Biso   1.000  H
  C6       1.0000 0.22340  0.03230  0.11700  Biso   1.000  C
  H3       1.0000 0.18330  0.98590  0.13030  Biso   1.000  H
  H4       1.0000 0.25130  0.01420  0.10150  Biso   1.000  H
  H5       1.0000 0.19580  0.05540  0.10400  Biso   1.000  H
  H6       1.0000 0.25470  0.06030  0.12570  Biso   1.000  H
  C7       1.0000 0.11817  0.42523  0.36039  Biso   1.000  C
  C8       1.0000 0.09767  0.48443  0.37745  Biso   1.000  C
  C9       1.0000 0.06657  0.46973  0.41084  Biso   1.000  C
  H7       1.0000 0.05557  0.42083  0.42183  Biso   1.000  H
  O3       1.0000 0.14807  0.44368  0.33010  Biso   1.000  O
  O4       1.0000 0.10787  0.36326  0.37753  Biso   1.000  O
  C10      1.0000 0.95657  0.43503  0.47603  Biso   1.000  C
  C11      1.0000 0.94067  0.42713  0.51053  Biso   1.000  C
  H8       1.0000 0.88937  0.38753  0.52133  Biso   1.000  H
  C12      1.0000 0.89007  0.36563  0.45033  Biso   1.000  C
  H9       1.0000 0.84997  0.31923  0.46363  Biso   1.000  H
  H10      1.0000 0.91797  0.34753  0.43483  Biso   1.000  H
  H11      1.0000 0.86247  0.38873  0.43733  Biso   1.000  H
  H12      1.0000 0.92137  0.39363  0.45903  Biso   1.000  H
  C13      1.0000 0.78483  0.75857  0.69373  Biso   1.000  C
  C14      1.0000 0.76433  0.81777  0.71079  Biso   1.000  C
  C15      1.0000 0.73323  0.80307  0.74418  Biso   1.000  C
  H13      1.0000 0.72223  0.75417  0.75517  Biso   1.000  H
  O5       1.0000 0.81473  0.77702  0.66344  Biso   1.000  O
  O6       1.0000 0.77453  0.69660  0.71087  Biso   1.000  O
  C16      1.0000 0.62323  0.76837  0.80937  Biso   1.000  C
  C17      1.0000 0.60733  0.76047  0.84387  Biso   1.000  C
  H14      1.0000 0.55603  0.72087  0.85467  Biso   1.000  H
  C18      1.0000 0.55673  0.69897  0.78367  Biso   1.000  C
  H15      1.0000 0.51663  0.65257  0.79697  Biso   1.000  H
  H16      1.0000 0.58463  0.68087  0.76817  Biso   1.000  H
  H17      1.0000 0.52913  0.72207  0.77067  Biso   1.000  H
  H18      1.0000 0.58803  0.72697  0.79237  Biso   1.000  H
  C19      1.0000 0.90810  0.35960  0.02706  Biso   1.000  C
  C20      1.0000 0.84890  0.27990  0.04412  Biso   1.000  C
  C21      1.0000 0.86360  0.26350  0.07751  Biso   1.000  C
  H19      1.0000 0.91250  0.30140  0.08850  Biso   1.000  H
  O7       1.0000 0.88965  0.37105  0.99677  Biso   1.000  O
  O8       1.0000 0.97007  0.41127  0.04420  Biso   1.000  O
  C22      1.0000 0.89830  0.18820  0.14270  Biso   1.000  C
  C23      1.0000 0.90620  0.18020  0.17720  Biso   1.000  C
  H20      1.0000 0.94580  0.16850  0.18800  Biso   1.000  H
  C24      1.0000 0.96770  0.19110  0.11700  Biso   1.000  C
  H21      1.0000 0.01410  0.19740  0.13030  Biso   1.000  H
  H22      1.0000 0.98580  0.23710  0.10150  Biso   1.000  H
  H23      1.0000 0.94460  0.14040  0.10400  Biso   1.000  H
  H24      1.0000 0.93970  0.19440  0.12570  Biso   1.000  H
  C25      1.0000 0.57477  0.69293  0.36039  Biso   1.000  C
  C26      1.0000 0.51557  0.61323  0.37745  Biso   1.000  C
  C27      1.0000 0.53027  0.59683  0.41084  Biso   1.000  C
  H25      1.0000 0.57917  0.63473  0.42183  Biso   1.000  H
  O9       1.0000 0.55632  0.70438  0.33010  Biso   1.000  O
  O10      1.0000 0.63674  0.74460  0.37753  Biso   1.000  O
  C28      1.0000 0.56497  0.52153  0.47603  Biso   1.000  C
  C29      1.0000 0.57287  0.51353  0.51053  Biso   1.000  C
  H26      1.0000 0.61247  0.50183  0.52133  Biso   1.000  H
  C30      1.0000 0.63437  0.52443  0.45033  Biso   1.000  C
  H27      1.0000 0.68077  0.53073  0.46363  Biso   1.000  H
  H28      1.0000 0.65247  0.57043  0.43483  Biso   1.000  H
  H29      1.0000 0.61127  0.47373  0.43733  Biso   1.000  H
  H30      1.0000 0.60637  0.52773  0.45903  Biso   1.000  H
  C31      1.0000 0.24143  0.02627  0.69373  Biso   1.000  C
  C32      1.0000 0.18223  0.94657  0.71079  Biso   1.000  C
  C33      1.0000 0.19693  0.93017  0.74418  Biso   1.000  C
  H31      1.0000 0.24583  0.96807  0.75517  Biso   1.000  H
  O11      1.0000 0.22298  0.03772  0.66344  Biso   1.000  O
  O12      1.0000 0.30340  0.07794  0.71087  Biso   1.000  O
  C34      1.0000 0.23163  0.85487  0.80937  Biso   1.000  C
  C35      1.0000 0.23953  0.84687  0.84387  Biso   1.000  C
  H32      1.0000 0.27913  0.83517  0.85467  Biso   1.000  H
  C36      1.0000 0.30103  0.85777  0.78367  Biso   1.000  C
  H33      1.0000 0.34743  0.86407  0.79697  Biso   1.000  H
  H34      1.0000 0.31913  0.90377  0.76817  Biso   1.000  H
  H35      1.0000 0.27793  0.80707  0.77067  Biso   1.000  H
  H36      1.0000 0.27303  0.86107  0.79237  Biso   1.000  H
  C37      1.0000 0.64040  0.54850  0.02706  Biso   1.000  C
  C38      1.0000 0.72010  0.56900  0.04412  Biso   1.000  C
  C39      1.0000 0.73650  0.60010  0.07751  Biso   1.000  C
  H37      1.0000 0.69860  0.61110  0.08850  Biso   1.000  H
  O13      1.0000 0.62895  0.51860  0.99677  Biso   1.000  O
  O14      1.0000 0.58873  0.55880  0.04420  Biso   1.000  O
  C40      1.0000 0.81180  0.71010  0.14270  Biso   1.000  C
  C41      1.0000 0.81980  0.72600  0.17720  Biso   1.000  C
  H38      1.0000 0.83150  0.77730  0.18800  Biso   1.000  H
  C42      1.0000 0.80890  0.77660  0.11700  Biso   1.000  C
  H39      1.0000 0.80260  0.81670  0.13030  Biso   1.000  H
  H40      1.0000 0.76290  0.74870  0.10150  Biso   1.000  H
  H41      1.0000 0.85960  0.80420  0.10400  Biso   1.000  H
  H42      1.0000 0.80560  0.74530  0.12570  Biso   1.000  H
  C43      1.0000 0.30707  0.88183  0.36039  Biso   1.000  C
  C44      1.0000 0.38677  0.90233  0.37745  Biso   1.000  C
  C45      1.0000 0.40317  0.93343  0.41084  Biso   1.000  C
  H43      1.0000 0.36527  0.94443  0.42183  Biso   1.000  H
  O15      1.0000 0.29562  0.85193  0.33010  Biso   1.000  O
  O16      1.0000 0.25540  0.89213  0.37753  Biso   1.000  O
  C46      1.0000 0.47847  0.04343  0.47603  Biso   1.000  C
  C47      1.0000 0.48647  0.05933  0.51053  Biso   1.000  C
  H44      1.0000 0.49817  0.11063  0.52133  Biso   1.000  H
  C48      1.0000 0.47557  0.10993  0.45033  Biso   1.000  C
  H45      1.0000 0.46927  0.15003  0.46363  Biso   1.000  H
  H46      1.0000 0.42957  0.08203  0.43483  Biso   1.000  H
  H47      1.0000 0.52627  0.13753  0.43733  Biso   1.000  H
  H48      1.0000 0.47227  0.07863  0.45903  Biso   1.000  H
  C49      1.0000 0.97373  0.21517  0.69373  Biso   1.000  C
  C50      1.0000 0.05343  0.23567  0.71079  Biso   1.000  C
  C51      1.0000 0.06983  0.26677  0.74418  Biso   1.000  C
  H49      1.0000 0.03193  0.27777  0.75517  Biso   1.000  H
  O17      1.0000 0.96228  0.18527  0.66344  Biso   1.000  O
  O18      1.0000 0.92206  0.22547  0.71087  Biso   1.000  O
  C52      1.0000 0.14513  0.37677  0.80937  Biso   1.000  C
  C53      1.0000 0.15313  0.39267  0.84387  Biso   1.000  C
  H50      1.0000 0.16483  0.44397  0.85467  Biso   1.000  H
  C54      1.0000 0.14223  0.44327  0.78367  Biso   1.000  C
  H51      1.0000 0.13593  0.48337  0.79697  Biso   1.000  H
  H52      1.0000 0.09623  0.41537  0.76817  Biso   1.000  H
  H53      1.0000 0.19293  0.47087  0.77067  Biso   1.000  H
  H54      1.0000 0.13893  0.41197  0.79237  Biso   1.000  H
  C55      1.0000 0.09190  0.45150  0.97294  Biso   1.000  C
  C56      1.0000 0.15110  0.43100  0.95588  Biso   1.000  C
  C57      1.0000 0.13640  0.39990  0.92249  Biso   1.000  C
  H55      1.0000 0.08750  0.38890  0.91150  Biso   1.000  H
  O19      1.0000 0.11035  0.48140  0.00323  Biso   1.000  O
  O20      1.0000 0.02993  0.44120  0.95580  Biso   1.000  O
  C58      1.0000 0.10170  0.28990  0.85730  Biso   1.000  C
  C59      1.0000 0.09380  0.27400  0.82280  Biso   1.000  C
  H56      1.0000 0.05420  0.22270  0.81200  Biso   1.000  H
  C60      1.0000 0.03230  0.22340  0.88300  Biso   1.000  C
  H57      1.0000 0.98590  0.18330  0.86970  Biso   1.000  H
  H58      1.0000 0.01420  0.25130  0.89850  Biso   1.000  H
  H59      1.0000 0.05540  0.19580  0.89600  Biso   1.000  H
  H60      1.0000 0.06030  0.25470  0.87430  Biso   1.000  H
  C61      1.0000 0.75857  0.78483  0.30627  Biso   1.000  C
  C62      1.0000 0.81777  0.76433  0.28921  Biso   1.000  C
  C63      1.0000 0.80307  0.73323  0.25582  Biso   1.000  C
  H61      1.0000 0.75417  0.72223  0.24483  Biso   1.000  H
  O21      1.0000 0.77702  0.81473  0.33656  Biso   1.000  O
  O22      1.0000 0.69660  0.77453  0.28913  Biso   1.000  O
  C64      1.0000 0.76837  0.62323  0.19063  Biso   1.000  C
  C65      1.0000 0.76047  0.60733  0.15613  Biso   1.000  C
  H62      1.0000 0.72087  0.55603  0.14533  Biso   1.000  H
  C66      1.0000 0.69897  0.55673  0.21633  Biso   1.000  C
  H63      1.0000 0.65257  0.51663  0.20303  Biso   1.000  H
  H64      1.0000 0.68087  0.58463  0.23183  Biso   1.000  H
  H65      1.0000 0.72207  0.52913  0.22933  Biso   1.000  H
  H66      1.0000 0.72697  0.58803  0.20763  Biso   1.000  H
  C67      1.0000 0.42523  0.11817  0.63961  Biso   1.000  C
  C68      1.0000 0.48443  0.09767  0.62255  Biso   1.000  C
  C69      1.0000 0.46973  0.06657  0.58916  Biso   1.000  C
  H67      1.0000 0.42083  0.05557  0.57817  Biso   1.000  H
  O23      1.0000 0.44368  0.14807  0.66990  Biso   1.000  O
  O24      1.0000 0.36326  0.10787  0.62247  Biso   1.000  O
  C70      1.0000 0.43503  0.95657  0.52397  Biso   1.000  C
  C71      1.0000 0.42713  0.94067  0.48947  Biso   1.000  C
  H68      1.0000 0.38753  0.88937  0.47867  Biso   1.000  H
  C72      1.0000 0.36563  0.89007  0.54967  Biso   1.000  C
  H69      1.0000 0.31923  0.84997  0.53637  Biso   1.000  H
  H70      1.0000 0.34753  0.91797  0.56517  Biso   1.000  H
  H71      1.0000 0.38873  0.86247  0.56267  Biso   1.000  H
  H72      1.0000 0.39363  0.92137  0.54097  Biso   1.000  H
  C73      1.0000 0.35960  0.90810  0.97294  Biso   1.000  C
  C74      1.0000 0.27990  0.84890  0.95588  Biso   1.000  C
  C75      1.0000 0.26350  0.86360  0.92249  Biso   1.000  C
  H73      1.0000 0.30140  0.91250  0.91150  Biso   1.000  H
  O25      1.0000 0.37105  0.88965  0.00323  Biso   1.000  O
  O26      1.0000 0.41127  0.97007  0.95580  Biso   1.000  O
  C76      1.0000 0.18820  0.89830  0.85730  Biso   1.000  C
  C77      1.0000 0.18020  0.90620  0.82280  Biso   1.000  C
  H74      1.0000 0.16850  0.94580  0.81200  Biso   1.000  H
  C78      1.0000 0.19110  0.96770  0.88300  Biso   1.000  C
  H75      1.0000 0.19740  0.01410  0.86970  Biso   1.000  H
  H76      1.0000 0.23710  0.98580  0.89850  Biso   1.000  H
  H77      1.0000 0.14040  0.94460  0.89600  Biso   1.000  H
  H78      1.0000 0.19440  0.93970  0.87430  Biso   1.000  H
  C79      1.0000 0.02627  0.24143  0.30627  Biso   1.000  C
  C80      1.0000 0.94657  0.18223  0.28921  Biso   1.000  C
  C81      1.0000 0.93017  0.19693  0.25582  Biso   1.000  C
  H79      1.0000 0.96807  0.24583  0.24483  Biso   1.000  H
  O27      1.0000 0.03772  0.22298  0.33656  Biso   1.000  O
  O28      1.0000 0.07794  0.30340  0.28913  Biso   1.000  O
  C82      1.0000 0.85487  0.23163  0.19063  Biso   1.000  C
  C83      1.0000 0.84687  0.23953  0.15613  Biso   1.000  C
  H80      1.0000 0.83517  0.27913  0.14533  Biso   1.000  H
  C84      1.0000 0.85777  0.30103  0.21633  Biso   1.000  C
  H81      1.0000 0.86407  0.34743  0.20303  Biso   1.000  H
  H82      1.0000 0.90377  0.31913  0.23183  Biso   1.000  H
  H83      1.0000 0.80707  0.27793  0.22933  Biso   1.000  H
  H84      1.0000 0.86107  0.27303  0.20763  Biso   1.000  H
  C85      1.0000 0.69293  0.57477  0.63961  Biso   1.000  C
  C86      1.0000 0.61323  0.51557  0.62255  Biso   1.000  C
  C87      1.0000 0.59683  0.53027  0.58916  Biso   1.000  C
  H85      1.0000 0.63473  0.57917  0.57817  Biso   1.000  H
  O29      1.0000 0.70438  0.55632  0.66990  Biso   1.000  O
  O30      1.0000 0.74460  0.63674  0.62247  Biso   1.000  O
  C88      1.0000 0.52153  0.56497  0.52397  Biso   1.000  C
  C89      1.0000 0.51353  0.57287  0.48947  Biso   1.000  C
  H86      1.0000 0.50183  0.61247  0.47867  Biso   1.000  H
  C90      1.0000 0.52443  0.63437  0.54967  Biso   1.000  C
  H87      1.0000 0.53073  0.68077  0.53637  Biso   1.000  H
  H88      1.0000 0.57043  0.65247  0.56517  Biso   1.000  H
  H89      1.0000 0.47373  0.61127  0.56267  Biso   1.000  H
  H90      1.0000 0.52773  0.60637  0.54097  Biso   1.000  H
  C91      1.0000 0.54850  0.64040  0.97294  Biso   1.000  C
  C92      1.0000 0.56900  0.72010  0.95588  Biso   1.000  C
  C93      1.0000 0.60010  0.73650  0.92249  Biso   1.000  C
  H91      1.0000 0.61110  0.69860  0.91150  Biso   1.000  H
  O31      1.0000 0.51860  0.62895  0.00323  Biso   1.000  O
  O32      1.0000 0.55880  0.58873  0.95580  Biso   1.000  O
  C94      1.0000 0.71010  0.81180  0.85730  Biso   1.000  C
  C95      1.0000 0.72600  0.81980  0.82280  Biso   1.000  C
  H92      1.0000 0.77730  0.83150  0.81200  Biso   1.000  H
  C96      1.0000 0.77660  0.80890  0.88300  Biso   1.000  C
  H93      1.0000 0.81670  0.80260  0.86970  Biso   1.000  H
  H94      1.0000 0.74870  0.76290  0.89850  Biso   1.000  H
  H95      1.0000 0.80420  0.85960  0.89600  Biso   1.000  H
  H96      1.0000 0.74530  0.80560  0.87430  Biso   1.000  H
  C97      1.0000 0.21517  0.97373  0.30627  Biso   1.000  C
  C98      1.0000 0.23567  0.05343  0.28921  Biso   1.000  C
  C99      1.0000 0.26677  0.06983  0.25582  Biso   1.000  C
  H97      1.0000 0.27777  0.03193  0.24483  Biso   1.000  H
  O33      1.0000 0.18527  0.96228  0.33656  Biso   1.000  O
  O34      1.0000 0.22547  0.92206  0.28913  Biso   1.000  O
  C100     1.0000 0.37677  0.14513  0.19063  Biso   1.000  C
  C101     1.0000 0.39267  0.15313  0.15613  Biso   1.000  C
  H98      1.0000 0.44397  0.16483  0.14533  Biso   1.000  H
  C102     1.0000 0.44327  0.14223  0.21633  Biso   1.000  C
  H99      1.0000 0.48337  0.13593  0.20303  Biso   1.000  H
  H100     1.0000 0.41537  0.09623  0.23183  Biso   1.000  H
  H101     1.0000 0.47087  0.19293  0.22933  Biso   1.000  H
  H102     1.0000 0.41197  0.13893  0.20763  Biso   1.000  H
  C103     1.0000 0.88183  0.30707  0.63961  Biso   1.000  C
  C104     1.0000 0.90233  0.38677  0.62255  Biso   1.000  C
  C105     1.0000 0.93343  0.40317  0.58916  Biso   1.000  C
  H103     1.0000 0.94443  0.36527  0.57817  Biso   1.000  H
  O35      1.0000 0.85193  0.29562  0.66990  Biso   1.000  O
  O36      1.0000 0.89213  0.25540  0.62247  Biso   1.000  O
  C106     1.0000 0.04343  0.47847  0.52397  Biso   1.000  C
  C107     1.0000 0.05933  0.48647  0.48947  Biso   1.000  C
  H104     1.0000 0.11063  0.49817  0.47867  Biso   1.000  H
  C108     1.0000 0.10993  0.47557  0.54967  Biso   1.000  C
  H105     1.0000 0.15003  0.46927  0.53637  Biso   1.000  H
  H106     1.0000 0.08203  0.42957  0.56517  Biso   1.000  H
  H107     1.0000 0.13753  0.52627  0.56267  Biso   1.000  H
  H108     1.0000 0.07863  0.47227  0.54097  Biso   1.000  H
  C109     1.0000 0.54850  0.90810  0.97294  Biso   1.000  C
  C110     1.0000 0.56900  0.84890  0.95588  Biso   1.000  C
  C111     1.0000 0.60010  0.86360  0.92249  Biso   1.000  C
  H109     1.0000 0.61110  0.91250  0.91150  Biso   1.000  H
  O37      1.0000 0.51860  0.88965  0.00323  Biso   1.000  O
  O38      1.0000 0.55880  0.97007  0.95580  Biso   1.000  O
  C112     1.0000 0.71010  0.89830  0.85730  Biso   1.000  C
  C113     1.0000 0.72600  0.90620  0.82280  Biso   1.000  C
  H110     1.0000 0.77730  0.94580  0.81200  Biso   1.000  H
  C114     1.0000 0.77660  0.96770  0.88300  Biso   1.000  C
  H111     1.0000 0.81670  0.01410  0.86970  Biso   1.000  H
  H112     1.0000 0.74870  0.98580  0.89850  Biso   1.000  H
  H113     1.0000 0.80420  0.94460  0.89600  Biso   1.000  H
  H114     1.0000 0.74530  0.93970  0.87430  Biso   1.000  H
  C115     1.0000 0.21517  0.24143  0.30627  Biso   1.000  C
  C116     1.0000 0.23567  0.18223  0.28921  Biso   1.000  C
  C117     1.0000 0.26677  0.19693  0.25582  Biso   1.000  C
  H115     1.0000 0.27777  0.24583  0.24483  Biso   1.000  H
  O39      1.0000 0.18527  0.22298  0.33656  Biso   1.000  O
  O40      1.0000 0.22547  0.30340  0.28913  Biso   1.000  O
  C118     1.0000 0.37677  0.23163  0.19063  Biso   1.000  C
  C119     1.0000 0.39267  0.23953  0.15613  Biso   1.000  C
  H116     1.0000 0.44397  0.27913  0.14533  Biso   1.000  H
  C120     1.0000 0.44327  0.30103  0.21633  Biso   1.000  C
  H117     1.0000 0.48337  0.34743  0.20303  Biso   1.000  H
  H118     1.0000 0.41537  0.31913  0.23183  Biso   1.000  H
  H119     1.0000 0.47087  0.27793  0.22933  Biso   1.000  H
  H120     1.0000 0.41197  0.27303  0.20763  Biso   1.000  H
  C121     1.0000 0.88183  0.57477  0.63961  Biso   1.000  C
  C122     1.0000 0.90233  0.51557  0.62255  Biso   1.000  C
  C123     1.0000 0.93343  0.53027  0.58916  Biso   1.000  C
  H121     1.0000 0.94443  0.57917  0.57817  Biso   1.000  H
  O41      1.0000 0.85193  0.55632  0.66990  Biso   1.000  O
  O42      1.0000 0.89213  0.63674  0.62247  Biso   1.000  O
  C124     1.0000 0.04343  0.56497  0.52397  Biso   1.000  C
  C125     1.0000 0.05933  0.57287  0.48947  Biso   1.000  C
  H122     1.0000 0.11063  0.61247  0.47867  Biso   1.000  H
  C126     1.0000 0.10993  0.63437  0.54967  Biso   1.000  C
  H123     1.0000 0.15003  0.68077  0.53637  Biso   1.000  H
  H124     1.0000 0.08203  0.65247  0.56517  Biso   1.000  H
  H125     1.0000 0.13753  0.61127  0.56267  Biso   1.000  H
  H126     1.0000 0.07863  0.60637  0.54097  Biso   1.000  H
  C127     1.0000 0.09190  0.64040  0.97294  Biso   1.000  C
  C128     1.0000 0.15110  0.72010  0.95588  Biso   1.000  C
  C129     1.0000 0.13640  0.73650  0.92249  Biso   1.000  C
  H127     1.0000 0.08750  0.69860  0.91150  Biso   1.000  H
  O43      1.0000 0.11035  0.62895  0.00323  Biso   1.000  O
  O44      1.0000 0.02993  0.58873  0.95580  Biso   1.000  O
  C130     1.0000 0.10170  0.81180  0.85730  Biso   1.000  C
  C131     1.0000 0.09380  0.81980  0.82280  Biso   1.000  C
  H128     1.0000 0.05420  0.83150  0.81200  Biso   1.000  H
  C132     1.0000 0.03230  0.80890  0.88300  Biso   1.000  C
  H129     1.0000 0.98590  0.80260  0.86970  Biso   1.000  H
  H130     1.0000 0.01420  0.76290  0.89850  Biso   1.000  H
  H131     1.0000 0.05540  0.85960  0.89600  Biso   1.000  H
  H132     1.0000 0.06030  0.80560  0.87430  Biso   1.000  H
  C133     1.0000 0.75857  0.97373  0.30627  Biso   1.000  C
  C134     1.0000 0.81777  0.05343  0.28921  Biso   1.000  C
  C135     1.0000 0.80307  0.06983  0.25582  Biso   1.000  C
  H133     1.0000 0.75417  0.03193  0.24483  Biso   1.000  H
  O45      1.0000 0.77702  0.96228  0.33656  Biso   1.000  O
  O46      1.0000 0.69660  0.92206  0.28913  Biso   1.000  O
  C136     1.0000 0.76837  0.14513  0.19063  Biso   1.000  C
  C137     1.0000 0.76047  0.15313  0.15613  Biso   1.000  C
  H134     1.0000 0.72087  0.16483  0.14533  Biso   1.000  H
  C138     1.0000 0.69897  0.14223  0.21633  Biso   1.000  C
  H135     1.0000 0.65257  0.13593  0.20303  Biso   1.000  H
  H136     1.0000 0.68087  0.09623  0.23183  Biso   1.000  H
  H137     1.0000 0.72207  0.19293  0.22933  Biso   1.000  H
  H138     1.0000 0.72697  0.13893  0.20763  Biso   1.000  H
  C139     1.0000 0.42523  0.30707  0.63961  Biso   1.000  C
  C140     1.0000 0.48443  0.38677  0.62255  Biso   1.000  C
  C141     1.0000 0.46973  0.40317  0.58916  Biso   1.000  C
  H139     1.0000 0.42083  0.36527  0.57817  Biso   1.000  H
  O47      1.0000 0.44368  0.29562  0.66990  Biso   1.000  O
  O48      1.0000 0.36326  0.25540  0.62247  Biso   1.000  O
  C142     1.0000 0.43503  0.47847  0.52397  Biso   1.000  C
  C143     1.0000 0.42713  0.48647  0.48947  Biso   1.000  C
  H140     1.0000 0.38753  0.49817  0.47867  Biso   1.000  H
  C144     1.0000 0.36563  0.47557  0.54967  Biso   1.000  C
  H141     1.0000 0.31923  0.46927  0.53637  Biso   1.000  H
  H142     1.0000 0.34753  0.42957  0.56517  Biso   1.000  H
  H143     1.0000 0.38873  0.52627  0.56267  Biso   1.000  H
  H144     1.0000 0.39363  0.47227  0.54097  Biso   1.000  H
  C145     1.0000 0.35960  0.45150  0.97294  Biso   1.000  C
  C146     1.0000 0.27990  0.43100  0.95588  Biso   1.000  C
  C147     1.0000 0.26350  0.39990  0.92249  Biso   1.000  C
  H145     1.0000 0.30140  0.38890  0.91150  Biso   1.000  H
  O49      1.0000 0.37105  0.48140  0.00323  Biso   1.000  O
  O50      1.0000 0.41127  0.44120  0.95580  Biso   1.000  O
  C148     1.0000 0.18820  0.28990  0.85730  Biso   1.000  C
  C149     1.0000 0.18020  0.27400  0.82280  Biso   1.000  C
  H146     1.0000 0.16850  0.22270  0.81200  Biso   1.000  H
  C150     1.0000 0.19110  0.22340  0.88300  Biso   1.000  C
  H147     1.0000 0.19740  0.18330  0.86970  Biso   1.000  H
  H148     1.0000 0.23710  0.25130  0.89850  Biso   1.000  H
  H149     1.0000 0.14040  0.19580  0.89600  Biso   1.000  H
  H150     1.0000 0.19440  0.25470  0.87430  Biso   1.000  H
  C151     1.0000 0.02627  0.78483  0.30627  Biso   1.000  C
  C152     1.0000 0.94657  0.76433  0.28921  Biso   1.000  C
  C153     1.0000 0.93017  0.73323  0.25582  Biso   1.000  C
  H151     1.0000 0.96807  0.72223  0.24483  Biso   1.000  H
  O51      1.0000 0.03772  0.81473  0.33656  Biso   1.000  O
  O52      1.0000 0.07794  0.77453  0.28913  Biso   1.000  O
  C154     1.0000 0.85487  0.62323  0.19063  Biso   1.000  C
  C155     1.0000 0.84687  0.60733  0.15613  Biso   1.000  C
  H152     1.0000 0.83517  0.55603  0.14533  Biso   1.000  H
  C156     1.0000 0.85777  0.55673  0.21633  Biso   1.000  C
  H153     1.0000 0.86407  0.51663  0.20303  Biso   1.000  H
  H154     1.0000 0.90377  0.58463  0.23183  Biso   1.000  H
  H155     1.0000 0.80707  0.52913  0.22933  Biso   1.000  H
  H156     1.0000 0.86107  0.58803  0.20763  Biso   1.000  H
  C157     1.0000 0.69293  0.11817  0.63961  Biso   1.000  C
  C158     1.0000 0.61323  0.09767  0.62255  Biso   1.000  C
  C159     1.0000 0.59683  0.06657  0.58916  Biso   1.000  C
  H157     1.0000 0.63473  0.05557  0.57817  Biso   1.000  H
  O53      1.0000 0.70438  0.14807  0.66990  Biso   1.000  O
  O54      1.0000 0.74460  0.10787  0.62247  Biso   1.000  O
  C160     1.0000 0.52153  0.95657  0.52397  Biso   1.000  C
  C161     1.0000 0.51353  0.94067  0.48947  Biso   1.000  C
  H158     1.0000 0.50183  0.88937  0.47867  Biso   1.000  H
  C162     1.0000 0.52443  0.89007  0.54967  Biso   1.000  C
  H159     1.0000 0.53073  0.84997  0.53637  Biso   1.000  H
  H160     1.0000 0.57043  0.91797  0.56517  Biso   1.000  H
  H161     1.0000 0.47373  0.86247  0.56267  Biso   1.000  H
  H162     1.0000 0.52773  0.92137  0.54097  Biso   1.000  H
  C163     1.0000 0.90810  0.54850  0.02706  Biso   1.000  C
  C164     1.0000 0.84890  0.56900  0.04412  Biso   1.000  C
  C165     1.0000 0.86360  0.60010  0.07751  Biso   1.000  C
  H163     1.0000 0.91250  0.61110  0.08850  Biso   1.000  H
  O55      1.0000 0.88965  0.51860  0.99677  Biso   1.000  O
  O56      1.0000 0.97007  0.55880  0.04420  Biso   1.000  O
  C166     1.0000 0.89830  0.71010  0.14270  Biso   1.000  C
  C167     1.0000 0.90620  0.72600  0.17720  Biso   1.000  C
  H164     1.0000 0.94580  0.77730  0.18800  Biso   1.000  H
  C168     1.0000 0.96770  0.77660  0.11700  Biso   1.000  C
  H165     1.0000 0.01410  0.81670  0.13030  Biso   1.000  H
  H166     1.0000 0.98580  0.74870  0.10150  Biso   1.000  H
  H167     1.0000 0.94460  0.80420  0.10400  Biso   1.000  H
  H168     1.0000 0.93970  0.74530  0.12570  Biso   1.000  H
  C169     1.0000 0.57477  0.88183  0.36039  Biso   1.000  C
  C170     1.0000 0.51557  0.90233  0.37745  Biso   1.000  C
  C171     1.0000 0.53027  0.93343  0.41084  Biso   1.000  C
  H169     1.0000 0.57917  0.94443  0.42183  Biso   1.000  H
  O57      1.0000 0.55632  0.85193  0.33010  Biso   1.000  O
  O58      1.0000 0.63674  0.89213  0.37753  Biso   1.000  O
  C172     1.0000 0.56497  0.04343  0.47603  Biso   1.000  C
  C173     1.0000 0.57287  0.05933  0.51053  Biso   1.000  C
  H170     1.0000 0.61247  0.11063  0.52133  Biso   1.000  H
  C174     1.0000 0.63437  0.10993  0.45033  Biso   1.000  C
  H171     1.0000 0.68077  0.15003  0.46363  Biso   1.000  H
  H172     1.0000 0.65247  0.08203  0.43483  Biso   1.000  H
  H173     1.0000 0.61127  0.13753  0.43733  Biso   1.000  H
  H174     1.0000 0.60637  0.07863  0.45903  Biso   1.000  H
  C175     1.0000 0.24143  0.21517  0.69373  Biso   1.000  C
  C176     1.0000 0.18223  0.23567  0.71079  Biso   1.000  C
  C177     1.0000 0.19693  0.26677  0.74418  Biso   1.000  C
  H175     1.0000 0.24583  0.27777  0.75517  Biso   1.000  H
  O59      1.0000 0.22298  0.18527  0.66344  Biso   1.000  O
  O60      1.0000 0.30340  0.22547  0.71087  Biso   1.000  O
  C178     1.0000 0.23163  0.37677  0.80937  Biso   1.000  C
  C179     1.0000 0.23953  0.39267  0.84387  Biso   1.000  C
  H176     1.0000 0.27913  0.44397  0.85467  Biso   1.000  H
  C180     1.0000 0.30103  0.44327  0.78367  Biso   1.000  C
  H177     1.0000 0.34743  0.48337  0.79697  Biso   1.000  H
  H178     1.0000 0.31913  0.41537  0.76817  Biso   1.000  H
  H179     1.0000 0.27793  0.47087  0.77067  Biso   1.000  H
  H180     1.0000 0.27303  0.41197  0.79237  Biso   1.000  H
  C181     1.0000 0.64040  0.09190  0.02706  Biso   1.000  C
  C182     1.0000 0.72010  0.15110  0.04412  Biso   1.000  C
  C183     1.0000 0.73650  0.13640  0.07751  Biso   1.000  C
  H181     1.0000 0.69860  0.08750  0.08850  Biso   1.000  H
  O61      1.0000 0.62895  0.11035  0.99677  Biso   1.000  O
  O62      1.0000 0.58873  0.02993  0.04420  Biso   1.000  O
  C184     1.0000 0.81180  0.10170  0.14270  Biso   1.000  C
  C185     1.0000 0.81980  0.09380  0.17720  Biso   1.000  C
  H182     1.0000 0.83150  0.05420  0.18800  Biso   1.000  H
  C186     1.0000 0.80890  0.03230  0.11700  Biso   1.000  C
  H183     1.0000 0.80260  0.98590  0.13030  Biso   1.000  H
  H184     1.0000 0.76290  0.01420  0.10150  Biso   1.000  H
  H185     1.0000 0.85960  0.05540  0.10400  Biso   1.000  H
  H186     1.0000 0.80560  0.06030  0.12570  Biso   1.000  H
  C187     1.0000 0.30707  0.42523  0.36039  Biso   1.000  C
  C188     1.0000 0.38677  0.48443  0.37745  Biso   1.000  C
  C189     1.0000 0.40317  0.46973  0.41084  Biso   1.000  C
  H187     1.0000 0.36527  0.42083  0.42183  Biso   1.000  H
  O63      1.0000 0.29562  0.44368  0.33010  Biso   1.000  O
  O64      1.0000 0.25540  0.36326  0.37753  Biso   1.000  O
  C190     1.0000 0.47847  0.43503  0.47603  Biso   1.000  C
  C191     1.0000 0.48647  0.42713  0.51053  Biso   1.000  C
  H188     1.0000 0.49817  0.38753  0.52133  Biso   1.000  H
  C192     1.0000 0.47557  0.36563  0.45033  Biso   1.000  C
  H189     1.0000 0.46927  0.31923  0.46363  Biso   1.000  H
  H190     1.0000 0.42957  0.34753  0.43483  Biso   1.000  H
  H191     1.0000 0.52627  0.38873  0.43733  Biso   1.000  H
  H192     1.0000 0.47227  0.39363  0.45903  Biso   1.000  H
  C193     1.0000 0.97373  0.75857  0.69373  Biso   1.000  C
  C194     1.0000 0.05343  0.81777  0.71079  Biso   1.000  C
  C195     1.0000 0.06983  0.80307  0.74418  Biso   1.000  C
  H193     1.0000 0.03193  0.75417  0.75517  Biso   1.000  H
  O65      1.0000 0.96228  0.77702  0.66344  Biso   1.000  O
  O66      1.0000 0.92206  0.69660  0.71087  Biso   1.000  O
  C196     1.0000 0.14513  0.76837  0.80937  Biso   1.000  C
  C197     1.0000 0.15313  0.76047  0.84387  Biso   1.000  C
  H194     1.0000 0.16483  0.72087  0.85467  Biso   1.000  H
  C198     1.0000 0.14223  0.69897  0.78367  Biso   1.000  C
  H195     1.0000 0.13593  0.65257  0.79697  Biso   1.000  H
  H196     1.0000 0.09623  0.68087  0.76817  Biso   1.000  H
  H197     1.0000 0.19293  0.72207  0.77067  Biso   1.000  H
  H198     1.0000 0.13893  0.72697  0.79237  Biso   1.000  H
  C199     1.0000 0.45150  0.35960  0.02706  Biso   1.000  C
  C200     1.0000 0.43100  0.27990  0.04412  Biso   1.000  C
  C201     1.0000 0.39990  0.26350  0.07751  Biso   1.000  C
  H199     1.0000 0.38890  0.30140  0.08850  Biso   1.000  H
  O67      1.0000 0.48140  0.37105  0.99677  Biso   1.000  O
  O68      1.0000 0.44120  0.41127  0.04420  Biso   1.000  O
  C202     1.0000 0.28990  0.18820  0.14270  Biso   1.000  C
  C203     1.0000 0.27400  0.18020  0.17720  Biso   1.000  C
  H200     1.0000 0.22270  0.16850  0.18800  Biso   1.000  H
  C204     1.0000 0.22340  0.19110  0.11700  Biso   1.000  C
  H201     1.0000 0.18330  0.19740  0.13030  Biso   1.000  H
  H202     1.0000 0.25130  0.23710  0.10150  Biso   1.000  H
  H203     1.0000 0.19580  0.14040  0.10400  Biso   1.000  H
  H204     1.0000 0.25470  0.19440  0.12570  Biso   1.000  H
  C205     1.0000 0.11817  0.69293  0.36039  Biso   1.000  C
  C206     1.0000 0.09767  0.61323  0.37745  Biso   1.000  C
  C207     1.0000 0.06657  0.59683  0.41084  Biso   1.000  C
  H205     1.0000 0.05557  0.63473  0.42183  Biso   1.000  H
  O69      1.0000 0.14807  0.70438  0.33010  Biso   1.000  O
  O70      1.0000 0.10787  0.74460  0.37753  Biso   1.000  O
  C208     1.0000 0.95657  0.52153  0.47603  Biso   1.000  C
  C209     1.0000 0.94067  0.51353  0.51053  Biso   1.000  C
  H206     1.0000 0.88937  0.50183  0.52133  Biso   1.000  H
  C210     1.0000 0.89007  0.52443  0.45033  Biso   1.000  C
  H207     1.0000 0.84997  0.53073  0.46363  Biso   1.000  H
  H208     1.0000 0.91797  0.57043  0.43483  Biso   1.000  H
  H209     1.0000 0.86247  0.47373  0.43733  Biso   1.000  H
  H210     1.0000 0.92137  0.52773  0.45903  Biso   1.000  H
  C211     1.0000 0.78483  0.02627  0.69373  Biso   1.000  C
  C212     1.0000 0.76433  0.94657  0.71079  Biso   1.000  C
  C213     1.0000 0.73323  0.93017  0.74418  Biso   1.000  C
  H211     1.0000 0.72223  0.96807  0.75517  Biso   1.000  H
  O71      1.0000 0.81473  0.03772  0.66344  Biso   1.000  O
  O72      1.0000 0.77453  0.07794  0.71087  Biso   1.000  O
  C214     1.0000 0.62323  0.85487  0.80937  Biso   1.000  C
  C215     1.0000 0.60733  0.84687  0.84387  Biso   1.000  C
  H212     1.0000 0.55603  0.83517  0.85467  Biso   1.000  H
  C216     1.0000 0.55673  0.85777  0.78367  Biso   1.000  C
  H213     1.0000 0.51663  0.86407  0.79697  Biso   1.000  H
  H214     1.0000 0.58463  0.90377  0.76817  Biso   1.000  H
  H215     1.0000 0.52913  0.80707  0.77067  Biso   1.000  H
  H216     1.0000 0.58803  0.86107  0.79237  Biso   1.000  H
  C217     1.0000 0.44510  0.22255  0.02798  Biso   1.000  C
  H217     1.0000 0.46490  0.23245  0.00540  Biso   1.000  H
  C218     1.0000 0.38490  0.19245  0.09492  Biso   1.000  C
  C219     1.0000 0.35670  0.17835  0.13203  Biso   1.000  C
  C220     1.0000 0.11177  0.55588  0.36131  Biso   1.000  C
  H218     1.0000 0.13157  0.56578  0.33873  Biso   1.000  H
  C221     1.0000 0.05157  0.52578  0.42825  Biso   1.000  C
  C222     1.0000 0.02337  0.51168  0.46536  Biso   1.000  C
  C223     1.0000 0.77843  0.88922  0.69465  Biso   1.000  C
  H219     1.0000 0.79823  0.89912  0.67207  Biso   1.000  H
  C224     1.0000 0.71823  0.85912  0.76159  Biso   1.000  C
  C225     1.0000 0.69003  0.84502  0.79870  Biso   1.000  C
  C226     1.0000 0.77745  0.22255  0.02798  Biso   1.000  C
  H220     1.0000 0.76755  0.23245  0.00540  Biso   1.000  H
  C227     1.0000 0.80755  0.19245  0.09492  Biso   1.000  C
  C228     1.0000 0.82165  0.17835  0.13203  Biso   1.000  C
  C229     1.0000 0.44412  0.55588  0.36131  Biso   1.000  C
  H221     1.0000 0.43422  0.56578  0.33873  Biso   1.000  H
  C230     1.0000 0.47422  0.52578  0.42825  Biso   1.000  C
  C231     1.0000 0.48832  0.51168  0.46536  Biso   1.000  C
  C232     1.0000 0.11078  0.88922  0.69465  Biso   1.000  C
  H222     1.0000 0.10088  0.89912  0.67207  Biso   1.000  H
  C233     1.0000 0.14088  0.85912  0.76159  Biso   1.000  C
  C234     1.0000 0.15498  0.84502  0.79870  Biso   1.000  C
  C235     1.0000 0.77745  0.55490  0.02798  Biso   1.000  C
  H223     1.0000 0.76755  0.53510  0.00540  Biso   1.000  H
  C236     1.0000 0.80755  0.61510  0.09492  Biso   1.000  C
  C237     1.0000 0.82165  0.64330  0.13203  Biso   1.000  C
  C238     1.0000 0.44412  0.88823  0.36131  Biso   1.000  C
  H224     1.0000 0.43422  0.86843  0.33873  Biso   1.000  H
  C239     1.0000 0.47422  0.94843  0.42825  Biso   1.000  C
  C240     1.0000 0.48832  0.97663  0.46536  Biso   1.000  C
  C241     1.0000 0.11078  0.22157  0.69465  Biso   1.000  C
  H225     1.0000 0.10088  0.20177  0.67207  Biso   1.000  H
  C242     1.0000 0.14088  0.28177  0.76159  Biso   1.000  C
  C243     1.0000 0.15498  0.30997  0.79870  Biso   1.000  C
  C244     1.0000 0.22255  0.44510  0.97202  Biso   1.000  C
  H226     1.0000 0.23245  0.46490  0.99460  Biso   1.000  H
  C245     1.0000 0.19245  0.38490  0.90508  Biso   1.000  C
  C246     1.0000 0.17835  0.35670  0.86797  Biso   1.000  C
  C247     1.0000 0.88922  0.77843  0.30535  Biso   1.000  C
  H227     1.0000 0.89912  0.79823  0.32793  Biso   1.000  H
  C248     1.0000 0.85912  0.71823  0.23841  Biso   1.000  C
  C249     1.0000 0.84502  0.69003  0.20130  Biso   1.000  C
  C250     1.0000 0.55588  0.11177  0.63869  Biso   1.000  C
  H228     1.0000 0.56578  0.13157  0.66127  Biso   1.000  H
  C251     1.0000 0.52578  0.05157  0.57175  Biso   1.000  C
  C252     1.0000 0.51168  0.02337  0.53464  Biso   1.000  C
  C253     1.0000 0.22255  0.77745  0.97202  Biso   1.000  C
  H229     1.0000 0.23245  0.76755  0.99460  Biso   1.000  H
  C254     1.0000 0.19245  0.80755  0.90508  Biso   1.000  C
  C255     1.0000 0.17835  0.82165  0.86797  Biso   1.000  C
  C256     1.0000 0.88922  0.11078  0.30535  Biso   1.000  C
  H230     1.0000 0.89912  0.10088  0.32793  Biso   1.000  H
  C257     1.0000 0.85912  0.14088  0.23841  Biso   1.000  C
  C258     1.0000 0.84502  0.15498  0.20130  Biso   1.000  C
  C259     1.0000 0.55588  0.44412  0.63869  Biso   1.000  C
  H231     1.0000 0.56578  0.43422  0.66127  Biso   1.000  H
  C260     1.0000 0.52578  0.47422  0.57175  Biso   1.000  C
  C261     1.0000 0.51168  0.48832  0.53464  Biso   1.000  C
  C262     1.0000 0.55490  0.77745  0.97202  Biso   1.000  C
  H232     1.0000 0.53510  0.76755  0.99460  Biso   1.000  H
  C263     1.0000 0.61510  0.80755  0.90508  Biso   1.000  C
  C264     1.0000 0.64330  0.82165  0.86797  Biso   1.000  C
  C265     1.0000 0.22157  0.11078  0.30535  Biso   1.000  C
  H233     1.0000 0.20177  0.10088  0.32793  Biso   1.000  H
  C266     1.0000 0.28177  0.14088  0.23841  Biso   1.000  C
  C267     1.0000 0.30997  0.15498  0.20130  Biso   1.000  C
  C268     1.0000 0.88823  0.44412  0.63869  Biso   1.000  C
  H234     1.0000 0.86843  0.43422  0.66127  Biso   1.000  H
  C269     1.0000 0.94843  0.47422  0.57175  Biso   1.000  C
  C270     1.0000 0.97663  0.48832  0.53464  Biso   1.000  C
  Cu1      1.0000 0.52365  0.04730  0.97196  Biso   1.000  Cu
  Cu2      1.0000 0.19032  0.38063  0.30530  Biso   1.000  Cu
  Cu3      1.0000 0.85698  0.71397  0.63863  Biso   1.000  Cu
  Cu4      1.0000 0.95270  0.47635  0.97196  Biso   1.000  Cu
  Cu5      1.0000 0.61937  0.80968  0.30530  Biso   1.000  Cu
  Cu6      1.0000 0.28603  0.14302  0.63863  Biso   1.000  Cu
  Cu7      1.0000 0.52365  0.47635  0.97196  Biso   1.000  Cu
  Cu8      1.0000 0.19032  0.80968  0.30530  Biso   1.000  Cu
  Cu9      1.0000 0.85698  0.14302  0.63863  Biso   1.000  Cu
  Cu10     1.0000 0.04730  0.52365  0.02804  Biso   1.000  Cu
  Cu11     1.0000 0.71397  0.85698  0.36137  Biso   1.000  Cu
  Cu12     1.0000 0.38063  0.19032  0.69470  Biso   1.000  Cu
  Cu13     1.0000 0.47635  0.95270  0.02804  Biso   1.000  Cu
  Cu14     1.0000 0.14302  0.28603  0.36137  Biso   1.000  Cu
  Cu15     1.0000 0.80968  0.61937  0.69470  Biso   1.000  Cu
  Cu16     1.0000 0.47635  0.52365  0.02804  Biso   1.000  Cu
  Cu17     1.0000 0.14302  0.85698  0.36137  Biso   1.000  Cu
  Cu18     1.0000 0.80968  0.19032  0.69470  Biso   1.000  Cu
