data_image0
_cell_length_a       18.7065
_cell_length_b       18.7065
_cell_length_c       38.488
_cell_angle_alpha    90
_cell_angle_beta     90
_cell_angle_gamma    120

_symmetry_space_group_name_H-M    "P 1"
_symmetry_int_tables_number       1

loop_
  _symmetry_equiv_pos_as_xyz
  'x, y, z'

loop_
  _atom_site_label
  _atom_site_occupancy
  _atom_site_fract_x
  _atom_site_fract_y
  _atom_site_fract_z
  _atom_site_thermal_displace_type
  _atom_site_B_iso_or_equiv
  _atom_site_type_symbol
  C1       1.0000 0.45310  0.36010  0.02636  Biso   1.000  C
  C2       1.0000 0.43180  0.28030  0.04362  Biso   1.000  C
  C3       1.0000 0.40160  0.26450  0.07734  Biso   1.000  C
  H1       1.0000 0.39040  0.30190  0.08850  Biso   1.000  H
  C4       1.0000 0.27340  0.18430  0.17790  Biso   1.000  C
  H2       1.0000 0.23120  0.19590  0.18520  Biso   1.000  H
  C5       1.0000 0.30030  0.19700  0.14340  Biso   1.000  C
  O1       1.0000 0.48255  0.37154  0.99606  Biso   1.000  O
  O2       1.0000 0.44180  0.41065  0.04372  Biso   1.000  O
  F1       1.0000 0.25250  0.22110  0.12080  Biso   1.000  F
  H3       1.0000 0.27710  0.22000  0.12780  Biso   1.000  H
  C6       1.0000 0.11977  0.69343  0.35969  Biso   1.000  C
  C7       1.0000 0.09847  0.61363  0.37695  Biso   1.000  C
  C8       1.0000 0.06827  0.59783  0.41067  Biso   1.000  C
  H4       1.0000 0.05707  0.63523  0.42183  Biso   1.000  H
  C9       1.0000 0.94007  0.51763  0.51123  Biso   1.000  C
  H5       1.0000 0.89787  0.52923  0.51853  Biso   1.000  H
  C10      1.0000 0.96697  0.53033  0.47673  Biso   1.000  C
  O3       1.0000 0.14922  0.70487  0.32939  Biso   1.000  O
  O4       1.0000 0.10847  0.74398  0.37705  Biso   1.000  O
  F2       1.0000 0.91917  0.55443  0.45413  Biso   1.000  F
  H6       1.0000 0.94377  0.55333  0.46113  Biso   1.000  H
  C11      1.0000 0.78643  0.02677  0.69303  Biso   1.000  C
  C12      1.0000 0.76513  0.94697  0.71029  Biso   1.000  C
  C13      1.0000 0.73493  0.93117  0.74401  Biso   1.000  C
  H7       1.0000 0.72373  0.96857  0.75517  Biso   1.000  H
  C14      1.0000 0.60673  0.85097  0.84457  Biso   1.000  C
  H8       1.0000 0.56453  0.86257  0.85187  Biso   1.000  H
  C15      1.0000 0.63363  0.86367  0.81007  Biso   1.000  C
  O5       1.0000 0.81588  0.03821  0.66273  Biso   1.000  O
  O6       1.0000 0.77513  0.07732  0.71039  Biso   1.000  O
  F3       1.0000 0.58583  0.88777  0.78747  Biso   1.000  F
  H9       1.0000 0.61043  0.88667  0.79447  Biso   1.000  H
  C16      1.0000 0.63990  0.09300  0.02636  Biso   1.000  C
  C17      1.0000 0.71970  0.15150  0.04362  Biso   1.000  C
  C18      1.0000 0.73550  0.13710  0.07734  Biso   1.000  C
  H10      1.0000 0.69810  0.08850  0.08850  Biso   1.000  H
  C19      1.0000 0.81570  0.08910  0.17790  Biso   1.000  C
  H11      1.0000 0.80410  0.03530  0.18520  Biso   1.000  H
  C20      1.0000 0.80300  0.10330  0.14340  Biso   1.000  C
  O7       1.0000 0.62846  0.11101  0.99606  Biso   1.000  O
  O8       1.0000 0.58935  0.03115  0.04372  Biso   1.000  O
  F4       1.0000 0.77890  0.03140  0.12080  Biso   1.000  F
  H12      1.0000 0.78000  0.05710  0.12780  Biso   1.000  H
  C21      1.0000 0.30657  0.42633  0.35969  Biso   1.000  C
  C22      1.0000 0.38637  0.48483  0.37695  Biso   1.000  C
  C23      1.0000 0.40217  0.47043  0.41067  Biso   1.000  C
  H13      1.0000 0.36477  0.42183  0.42183  Biso   1.000  H
  C24      1.0000 0.48237  0.42243  0.51123  Biso   1.000  C
  H14      1.0000 0.47077  0.36863  0.51853  Biso   1.000  H
  C25      1.0000 0.46967  0.43663  0.47673  Biso   1.000  C
  O9       1.0000 0.29513  0.44434  0.32939  Biso   1.000  O
  O10      1.0000 0.25602  0.36448  0.37705  Biso   1.000  O
  F5       1.0000 0.44557  0.36473  0.45413  Biso   1.000  F
  H15      1.0000 0.44667  0.39043  0.46113  Biso   1.000  H
  C26      1.0000 0.97323  0.75967  0.69303  Biso   1.000  C
  C27      1.0000 0.05303  0.81817  0.71029  Biso   1.000  C
  C28      1.0000 0.06883  0.80377  0.74401  Biso   1.000  C
  H16      1.0000 0.03143  0.75517  0.75517  Biso   1.000  H
  C29      1.0000 0.14903  0.75577  0.84457  Biso   1.000  C
  H17      1.0000 0.13743  0.70197  0.85187  Biso   1.000  H
  C30      1.0000 0.13633  0.76997  0.81007  Biso   1.000  C
  O11      1.0000 0.96179  0.77768  0.66273  Biso   1.000  O
  O12      1.0000 0.92268  0.69782  0.71039  Biso   1.000  O
  F6       1.0000 0.11223  0.69807  0.78747  Biso   1.000  F
  H18      1.0000 0.11333  0.72377  0.79447  Biso   1.000  H
  C31      1.0000 0.90700  0.54690  0.02636  Biso   1.000  C
  C32      1.0000 0.84850  0.56820  0.04362  Biso   1.000  C
  C33      1.0000 0.86290  0.59840  0.07734  Biso   1.000  C
  H19      1.0000 0.91150  0.60960  0.08850  Biso   1.000  H
  C34      1.0000 0.91090  0.72660  0.17790  Biso   1.000  C
  H20      1.0000 0.96470  0.76880  0.18520  Biso   1.000  H
  C35      1.0000 0.89670  0.69970  0.14340  Biso   1.000  C
  O13      1.0000 0.88899  0.51745  0.99606  Biso   1.000  O
  O14      1.0000 0.96885  0.55820  0.04372  Biso   1.000  O
  F7       1.0000 0.96860  0.74750  0.12080  Biso   1.000  F
  H21      1.0000 0.94290  0.72290  0.12780  Biso   1.000  H
  C36      1.0000 0.57367  0.88023  0.35969  Biso   1.000  C
  C37      1.0000 0.51517  0.90153  0.37695  Biso   1.000  C
  C38      1.0000 0.52957  0.93173  0.41067  Biso   1.000  C
  H22      1.0000 0.57817  0.94293  0.42183  Biso   1.000  H
  C39      1.0000 0.57757  0.05993  0.51123  Biso   1.000  C
  H23      1.0000 0.63137  0.10213  0.51853  Biso   1.000  H
  C40      1.0000 0.56337  0.03303  0.47673  Biso   1.000  C
  O15      1.0000 0.55566  0.85078  0.32939  Biso   1.000  O
  O16      1.0000 0.63552  0.89153  0.37705  Biso   1.000  O
  F8       1.0000 0.63527  0.08083  0.45413  Biso   1.000  F
  H24      1.0000 0.60957  0.05623  0.46113  Biso   1.000  H
  C41      1.0000 0.24033  0.21357  0.69303  Biso   1.000  C
  C42      1.0000 0.18183  0.23487  0.71029  Biso   1.000  C
  C43      1.0000 0.19623  0.26507  0.74401  Biso   1.000  C
  H25      1.0000 0.24483  0.27627  0.75517  Biso   1.000  H
  C44      1.0000 0.24423  0.39327  0.84457  Biso   1.000  C
  H26      1.0000 0.29803  0.43547  0.85187  Biso   1.000  H
  C45      1.0000 0.23003  0.36637  0.81007  Biso   1.000  C
  O17      1.0000 0.22232  0.18412  0.66273  Biso   1.000  O
  O18      1.0000 0.30218  0.22487  0.71039  Biso   1.000  O
  F9       1.0000 0.30193  0.41417  0.78747  Biso   1.000  F
  H27      1.0000 0.27623  0.38957  0.79447  Biso   1.000  H
  C46      1.0000 0.36010  0.45310  0.97364  Biso   1.000  C
  C47      1.0000 0.28030  0.43180  0.95638  Biso   1.000  C
  C48      1.0000 0.26450  0.40160  0.92266  Biso   1.000  C
  H28      1.0000 0.30190  0.39040  0.91150  Biso   1.000  H
  C49      1.0000 0.18430  0.27340  0.82210  Biso   1.000  C
  H29      1.0000 0.19590  0.23120  0.81480  Biso   1.000  H
  C50      1.0000 0.19700  0.30030  0.85660  Biso   1.000  C
  O19      1.0000 0.37154  0.48255  0.00394  Biso   1.000  O
  O20      1.0000 0.41065  0.44180  0.95628  Biso   1.000  O
  F10      1.0000 0.22110  0.25250  0.87920  Biso   1.000  F
  H30      1.0000 0.22000  0.27710  0.87220  Biso   1.000  H
  C51      1.0000 0.02677  0.78643  0.30697  Biso   1.000  C
  C52      1.0000 0.94697  0.76513  0.28971  Biso   1.000  C
  C53      1.0000 0.93117  0.73493  0.25599  Biso   1.000  C
  H31      1.0000 0.96857  0.72373  0.24483  Biso   1.000  H
  C54      1.0000 0.85097  0.60673  0.15543  Biso   1.000  C
  H32      1.0000 0.86257  0.56453  0.14813  Biso   1.000  H
  C55      1.0000 0.86367  0.63363  0.18993  Biso   1.000  C
  O21      1.0000 0.03821  0.81588  0.33727  Biso   1.000  O
  O22      1.0000 0.07732  0.77513  0.28961  Biso   1.000  O
  F11      1.0000 0.88777  0.58583  0.21253  Biso   1.000  F
  H33      1.0000 0.88667  0.61043  0.20553  Biso   1.000  H
  C56      1.0000 0.69343  0.11977  0.64031  Biso   1.000  C
  C57      1.0000 0.61363  0.09847  0.62305  Biso   1.000  C
  C58      1.0000 0.59783  0.06827  0.58933  Biso   1.000  C
  H34      1.0000 0.63523  0.05707  0.57817  Biso   1.000  H
  C59      1.0000 0.51763  0.94007  0.48877  Biso   1.000  C
  H35      1.0000 0.52923  0.89787  0.48147  Biso   1.000  H
  C60      1.0000 0.53033  0.96697  0.52327  Biso   1.000  C
  O23      1.0000 0.70487  0.14922  0.67061  Biso   1.000  O
  O24      1.0000 0.74398  0.10847  0.62295  Biso   1.000  O
  F12      1.0000 0.55443  0.91917  0.54587  Biso   1.000  F
  H36      1.0000 0.55333  0.94377  0.53887  Biso   1.000  H
  C61      1.0000 0.09300  0.63990  0.97364  Biso   1.000  C
  C62      1.0000 0.15150  0.71970  0.95638  Biso   1.000  C
  C63      1.0000 0.13710  0.73550  0.92266  Biso   1.000  C
  H37      1.0000 0.08850  0.69810  0.91150  Biso   1.000  H
  C64      1.0000 0.08910  0.81570  0.82210  Biso   1.000  C
  H38      1.0000 0.03530  0.80410  0.81480  Biso   1.000  H
  C65      1.0000 0.10330  0.80300  0.85660  Biso   1.000  C
  O25      1.0000 0.11101  0.62846  0.00394  Biso   1.000  O
  O26      1.0000 0.03115  0.58935  0.95628  Biso   1.000  O
  F13      1.0000 0.03140  0.77890  0.87920  Biso   1.000  F
  H39      1.0000 0.05710  0.78000  0.87220  Biso   1.000  H
  C66      1.0000 0.75967  0.97323  0.30697  Biso   1.000  C
  C67      1.0000 0.81817  0.05303  0.28971  Biso   1.000  C
  C68      1.0000 0.80377  0.06883  0.25599  Biso   1.000  C
  H40      1.0000 0.75517  0.03143  0.24483  Biso   1.000  H
  C69      1.0000 0.75577  0.14903  0.15543  Biso   1.000  C
  H41      1.0000 0.70197  0.13743  0.14813  Biso   1.000  H
  C70      1.0000 0.76997  0.13633  0.18993  Biso   1.000  C
  O27      1.0000 0.77768  0.96179  0.33727  Biso   1.000  O
  O28      1.0000 0.69782  0.92268  0.28961  Biso   1.000  O
  F14      1.0000 0.69807  0.11223  0.21253  Biso   1.000  F
  H42      1.0000 0.72377  0.11333  0.20553  Biso   1.000  H
  C71      1.0000 0.42633  0.30657  0.64031  Biso   1.000  C
  C72      1.0000 0.48483  0.38637  0.62305  Biso   1.000  C
  C73      1.0000 0.47043  0.40217  0.58933  Biso   1.000  C
  H43      1.0000 0.42183  0.36477  0.57817  Biso   1.000  H
  C74      1.0000 0.42243  0.48237  0.48877  Biso   1.000  C
  H44      1.0000 0.36863  0.47077  0.48147  Biso   1.000  H
  C75      1.0000 0.43663  0.46967  0.52327  Biso   1.000  C
  O29      1.0000 0.44434  0.29513  0.67061  Biso   1.000  O
  O30      1.0000 0.36448  0.25602  0.62295  Biso   1.000  O
  F15      1.0000 0.36473  0.44557  0.54587  Biso   1.000  F
  H45      1.0000 0.39043  0.44667  0.53887  Biso   1.000  H
  C76      1.0000 0.54690  0.90700  0.97364  Biso   1.000  C
  C77      1.0000 0.56820  0.84850  0.95638  Biso   1.000  C
  C78      1.0000 0.59840  0.86290  0.92266  Biso   1.000  C
  H46      1.0000 0.60960  0.91150  0.91150  Biso   1.000  H
  C79      1.0000 0.72660  0.91090  0.82210  Biso   1.000  C
  H47      1.0000 0.76880  0.96470  0.81480  Biso   1.000  H
  C80      1.0000 0.69970  0.89670  0.85660  Biso   1.000  C
  O31      1.0000 0.51745  0.88899  0.00394  Biso   1.000  O
  O32      1.0000 0.55820  0.96885  0.95628  Biso   1.000  O
  F16      1.0000 0.74750  0.96860  0.87920  Biso   1.000  F
  H48      1.0000 0.72290  0.94290  0.87220  Biso   1.000  H
  C81      1.0000 0.21357  0.24033  0.30697  Biso   1.000  C
  C82      1.0000 0.23487  0.18183  0.28971  Biso   1.000  C
  C83      1.0000 0.26507  0.19623  0.25599  Biso   1.000  C
  H49      1.0000 0.27627  0.24483  0.24483  Biso   1.000  H
  C84      1.0000 0.39327  0.24423  0.15543  Biso   1.000  C
  H50      1.0000 0.43547  0.29803  0.14813  Biso   1.000  H
  C85      1.0000 0.36637  0.23003  0.18993  Biso   1.000  C
  O33      1.0000 0.18412  0.22232  0.33727  Biso   1.000  O
  O34      1.0000 0.22487  0.30218  0.28961  Biso   1.000  O
  F17      1.0000 0.41417  0.30193  0.21253  Biso   1.000  F
  H51      1.0000 0.38957  0.27623  0.20553  Biso   1.000  H
  C86      1.0000 0.88023  0.57367  0.64031  Biso   1.000  C
  C87      1.0000 0.90153  0.51517  0.62305  Biso   1.000  C
  C88      1.0000 0.93173  0.52957  0.58933  Biso   1.000  C
  H52      1.0000 0.94293  0.57817  0.57817  Biso   1.000  H
  C89      1.0000 0.05993  0.57757  0.48877  Biso   1.000  C
  H53      1.0000 0.10213  0.63137  0.48147  Biso   1.000  H
  C90      1.0000 0.03303  0.56337  0.52327  Biso   1.000  C
  O35      1.0000 0.85078  0.55566  0.67061  Biso   1.000  O
  O36      1.0000 0.89153  0.63552  0.62295  Biso   1.000  O
  F18      1.0000 0.08083  0.63527  0.54587  Biso   1.000  F
  H54      1.0000 0.05623  0.60957  0.53887  Biso   1.000  H
  C91      1.0000 0.54690  0.63990  0.97364  Biso   1.000  C
  C92      1.0000 0.56820  0.71970  0.95638  Biso   1.000  C
  C93      1.0000 0.59840  0.73550  0.92266  Biso   1.000  C
  H55      1.0000 0.60960  0.69810  0.91150  Biso   1.000  H
  C94      1.0000 0.72660  0.81570  0.82210  Biso   1.000  C
  H56      1.0000 0.76880  0.80410  0.81480  Biso   1.000  H
  C95      1.0000 0.69970  0.80300  0.85660  Biso   1.000  C
  O37      1.0000 0.51745  0.62846  0.00394  Biso   1.000  O
  O38      1.0000 0.55820  0.58935  0.95628  Biso   1.000  O
  F19      1.0000 0.74750  0.77890  0.87920  Biso   1.000  F
  H57      1.0000 0.72290  0.78000  0.87220  Biso   1.000  H
  C96      1.0000 0.21357  0.97323  0.30697  Biso   1.000  C
  C97      1.0000 0.23487  0.05303  0.28971  Biso   1.000  C
  C98      1.0000 0.26507  0.06883  0.25599  Biso   1.000  C
  H58      1.0000 0.27627  0.03143  0.24483  Biso   1.000  H
  C99      1.0000 0.39327  0.14903  0.15543  Biso   1.000  C
  H59      1.0000 0.43547  0.13743  0.14813  Biso   1.000  H
  C100     1.0000 0.36637  0.13633  0.18993  Biso   1.000  C
  O39      1.0000 0.18412  0.96179  0.33727  Biso   1.000  O
  O40      1.0000 0.22487  0.92268  0.28961  Biso   1.000  O
  F20      1.0000 0.41417  0.11223  0.21253  Biso   1.000  F
  H60      1.0000 0.38957  0.11333  0.20553  Biso   1.000  H
  C101     1.0000 0.88023  0.30657  0.64031  Biso   1.000  C
  C102     1.0000 0.90153  0.38637  0.62305  Biso   1.000  C
  C103     1.0000 0.93173  0.40217  0.58933  Biso   1.000  C
  H61      1.0000 0.94293  0.36477  0.57817  Biso   1.000  H
  C104     1.0000 0.05993  0.48237  0.48877  Biso   1.000  C
  H62      1.0000 0.10213  0.47077  0.48147  Biso   1.000  H
  C105     1.0000 0.03303  0.46967  0.52327  Biso   1.000  C
  O41      1.0000 0.85078  0.29513  0.67061  Biso   1.000  O
  O42      1.0000 0.89153  0.25602  0.62295  Biso   1.000  O
  F21      1.0000 0.08083  0.44557  0.54587  Biso   1.000  F
  H63      1.0000 0.05623  0.44667  0.53887  Biso   1.000  H
  C106     1.0000 0.36010  0.90700  0.97364  Biso   1.000  C
  C107     1.0000 0.28030  0.84850  0.95638  Biso   1.000  C
  C108     1.0000 0.26450  0.86290  0.92266  Biso   1.000  C
  H64      1.0000 0.30190  0.91150  0.91150  Biso   1.000  H
  C109     1.0000 0.18430  0.91090  0.82210  Biso   1.000  C
  H65      1.0000 0.19590  0.96470  0.81480  Biso   1.000  H
  C110     1.0000 0.19700  0.89670  0.85660  Biso   1.000  C
  O43      1.0000 0.37154  0.88899  0.00394  Biso   1.000  O
  O44      1.0000 0.41065  0.96885  0.95628  Biso   1.000  O
  F22      1.0000 0.22110  0.96860  0.87920  Biso   1.000  F
  H66      1.0000 0.22000  0.94290  0.87220  Biso   1.000  H
  C111     1.0000 0.02677  0.24033  0.30697  Biso   1.000  C
  C112     1.0000 0.94697  0.18183  0.28971  Biso   1.000  C
  C113     1.0000 0.93117  0.19623  0.25599  Biso   1.000  C
  H67      1.0000 0.96857  0.24483  0.24483  Biso   1.000  H
  C114     1.0000 0.85097  0.24423  0.15543  Biso   1.000  C
  H68      1.0000 0.86257  0.29803  0.14813  Biso   1.000  H
  C115     1.0000 0.86367  0.23003  0.18993  Biso   1.000  C
  O45      1.0000 0.03821  0.22232  0.33727  Biso   1.000  O
  O46      1.0000 0.07732  0.30218  0.28961  Biso   1.000  O
  F23      1.0000 0.88777  0.30193  0.21253  Biso   1.000  F
  H69      1.0000 0.88667  0.27623  0.20553  Biso   1.000  H
  C116     1.0000 0.69343  0.57367  0.64031  Biso   1.000  C
  C117     1.0000 0.61363  0.51517  0.62305  Biso   1.000  C
  C118     1.0000 0.59783  0.52957  0.58933  Biso   1.000  C
  H70      1.0000 0.63523  0.57817  0.57817  Biso   1.000  H
  C119     1.0000 0.51763  0.57757  0.48877  Biso   1.000  C
  H71      1.0000 0.52923  0.63137  0.48147  Biso   1.000  H
  C120     1.0000 0.53033  0.56337  0.52327  Biso   1.000  C
  O47      1.0000 0.70487  0.55566  0.67061  Biso   1.000  O
  O48      1.0000 0.74398  0.63552  0.62295  Biso   1.000  O
  F24      1.0000 0.55443  0.63527  0.54587  Biso   1.000  F
  H72      1.0000 0.55333  0.60957  0.53887  Biso   1.000  H
  C121     1.0000 0.09300  0.45310  0.97364  Biso   1.000  C
  C122     1.0000 0.15150  0.43180  0.95638  Biso   1.000  C
  C123     1.0000 0.13710  0.40160  0.92266  Biso   1.000  C
  H73      1.0000 0.08850  0.39040  0.91150  Biso   1.000  H
  C124     1.0000 0.08910  0.27340  0.82210  Biso   1.000  C
  H74      1.0000 0.03530  0.23120  0.81480  Biso   1.000  H
  C125     1.0000 0.10330  0.30030  0.85660  Biso   1.000  C
  O49      1.0000 0.11101  0.48255  0.00394  Biso   1.000  O
  O50      1.0000 0.03115  0.44180  0.95628  Biso   1.000  O
  F25      1.0000 0.03140  0.25250  0.87920  Biso   1.000  F
  H75      1.0000 0.05710  0.27710  0.87220  Biso   1.000  H
  C126     1.0000 0.75967  0.78643  0.30697  Biso   1.000  C
  C127     1.0000 0.81817  0.76513  0.28971  Biso   1.000  C
  C128     1.0000 0.80377  0.73493  0.25599  Biso   1.000  C
  H76      1.0000 0.75517  0.72373  0.24483  Biso   1.000  H
  C129     1.0000 0.75577  0.60673  0.15543  Biso   1.000  C
  H77      1.0000 0.70197  0.56453  0.14813  Biso   1.000  H
  C130     1.0000 0.76997  0.63363  0.18993  Biso   1.000  C
  O51      1.0000 0.77768  0.81588  0.33727  Biso   1.000  O
  O52      1.0000 0.69782  0.77513  0.28961  Biso   1.000  O
  F26      1.0000 0.69807  0.58583  0.21253  Biso   1.000  F
  H78      1.0000 0.72377  0.61043  0.20553  Biso   1.000  H
  C131     1.0000 0.42633  0.11977  0.64031  Biso   1.000  C
  C132     1.0000 0.48483  0.09847  0.62305  Biso   1.000  C
  C133     1.0000 0.47043  0.06827  0.58933  Biso   1.000  C
  H79      1.0000 0.42183  0.05707  0.57817  Biso   1.000  H
  C134     1.0000 0.42243  0.94007  0.48877  Biso   1.000  C
  H80      1.0000 0.36863  0.89787  0.48147  Biso   1.000  H
  C135     1.0000 0.43663  0.96697  0.52327  Biso   1.000  C
  O53      1.0000 0.44434  0.14922  0.67061  Biso   1.000  O
  O54      1.0000 0.36448  0.10847  0.62295  Biso   1.000  O
  F27      1.0000 0.36473  0.91917  0.54587  Biso   1.000  F
  H81      1.0000 0.39043  0.94377  0.53887  Biso   1.000  H
  C136     1.0000 0.63990  0.54690  0.02636  Biso   1.000  C
  C137     1.0000 0.71970  0.56820  0.04362  Biso   1.000  C
  C138     1.0000 0.73550  0.59840  0.07734  Biso   1.000  C
  H82      1.0000 0.69810  0.60960  0.08850  Biso   1.000  H
  C139     1.0000 0.81570  0.72660  0.17790  Biso   1.000  C
  H83      1.0000 0.80410  0.76880  0.18520  Biso   1.000  H
  C140     1.0000 0.80300  0.69970  0.14340  Biso   1.000  C
  O55      1.0000 0.62846  0.51745  0.99606  Biso   1.000  O
  O56      1.0000 0.58935  0.55820  0.04372  Biso   1.000  O
  F28      1.0000 0.77890  0.74750  0.12080  Biso   1.000  F
  H84      1.0000 0.78000  0.72290  0.12780  Biso   1.000  H
  C141     1.0000 0.30657  0.88023  0.35969  Biso   1.000  C
  C142     1.0000 0.38637  0.90153  0.37695  Biso   1.000  C
  C143     1.0000 0.40217  0.93173  0.41067  Biso   1.000  C
  H85      1.0000 0.36477  0.94293  0.42183  Biso   1.000  H
  C144     1.0000 0.48237  0.05993  0.51123  Biso   1.000  C
  H86      1.0000 0.47077  0.10213  0.51853  Biso   1.000  H
  C145     1.0000 0.46967  0.03303  0.47673  Biso   1.000  C
  O57      1.0000 0.29513  0.85078  0.32939  Biso   1.000  O
  O58      1.0000 0.25602  0.89153  0.37705  Biso   1.000  O
  F29      1.0000 0.44557  0.08083  0.45413  Biso   1.000  F
  H87      1.0000 0.44667  0.05623  0.46113  Biso   1.000  H
  C146     1.0000 0.97323  0.21357  0.69303  Biso   1.000  C
  C147     1.0000 0.05303  0.23487  0.71029  Biso   1.000  C
  C148     1.0000 0.06883  0.26507  0.74401  Biso   1.000  C
  H88      1.0000 0.03143  0.27627  0.75517  Biso   1.000  H
  C149     1.0000 0.14903  0.39327  0.84457  Biso   1.000  C
  H89      1.0000 0.13743  0.43547  0.85187  Biso   1.000  H
  C150     1.0000 0.13633  0.36637  0.81007  Biso   1.000  C
  O59      1.0000 0.96179  0.18412  0.66273  Biso   1.000  O
  O60      1.0000 0.92268  0.22487  0.71039  Biso   1.000  O
  F30      1.0000 0.11223  0.41417  0.78747  Biso   1.000  F
  H90      1.0000 0.11333  0.38957  0.79447  Biso   1.000  H
  C151     1.0000 0.90700  0.36010  0.02636  Biso   1.000  C
  C152     1.0000 0.84850  0.28030  0.04362  Biso   1.000  C
  C153     1.0000 0.86290  0.26450  0.07734  Biso   1.000  C
  H91      1.0000 0.91150  0.30190  0.08850  Biso   1.000  H
  C154     1.0000 0.91090  0.18430  0.17790  Biso   1.000  C
  H92      1.0000 0.96470  0.19590  0.18520  Biso   1.000  H
  C155     1.0000 0.89670  0.19700  0.14340  Biso   1.000  C
  O61      1.0000 0.88899  0.37154  0.99606  Biso   1.000  O
  O62      1.0000 0.96885  0.41065  0.04372  Biso   1.000  O
  F31      1.0000 0.96860  0.22110  0.12080  Biso   1.000  F
  H93      1.0000 0.94290  0.22000  0.12780  Biso   1.000  H
  C156     1.0000 0.57367  0.69343  0.35969  Biso   1.000  C
  C157     1.0000 0.51517  0.61363  0.37695  Biso   1.000  C
  C158     1.0000 0.52957  0.59783  0.41067  Biso   1.000  C
  H94      1.0000 0.57817  0.63523  0.42183  Biso   1.000  H
  C159     1.0000 0.57757  0.51763  0.51123  Biso   1.000  C
  H95      1.0000 0.63137  0.52923  0.51853  Biso   1.000  H
  C160     1.0000 0.56337  0.53033  0.47673  Biso   1.000  C
  O63      1.0000 0.55566  0.70487  0.32939  Biso   1.000  O
  O64      1.0000 0.63552  0.74398  0.37705  Biso   1.000  O
  F32      1.0000 0.63527  0.55443  0.45413  Biso   1.000  F
  H96      1.0000 0.60957  0.55333  0.46113  Biso   1.000  H
  C161     1.0000 0.24033  0.02677  0.69303  Biso   1.000  C
  C162     1.0000 0.18183  0.94697  0.71029  Biso   1.000  C
  C163     1.0000 0.19623  0.93117  0.74401  Biso   1.000  C
  H97      1.0000 0.24483  0.96857  0.75517  Biso   1.000  H
  C164     1.0000 0.24423  0.85097  0.84457  Biso   1.000  C
  H98      1.0000 0.29803  0.86257  0.85187  Biso   1.000  H
  C165     1.0000 0.23003  0.86367  0.81007  Biso   1.000  C
  O65      1.0000 0.22232  0.03821  0.66273  Biso   1.000  O
  O66      1.0000 0.30218  0.07732  0.71039  Biso   1.000  O
  F33      1.0000 0.30193  0.88777  0.78747  Biso   1.000  F
  H99      1.0000 0.27623  0.88667  0.79447  Biso   1.000  H
  C166     1.0000 0.45310  0.09300  0.02636  Biso   1.000  C
  C167     1.0000 0.43180  0.15150  0.04362  Biso   1.000  C
  C168     1.0000 0.40160  0.13710  0.07734  Biso   1.000  C
  H100     1.0000 0.39040  0.08850  0.08850  Biso   1.000  H
  C169     1.0000 0.27340  0.08910  0.17790  Biso   1.000  C
  H101     1.0000 0.23120  0.03530  0.18520  Biso   1.000  H
  C170     1.0000 0.30030  0.10330  0.14340  Biso   1.000  C
  O67      1.0000 0.48255  0.11101  0.99606  Biso   1.000  O
  O68      1.0000 0.44180  0.03115  0.04372  Biso   1.000  O
  F34      1.0000 0.25250  0.03140  0.12080  Biso   1.000  F
  H102     1.0000 0.27710  0.05710  0.12780  Biso   1.000  H
  C171     1.0000 0.11977  0.42633  0.35969  Biso   1.000  C
  C172     1.0000 0.09847  0.48483  0.37695  Biso   1.000  C
  C173     1.0000 0.06827  0.47043  0.41067  Biso   1.000  C
  H103     1.0000 0.05707  0.42183  0.42183  Biso   1.000  H
  C174     1.0000 0.94007  0.42243  0.51123  Biso   1.000  C
  H104     1.0000 0.89787  0.36863  0.51853  Biso   1.000  H
  C175     1.0000 0.96697  0.43663  0.47673  Biso   1.000  C
  O69      1.0000 0.14922  0.44434  0.32939  Biso   1.000  O
  O70      1.0000 0.10847  0.36448  0.37705  Biso   1.000  O
  F35      1.0000 0.91917  0.36473  0.45413  Biso   1.000  F
  H105     1.0000 0.94377  0.39043  0.46113  Biso   1.000  H
  C176     1.0000 0.78643  0.75967  0.69303  Biso   1.000  C
  C177     1.0000 0.76513  0.81817  0.71029  Biso   1.000  C
  C178     1.0000 0.73493  0.80377  0.74401  Biso   1.000  C
  H106     1.0000 0.72373  0.75517  0.75517  Biso   1.000  H
  C179     1.0000 0.60673  0.75577  0.84457  Biso   1.000  C
  H107     1.0000 0.56453  0.70197  0.85187  Biso   1.000  H
  C180     1.0000 0.63363  0.76997  0.81007  Biso   1.000  C
  O71      1.0000 0.81588  0.77768  0.66273  Biso   1.000  O
  O72      1.0000 0.77513  0.69782  0.71039  Biso   1.000  O
  F36      1.0000 0.58583  0.69807  0.78747  Biso   1.000  F
  H108     1.0000 0.61043  0.72377  0.79447  Biso   1.000  H
  C181     1.0000 0.44680  0.22340  0.02691  Biso   1.000  C
  H109     1.0000 0.46700  0.23350  0.00430  Biso   1.000  H
  C182     1.0000 0.38780  0.19390  0.09475  Biso   1.000  C
  C183     1.0000 0.35870  0.17935  0.13153  Biso   1.000  C
  C184     1.0000 0.11347  0.55673  0.36024  Biso   1.000  C
  H110     1.0000 0.13367  0.56683  0.33763  Biso   1.000  H
  C185     1.0000 0.05447  0.52723  0.42808  Biso   1.000  C
  C186     1.0000 0.02537  0.51268  0.46486  Biso   1.000  C
  C187     1.0000 0.78013  0.89007  0.69358  Biso   1.000  C
  H111     1.0000 0.80033  0.90017  0.67097  Biso   1.000  H
  C188     1.0000 0.72113  0.86057  0.76142  Biso   1.000  C
  C189     1.0000 0.69203  0.84602  0.79820  Biso   1.000  C
  C190     1.0000 0.77660  0.22340  0.02691  Biso   1.000  C
  H112     1.0000 0.76650  0.23350  0.00430  Biso   1.000  H
  C191     1.0000 0.80610  0.19390  0.09475  Biso   1.000  C
  C192     1.0000 0.82065  0.17935  0.13153  Biso   1.000  C
  C193     1.0000 0.44327  0.55673  0.36024  Biso   1.000  C
  H113     1.0000 0.43317  0.56683  0.33763  Biso   1.000  H
  C194     1.0000 0.47277  0.52723  0.42808  Biso   1.000  C
  C195     1.0000 0.48732  0.51268  0.46486  Biso   1.000  C
  C196     1.0000 0.10993  0.89007  0.69358  Biso   1.000  C
  H114     1.0000 0.09983  0.90017  0.67097  Biso   1.000  H
  C197     1.0000 0.13943  0.86057  0.76142  Biso   1.000  C
  C198     1.0000 0.15398  0.84602  0.79820  Biso   1.000  C
  C199     1.0000 0.77660  0.55320  0.02691  Biso   1.000  C
  H115     1.0000 0.76650  0.53300  0.00430  Biso   1.000  H
  C200     1.0000 0.80610  0.61220  0.09475  Biso   1.000  C
  C201     1.0000 0.82065  0.64130  0.13153  Biso   1.000  C
  C202     1.0000 0.44327  0.88653  0.36024  Biso   1.000  C
  H116     1.0000 0.43317  0.86633  0.33763  Biso   1.000  H
  C203     1.0000 0.47277  0.94553  0.42808  Biso   1.000  C
  C204     1.0000 0.48732  0.97463  0.46486  Biso   1.000  C
  C205     1.0000 0.10993  0.21987  0.69358  Biso   1.000  C
  H117     1.0000 0.09983  0.19967  0.67097  Biso   1.000  H
  C206     1.0000 0.13943  0.27887  0.76142  Biso   1.000  C
  C207     1.0000 0.15398  0.30797  0.79820  Biso   1.000  C
  C208     1.0000 0.22340  0.44680  0.97309  Biso   1.000  C
  H118     1.0000 0.23350  0.46700  0.99570  Biso   1.000  H
  C209     1.0000 0.19390  0.38780  0.90525  Biso   1.000  C
  C210     1.0000 0.17935  0.35870  0.86847  Biso   1.000  C
  C211     1.0000 0.89007  0.78013  0.30642  Biso   1.000  C
  H119     1.0000 0.90017  0.80033  0.32903  Biso   1.000  H
  C212     1.0000 0.86057  0.72113  0.23858  Biso   1.000  C
  C213     1.0000 0.84602  0.69203  0.20180  Biso   1.000  C
  C214     1.0000 0.55673  0.11347  0.63976  Biso   1.000  C
  H120     1.0000 0.56683  0.13367  0.66237  Biso   1.000  H
  C215     1.0000 0.52723  0.05447  0.57192  Biso   1.000  C
  C216     1.0000 0.51268  0.02537  0.53514  Biso   1.000  C
  C217     1.0000 0.22340  0.77660  0.97309  Biso   1.000  C
  H121     1.0000 0.23350  0.76650  0.99570  Biso   1.000  H
  C218     1.0000 0.19390  0.80610  0.90525  Biso   1.000  C
  C219     1.0000 0.17935  0.82065  0.86847  Biso   1.000  C
  C220     1.0000 0.89007  0.10993  0.30642  Biso   1.000  C
  H122     1.0000 0.90017  0.09983  0.32903  Biso   1.000  H
  C221     1.0000 0.86057  0.13943  0.23858  Biso   1.000  C
  C222     1.0000 0.84602  0.15398  0.20180  Biso   1.000  C
  C223     1.0000 0.55673  0.44327  0.63976  Biso   1.000  C
  H123     1.0000 0.56683  0.43317  0.66237  Biso   1.000  H
  C224     1.0000 0.52723  0.47277  0.57192  Biso   1.000  C
  C225     1.0000 0.51268  0.48732  0.53514  Biso   1.000  C
  C226     1.0000 0.55320  0.77660  0.97309  Biso   1.000  C
  H124     1.0000 0.53300  0.76650  0.99570  Biso   1.000  H
  C227     1.0000 0.61220  0.80610  0.90525  Biso   1.000  C
  C228     1.0000 0.64130  0.82065  0.86847  Biso   1.000  C
  C229     1.0000 0.21987  0.10993  0.30642  Biso   1.000  C
  H125     1.0000 0.19967  0.09983  0.32903  Biso   1.000  H
  C230     1.0000 0.27887  0.13943  0.23858  Biso   1.000  C
  C231     1.0000 0.30797  0.15398  0.20180  Biso   1.000  C
  C232     1.0000 0.88653  0.44327  0.63976  Biso   1.000  C
  H126     1.0000 0.86633  0.43317  0.66237  Biso   1.000  H
  C233     1.0000 0.94553  0.47277  0.57192  Biso   1.000  C
  C234     1.0000 0.97463  0.48732  0.53514  Biso   1.000  C
  Cu1      1.0000 0.52331  0.47669  0.97161  Biso   1.000  Cu
  Cu2      1.0000 0.18998  0.81002  0.30494  Biso   1.000  Cu
  Cu3      1.0000 0.85664  0.14336  0.63828  Biso   1.000  Cu
  Cu4      1.0000 0.52331  0.04662  0.97161  Biso   1.000  Cu
  Cu5      1.0000 0.18998  0.37995  0.30494  Biso   1.000  Cu
  Cu6      1.0000 0.85664  0.71329  0.63828  Biso   1.000  Cu
  Cu7      1.0000 0.95338  0.47669  0.97161  Biso   1.000  Cu
  Cu8      1.0000 0.62005  0.81002  0.30494  Biso   1.000  Cu
  Cu9      1.0000 0.28671  0.14336  0.63828  Biso   1.000  Cu
  Cu10     1.0000 0.47669  0.52331  0.02839  Biso   1.000  Cu
  Cu11     1.0000 0.14336  0.85664  0.36172  Biso   1.000  Cu
  Cu12     1.0000 0.81002  0.18998  0.69506  Biso   1.000  Cu
  Cu13     1.0000 0.04662  0.52331  0.02839  Biso   1.000  Cu
  Cu14     1.0000 0.71329  0.85664  0.36172  Biso   1.000  Cu
  Cu15     1.0000 0.37995  0.18998  0.69506  Biso   1.000  Cu
  Cu16     1.0000 0.47669  0.95338  0.02839  Biso   1.000  Cu
  Cu17     1.0000 0.14336  0.28671  0.36172  Biso   1.000  Cu
  Cu18     1.0000 0.81002  0.62005  0.69506  Biso   1.000  Cu
