data_image0
_cell_length_a       18.6153
_cell_length_b       18.6153
_cell_length_c       38.375
_cell_angle_alpha    90
_cell_angle_beta     90
_cell_angle_gamma    120

_symmetry_space_group_name_H-M    "P 1"
_symmetry_int_tables_number       1

loop_
  _symmetry_equiv_pos_as_xyz
  'x, y, z'

loop_
  _atom_site_label
  _atom_site_occupancy
  _atom_site_fract_x
  _atom_site_fract_y
  _atom_site_fract_z
  _atom_site_thermal_displace_type
  _atom_site_B_iso_or_equiv
  _atom_site_type_symbol
  C1       1.0000 0.36019  0.45241  0.47354  Biso   1.000  C
  C2       1.0000 0.27935  0.42990  0.45642  Biso   1.000  C
  C3       1.0000 0.26413  0.39960  0.42277  Biso   1.000  C
  H1       1.0000 0.30210  0.38880  0.41160  Biso   1.000  H
  C4       1.0000 0.18340  0.28830  0.35812  Biso   1.000  C
  C5       1.0000 0.17340  0.26740  0.32267  Biso   1.000  C
  H2       1.0000 0.18040  0.22260  0.31440  Biso   1.000  H
  O1       1.0000 0.41087  0.44161  0.45604  Biso   1.000  O
  O2       1.0000 0.37108  0.48173  0.50392  Biso   1.000  O
  N1       1.0000 0.19330  0.22720  0.38390  Biso   1.000  N
  H3       1.0000 0.18830  0.17830  0.37770  Biso   1.000  H
  H4       1.0000 0.19990  0.24240  0.40650  Biso   1.000  H
  H5       1.0000 0.19300  0.25430  0.37520  Biso   1.000  H
  C6       1.0000 0.02686  0.78574  0.80687  Biso   1.000  C
  C7       1.0000 0.94602  0.76323  0.78975  Biso   1.000  C
  C8       1.0000 0.93080  0.73293  0.75610  Biso   1.000  C
  H6       1.0000 0.96877  0.72213  0.74493  Biso   1.000  H
  C9       1.0000 0.85007  0.62163  0.69145  Biso   1.000  C
  C10      1.0000 0.84007  0.60073  0.65600  Biso   1.000  C
  H7       1.0000 0.84707  0.55593  0.64773  Biso   1.000  H
  O3       1.0000 0.07754  0.77494  0.78937  Biso   1.000  O
  O4       1.0000 0.03775  0.81506  0.83725  Biso   1.000  O
  N2       1.0000 0.85997  0.56053  0.71723  Biso   1.000  N
  H8       1.0000 0.85497  0.51163  0.71103  Biso   1.000  H
  H9       1.0000 0.86657  0.57573  0.73983  Biso   1.000  H
  H10      1.0000 0.85967  0.58763  0.70853  Biso   1.000  H
  C11      1.0000 0.69352  0.11908  0.14021  Biso   1.000  C
  C12      1.0000 0.61268  0.09657  0.12309  Biso   1.000  C
  C13      1.0000 0.59746  0.06627  0.08944  Biso   1.000  C
  H11      1.0000 0.63543  0.05547  0.07827  Biso   1.000  H
  C14      1.0000 0.51673  0.95497  0.02479  Biso   1.000  C
  C15      1.0000 0.50673  0.93407  0.98934  Biso   1.000  C
  H12      1.0000 0.51373  0.88927  0.98107  Biso   1.000  H
  O5       1.0000 0.74420  0.10828  0.12271  Biso   1.000  O
  O6       1.0000 0.70441  0.14840  0.17059  Biso   1.000  O
  N3       1.0000 0.52663  0.89387  0.05057  Biso   1.000  N
  H13      1.0000 0.52163  0.84497  0.04437  Biso   1.000  H
  H14      1.0000 0.53323  0.90907  0.07317  Biso   1.000  H
  H15      1.0000 0.52633  0.92097  0.04187  Biso   1.000  H
  C16      1.0000 0.54759  0.90778  0.47354  Biso   1.000  C
  C17      1.0000 0.57010  0.84945  0.45642  Biso   1.000  C
  C18      1.0000 0.60040  0.86453  0.42277  Biso   1.000  C
  H16      1.0000 0.61120  0.91330  0.41160  Biso   1.000  H
  C19      1.0000 0.71170  0.89510  0.35812  Biso   1.000  C
  C20      1.0000 0.73260  0.90600  0.32267  Biso   1.000  C
  H17      1.0000 0.77740  0.95780  0.31440  Biso   1.000  H
  O7       1.0000 0.55839  0.96926  0.45604  Biso   1.000  O
  O8       1.0000 0.51827  0.88935  0.50392  Biso   1.000  O
  N4       1.0000 0.77280  0.96610  0.38390  Biso   1.000  N
  H18      1.0000 0.82170  0.01000  0.37770  Biso   1.000  H
  H19      1.0000 0.75760  0.95750  0.40650  Biso   1.000  H
  H20      1.0000 0.74570  0.93870  0.37520  Biso   1.000  H
  C21      1.0000 0.21426  0.24111  0.80687  Biso   1.000  C
  C22      1.0000 0.23677  0.18278  0.78975  Biso   1.000  C
  C23      1.0000 0.26707  0.19786  0.75610  Biso   1.000  C
  H21      1.0000 0.27787  0.24663  0.74493  Biso   1.000  H
  C24      1.0000 0.37837  0.22843  0.69145  Biso   1.000  C
  C25      1.0000 0.39927  0.23933  0.65600  Biso   1.000  C
  H22      1.0000 0.44407  0.29113  0.64773  Biso   1.000  H
  O9       1.0000 0.22506  0.30259  0.78937  Biso   1.000  O
  O10      1.0000 0.18494  0.22268  0.83725  Biso   1.000  O
  N5       1.0000 0.43947  0.29943  0.71723  Biso   1.000  N
  H23      1.0000 0.48837  0.34333  0.71103  Biso   1.000  H
  H24      1.0000 0.42427  0.29083  0.73983  Biso   1.000  H
  H25      1.0000 0.41237  0.27203  0.70853  Biso   1.000  H
  C26      1.0000 0.88092  0.57445  0.14021  Biso   1.000  C
  C27      1.0000 0.90343  0.51612  0.12309  Biso   1.000  C
  C28      1.0000 0.93373  0.53120  0.08944  Biso   1.000  C
  H26      1.0000 0.94453  0.57997  0.07827  Biso   1.000  H
  C29      1.0000 0.04503  0.56177  0.02479  Biso   1.000  C
  C30      1.0000 0.06593  0.57267  0.98934  Biso   1.000  C
  H27      1.0000 0.11073  0.62447  0.98107  Biso   1.000  H
  O11      1.0000 0.89172  0.63593  0.12271  Biso   1.000  O
  O12      1.0000 0.85160  0.55602  0.17059  Biso   1.000  O
  N6       1.0000 0.10613  0.63277  0.05057  Biso   1.000  N
  H28      1.0000 0.15503  0.67667  0.04437  Biso   1.000  H
  H29      1.0000 0.09093  0.62417  0.07317  Biso   1.000  H
  H30      1.0000 0.07903  0.60537  0.04187  Biso   1.000  H
  C31      1.0000 0.09222  0.63981  0.47354  Biso   1.000  C
  C32      1.0000 0.15055  0.72065  0.45642  Biso   1.000  C
  C33      1.0000 0.13547  0.73587  0.42277  Biso   1.000  C
  H31      1.0000 0.08670  0.69790  0.41160  Biso   1.000  H
  C34      1.0000 0.10490  0.81660  0.35812  Biso   1.000  C
  C35      1.0000 0.09400  0.82660  0.32267  Biso   1.000  C
  H32      1.0000 0.04220  0.81960  0.31440  Biso   1.000  H
  O13      1.0000 0.03074  0.58913  0.45604  Biso   1.000  O
  O14      1.0000 0.11065  0.62892  0.50392  Biso   1.000  O
  N7       1.0000 0.03390  0.80670  0.38390  Biso   1.000  N
  H33      1.0000 0.99000  0.81170  0.37770  Biso   1.000  H
  H34      1.0000 0.04250  0.80010  0.40650  Biso   1.000  H
  H35      1.0000 0.06130  0.80700  0.37520  Biso   1.000  H
  C36      1.0000 0.75889  0.97314  0.80687  Biso   1.000  C
  C37      1.0000 0.81722  0.05398  0.78975  Biso   1.000  C
  C38      1.0000 0.80214  0.06920  0.75610  Biso   1.000  C
  H36      1.0000 0.75337  0.03123  0.74493  Biso   1.000  H
  C39      1.0000 0.77157  0.14993  0.69145  Biso   1.000  C
  C40      1.0000 0.76067  0.15993  0.65600  Biso   1.000  C
  H37      1.0000 0.70887  0.15293  0.64773  Biso   1.000  H
  O15      1.0000 0.69741  0.92246  0.78937  Biso   1.000  O
  O16      1.0000 0.77732  0.96225  0.83725  Biso   1.000  O
  N8       1.0000 0.70057  0.14003  0.71723  Biso   1.000  N
  H38      1.0000 0.65667  0.14503  0.71103  Biso   1.000  H
  H39      1.0000 0.70917  0.13343  0.73983  Biso   1.000  H
  H40      1.0000 0.72797  0.14033  0.70853  Biso   1.000  H
  C41      1.0000 0.42555  0.30648  0.14021  Biso   1.000  C
  C42      1.0000 0.48388  0.38732  0.12309  Biso   1.000  C
  C43      1.0000 0.46880  0.40254  0.08944  Biso   1.000  C
  H41      1.0000 0.42003  0.36457  0.07827  Biso   1.000  H
  C44      1.0000 0.43823  0.48327  0.02479  Biso   1.000  C
  C45      1.0000 0.42733  0.49327  0.98934  Biso   1.000  C
  H42      1.0000 0.37553  0.48627  0.98107  Biso   1.000  H
  O17      1.0000 0.36407  0.25580  0.12271  Biso   1.000  O
  O18      1.0000 0.44398  0.29559  0.17059  Biso   1.000  O
  N9       1.0000 0.36723  0.47337  0.05057  Biso   1.000  N
  H43      1.0000 0.32333  0.47837  0.04437  Biso   1.000  H
  H44      1.0000 0.37583  0.46677  0.07317  Biso   1.000  H
  H45      1.0000 0.39463  0.47367  0.04187  Biso   1.000  H
  C46      1.0000 0.45241  0.36019  0.52646  Biso   1.000  C
  C47      1.0000 0.42990  0.27935  0.54358  Biso   1.000  C
  C48      1.0000 0.39960  0.26413  0.57723  Biso   1.000  C
  H46      1.0000 0.38880  0.30210  0.58840  Biso   1.000  H
  C49      1.0000 0.28830  0.18340  0.64188  Biso   1.000  C
  C50      1.0000 0.26740  0.17340  0.67733  Biso   1.000  C
  H47      1.0000 0.22260  0.18040  0.68560  Biso   1.000  H
  O19      1.0000 0.44161  0.41087  0.54396  Biso   1.000  O
  O20      1.0000 0.48173  0.37108  0.49608  Biso   1.000  O
  N10      1.0000 0.22720  0.19330  0.61610  Biso   1.000  N
  H48      1.0000 0.17830  0.18830  0.62230  Biso   1.000  H
  H49      1.0000 0.24240  0.19990  0.59350  Biso   1.000  H
  H50      1.0000 0.25430  0.19300  0.62480  Biso   1.000  H
  C51      1.0000 0.11908  0.69352  0.85979  Biso   1.000  C
  C52      1.0000 0.09657  0.61268  0.87691  Biso   1.000  C
  C53      1.0000 0.06627  0.59746  0.91056  Biso   1.000  C
  H51      1.0000 0.05547  0.63543  0.92173  Biso   1.000  H
  C54      1.0000 0.95497  0.51673  0.97521  Biso   1.000  C
  C55      1.0000 0.93407  0.50673  0.01066  Biso   1.000  C
  H52      1.0000 0.88927  0.51373  0.01893  Biso   1.000  H
  O21      1.0000 0.10828  0.74420  0.87729  Biso   1.000  O
  O22      1.0000 0.14840  0.70441  0.82941  Biso   1.000  O
  N11      1.0000 0.89387  0.52663  0.94943  Biso   1.000  N
  H53      1.0000 0.84497  0.52163  0.95563  Biso   1.000  H
  H54      1.0000 0.90907  0.53323  0.92683  Biso   1.000  H
  H55      1.0000 0.92097  0.52633  0.95813  Biso   1.000  H
  C56      1.0000 0.78574  0.02686  0.19313  Biso   1.000  C
  C57      1.0000 0.76323  0.94602  0.21025  Biso   1.000  C
  C58      1.0000 0.73293  0.93080  0.24390  Biso   1.000  C
  H56      1.0000 0.72213  0.96877  0.25507  Biso   1.000  H
  C59      1.0000 0.62163  0.85007  0.30855  Biso   1.000  C
  C60      1.0000 0.60073  0.84007  0.34400  Biso   1.000  C
  H57      1.0000 0.55593  0.84707  0.35227  Biso   1.000  H
  O23      1.0000 0.77494  0.07754  0.21063  Biso   1.000  O
  O24      1.0000 0.81506  0.03775  0.16275  Biso   1.000  O
  N12      1.0000 0.56053  0.85997  0.28277  Biso   1.000  N
  H58      1.0000 0.51163  0.85497  0.28897  Biso   1.000  H
  H59      1.0000 0.57573  0.86657  0.26017  Biso   1.000  H
  H60      1.0000 0.58763  0.85967  0.29147  Biso   1.000  H
  C61      1.0000 0.90778  0.54759  0.52646  Biso   1.000  C
  C62      1.0000 0.84945  0.57010  0.54358  Biso   1.000  C
  C63      1.0000 0.86453  0.60040  0.57723  Biso   1.000  C
  H61      1.0000 0.91330  0.61120  0.58840  Biso   1.000  H
  C64      1.0000 0.89510  0.71170  0.64188  Biso   1.000  C
  C65      1.0000 0.90600  0.73260  0.67733  Biso   1.000  C
  H62      1.0000 0.95780  0.77740  0.68560  Biso   1.000  H
  O25      1.0000 0.96926  0.55839  0.54396  Biso   1.000  O
  O26      1.0000 0.88935  0.51827  0.49608  Biso   1.000  O
  N13      1.0000 0.96610  0.77280  0.61610  Biso   1.000  N
  H63      1.0000 0.01000  0.82170  0.62230  Biso   1.000  H
  H64      1.0000 0.95750  0.75760  0.59350  Biso   1.000  H
  H65      1.0000 0.93870  0.74570  0.62480  Biso   1.000  H
  C66      1.0000 0.57445  0.88092  0.85979  Biso   1.000  C
  C67      1.0000 0.51612  0.90343  0.87691  Biso   1.000  C
  C68      1.0000 0.53120  0.93373  0.91056  Biso   1.000  C
  H66      1.0000 0.57997  0.94453  0.92173  Biso   1.000  H
  C69      1.0000 0.56177  0.04503  0.97521  Biso   1.000  C
  C70      1.0000 0.57267  0.06593  0.01066  Biso   1.000  C
  H67      1.0000 0.62447  0.11073  0.01893  Biso   1.000  H
  O27      1.0000 0.63593  0.89172  0.87729  Biso   1.000  O
  O28      1.0000 0.55602  0.85160  0.82941  Biso   1.000  O
  N14      1.0000 0.63277  0.10613  0.94943  Biso   1.000  N
  H68      1.0000 0.67667  0.15503  0.95563  Biso   1.000  H
  H69      1.0000 0.62417  0.09093  0.92683  Biso   1.000  H
  H70      1.0000 0.60537  0.07903  0.95813  Biso   1.000  H
  C71      1.0000 0.24111  0.21426  0.19313  Biso   1.000  C
  C72      1.0000 0.18278  0.23677  0.21025  Biso   1.000  C
  C73      1.0000 0.19786  0.26707  0.24390  Biso   1.000  C
  H71      1.0000 0.24663  0.27787  0.25507  Biso   1.000  H
  C74      1.0000 0.22843  0.37837  0.30855  Biso   1.000  C
  C75      1.0000 0.23933  0.39927  0.34400  Biso   1.000  C
  H72      1.0000 0.29113  0.44407  0.35227  Biso   1.000  H
  O29      1.0000 0.30259  0.22506  0.21063  Biso   1.000  O
  O30      1.0000 0.22268  0.18494  0.16275  Biso   1.000  O
  N15      1.0000 0.29943  0.43947  0.28277  Biso   1.000  N
  H73      1.0000 0.34333  0.48837  0.28897  Biso   1.000  H
  H74      1.0000 0.29083  0.42427  0.26017  Biso   1.000  H
  H75      1.0000 0.27203  0.41237  0.29147  Biso   1.000  H
  C76      1.0000 0.63981  0.09222  0.52646  Biso   1.000  C
  C77      1.0000 0.72065  0.15055  0.54358  Biso   1.000  C
  C78      1.0000 0.73587  0.13547  0.57723  Biso   1.000  C
  H76      1.0000 0.69790  0.08670  0.58840  Biso   1.000  H
  C79      1.0000 0.81660  0.10490  0.64188  Biso   1.000  C
  C80      1.0000 0.82660  0.09400  0.67733  Biso   1.000  C
  H77      1.0000 0.81960  0.04220  0.68560  Biso   1.000  H
  O31      1.0000 0.58913  0.03074  0.54396  Biso   1.000  O
  O32      1.0000 0.62892  0.11065  0.49608  Biso   1.000  O
  N16      1.0000 0.80670  0.03390  0.61610  Biso   1.000  N
  H78      1.0000 0.81170  0.99000  0.62230  Biso   1.000  H
  H79      1.0000 0.80010  0.04250  0.59350  Biso   1.000  H
  H80      1.0000 0.80700  0.06130  0.62480  Biso   1.000  H
  C81      1.0000 0.30648  0.42555  0.85979  Biso   1.000  C
  C82      1.0000 0.38732  0.48388  0.87691  Biso   1.000  C
  C83      1.0000 0.40254  0.46880  0.91056  Biso   1.000  C
  H81      1.0000 0.36457  0.42003  0.92173  Biso   1.000  H
  C84      1.0000 0.48327  0.43823  0.97521  Biso   1.000  C
  C85      1.0000 0.49327  0.42733  0.01066  Biso   1.000  C
  H82      1.0000 0.48627  0.37553  0.01893  Biso   1.000  H
  O33      1.0000 0.25580  0.36407  0.87729  Biso   1.000  O
  O34      1.0000 0.29559  0.44398  0.82941  Biso   1.000  O
  N17      1.0000 0.47337  0.36723  0.94943  Biso   1.000  N
  H83      1.0000 0.47837  0.32333  0.95563  Biso   1.000  H
  H84      1.0000 0.46677  0.37583  0.92683  Biso   1.000  H
  H85      1.0000 0.47367  0.39463  0.95813  Biso   1.000  H
  C86      1.0000 0.97314  0.75889  0.19313  Biso   1.000  C
  C87      1.0000 0.05398  0.81722  0.21025  Biso   1.000  C
  C88      1.0000 0.06920  0.80214  0.24390  Biso   1.000  C
  H86      1.0000 0.03123  0.75337  0.25507  Biso   1.000  H
  C89      1.0000 0.14993  0.77157  0.30855  Biso   1.000  C
  C90      1.0000 0.15993  0.76067  0.34400  Biso   1.000  C
  H87      1.0000 0.15293  0.70887  0.35227  Biso   1.000  H
  O35      1.0000 0.92246  0.69741  0.21063  Biso   1.000  O
  O36      1.0000 0.96225  0.77732  0.16275  Biso   1.000  O
  N18      1.0000 0.14003  0.70057  0.28277  Biso   1.000  N
  H88      1.0000 0.14503  0.65667  0.28897  Biso   1.000  H
  H89      1.0000 0.13343  0.70917  0.26017  Biso   1.000  H
  H90      1.0000 0.14033  0.72797  0.29147  Biso   1.000  H
  C91      1.0000 0.63981  0.54759  0.52646  Biso   1.000  C
  C92      1.0000 0.72065  0.57010  0.54358  Biso   1.000  C
  C93      1.0000 0.73587  0.60040  0.57723  Biso   1.000  C
  H91      1.0000 0.69790  0.61120  0.58840  Biso   1.000  H
  C94      1.0000 0.81660  0.71170  0.64188  Biso   1.000  C
  C95      1.0000 0.82660  0.73260  0.67733  Biso   1.000  C
  H92      1.0000 0.81960  0.77740  0.68560  Biso   1.000  H
  O37      1.0000 0.58913  0.55839  0.54396  Biso   1.000  O
  O38      1.0000 0.62892  0.51827  0.49608  Biso   1.000  O
  N19      1.0000 0.80670  0.77280  0.61610  Biso   1.000  N
  H93      1.0000 0.81170  0.82170  0.62230  Biso   1.000  H
  H94      1.0000 0.80010  0.75760  0.59350  Biso   1.000  H
  H95      1.0000 0.80700  0.74570  0.62480  Biso   1.000  H
  C96      1.0000 0.30648  0.88092  0.85979  Biso   1.000  C
  C97      1.0000 0.38732  0.90343  0.87691  Biso   1.000  C
  C98      1.0000 0.40254  0.93373  0.91056  Biso   1.000  C
  H96      1.0000 0.36457  0.94453  0.92173  Biso   1.000  H
  C99      1.0000 0.48327  0.04503  0.97521  Biso   1.000  C
  C100     1.0000 0.49327  0.06593  0.01066  Biso   1.000  C
  H97      1.0000 0.48627  0.11073  0.01893  Biso   1.000  H
  O39      1.0000 0.25580  0.89172  0.87729  Biso   1.000  O
  O40      1.0000 0.29559  0.85160  0.82941  Biso   1.000  O
  N20      1.0000 0.47337  0.10613  0.94943  Biso   1.000  N
  H98      1.0000 0.47837  0.15503  0.95563  Biso   1.000  H
  H99      1.0000 0.46677  0.09093  0.92683  Biso   1.000  H
  H100     1.0000 0.47367  0.07903  0.95813  Biso   1.000  H
  C101     1.0000 0.97314  0.21426  0.19313  Biso   1.000  C
  C102     1.0000 0.05398  0.23677  0.21025  Biso   1.000  C
  C103     1.0000 0.06920  0.26707  0.24390  Biso   1.000  C
  H101     1.0000 0.03123  0.27787  0.25507  Biso   1.000  H
  C104     1.0000 0.14993  0.37837  0.30855  Biso   1.000  C
  C105     1.0000 0.15993  0.39927  0.34400  Biso   1.000  C
  H102     1.0000 0.15293  0.44407  0.35227  Biso   1.000  H
  O41      1.0000 0.92246  0.22506  0.21063  Biso   1.000  O
  O42      1.0000 0.96225  0.18494  0.16275  Biso   1.000  O
  N21      1.0000 0.14003  0.43947  0.28277  Biso   1.000  N
  H103     1.0000 0.14503  0.48837  0.28897  Biso   1.000  H
  H104     1.0000 0.13343  0.42427  0.26017  Biso   1.000  H
  H105     1.0000 0.14033  0.41237  0.29147  Biso   1.000  H
  C106     1.0000 0.45241  0.09222  0.52646  Biso   1.000  C
  C107     1.0000 0.42990  0.15055  0.54358  Biso   1.000  C
  C108     1.0000 0.39960  0.13547  0.57723  Biso   1.000  C
  H106     1.0000 0.38880  0.08670  0.58840  Biso   1.000  H
  C109     1.0000 0.28830  0.10490  0.64188  Biso   1.000  C
  C110     1.0000 0.26740  0.09400  0.67733  Biso   1.000  C
  H107     1.0000 0.22260  0.04220  0.68560  Biso   1.000  H
  O43      1.0000 0.44161  0.03074  0.54396  Biso   1.000  O
  O44      1.0000 0.48173  0.11065  0.49608  Biso   1.000  O
  N22      1.0000 0.22720  0.03390  0.61610  Biso   1.000  N
  H108     1.0000 0.17830  0.99000  0.62230  Biso   1.000  H
  H109     1.0000 0.24240  0.04250  0.59350  Biso   1.000  H
  H110     1.0000 0.25430  0.06130  0.62480  Biso   1.000  H
  C111     1.0000 0.11908  0.42555  0.85979  Biso   1.000  C
  C112     1.0000 0.09657  0.48388  0.87691  Biso   1.000  C
  C113     1.0000 0.06627  0.46880  0.91056  Biso   1.000  C
  H111     1.0000 0.05547  0.42003  0.92173  Biso   1.000  H
  C114     1.0000 0.95497  0.43823  0.97521  Biso   1.000  C
  C115     1.0000 0.93407  0.42733  0.01066  Biso   1.000  C
  H112     1.0000 0.88927  0.37553  0.01893  Biso   1.000  H
  O45      1.0000 0.10828  0.36407  0.87729  Biso   1.000  O
  O46      1.0000 0.14840  0.44398  0.82941  Biso   1.000  O
  N23      1.0000 0.89387  0.36723  0.94943  Biso   1.000  N
  H113     1.0000 0.84497  0.32333  0.95563  Biso   1.000  H
  H114     1.0000 0.90907  0.37583  0.92683  Biso   1.000  H
  H115     1.0000 0.92097  0.39463  0.95813  Biso   1.000  H
  C116     1.0000 0.78574  0.75889  0.19313  Biso   1.000  C
  C117     1.0000 0.76323  0.81722  0.21025  Biso   1.000  C
  C118     1.0000 0.73293  0.80214  0.24390  Biso   1.000  C
  H116     1.0000 0.72213  0.75337  0.25507  Biso   1.000  H
  C119     1.0000 0.62163  0.77157  0.30855  Biso   1.000  C
  C120     1.0000 0.60073  0.76067  0.34400  Biso   1.000  C
  H117     1.0000 0.55593  0.70887  0.35227  Biso   1.000  H
  O47      1.0000 0.77494  0.69741  0.21063  Biso   1.000  O
  O48      1.0000 0.81506  0.77732  0.16275  Biso   1.000  O
  N24      1.0000 0.56053  0.70057  0.28277  Biso   1.000  N
  H118     1.0000 0.51163  0.65667  0.28897  Biso   1.000  H
  H119     1.0000 0.57573  0.70917  0.26017  Biso   1.000  H
  H120     1.0000 0.58763  0.72797  0.29147  Biso   1.000  H
  C121     1.0000 0.90778  0.36019  0.52646  Biso   1.000  C
  C122     1.0000 0.84945  0.27935  0.54358  Biso   1.000  C
  C123     1.0000 0.86453  0.26413  0.57723  Biso   1.000  C
  H121     1.0000 0.91330  0.30210  0.58840  Biso   1.000  H
  C124     1.0000 0.89510  0.18340  0.64188  Biso   1.000  C
  C125     1.0000 0.90600  0.17340  0.67733  Biso   1.000  C
  H122     1.0000 0.95780  0.18040  0.68560  Biso   1.000  H
  O49      1.0000 0.96926  0.41087  0.54396  Biso   1.000  O
  O50      1.0000 0.88935  0.37108  0.49608  Biso   1.000  O
  N25      1.0000 0.96610  0.19330  0.61610  Biso   1.000  N
  H123     1.0000 0.01000  0.18830  0.62230  Biso   1.000  H
  H124     1.0000 0.95750  0.19990  0.59350  Biso   1.000  H
  H125     1.0000 0.93870  0.19300  0.62480  Biso   1.000  H
  C126     1.0000 0.57445  0.69352  0.85979  Biso   1.000  C
  C127     1.0000 0.51612  0.61268  0.87691  Biso   1.000  C
  C128     1.0000 0.53120  0.59746  0.91056  Biso   1.000  C
  H126     1.0000 0.57997  0.63543  0.92173  Biso   1.000  H
  C129     1.0000 0.56177  0.51673  0.97521  Biso   1.000  C
  C130     1.0000 0.57267  0.50673  0.01066  Biso   1.000  C
  H127     1.0000 0.62447  0.51373  0.01893  Biso   1.000  H
  O51      1.0000 0.63593  0.74420  0.87729  Biso   1.000  O
  O52      1.0000 0.55602  0.70441  0.82941  Biso   1.000  O
  N26      1.0000 0.63277  0.52663  0.94943  Biso   1.000  N
  H128     1.0000 0.67667  0.52163  0.95563  Biso   1.000  H
  H129     1.0000 0.62417  0.53323  0.92683  Biso   1.000  H
  H130     1.0000 0.60537  0.52633  0.95813  Biso   1.000  H
  C131     1.0000 0.24111  0.02686  0.19313  Biso   1.000  C
  C132     1.0000 0.18278  0.94602  0.21025  Biso   1.000  C
  C133     1.0000 0.19786  0.93080  0.24390  Biso   1.000  C
  H131     1.0000 0.24663  0.96877  0.25507  Biso   1.000  H
  C134     1.0000 0.22843  0.85007  0.30855  Biso   1.000  C
  C135     1.0000 0.23933  0.84007  0.34400  Biso   1.000  C
  H132     1.0000 0.29113  0.84707  0.35227  Biso   1.000  H
  O53      1.0000 0.30259  0.07754  0.21063  Biso   1.000  O
  O54      1.0000 0.22268  0.03775  0.16275  Biso   1.000  O
  N27      1.0000 0.29943  0.85997  0.28277  Biso   1.000  N
  H133     1.0000 0.34333  0.85497  0.28897  Biso   1.000  H
  H134     1.0000 0.29083  0.86657  0.26017  Biso   1.000  H
  H135     1.0000 0.27203  0.85967  0.29147  Biso   1.000  H
  C136     1.0000 0.54759  0.63981  0.47354  Biso   1.000  C
  C137     1.0000 0.57010  0.72065  0.45642  Biso   1.000  C
  C138     1.0000 0.60040  0.73587  0.42277  Biso   1.000  C
  H136     1.0000 0.61120  0.69790  0.41160  Biso   1.000  H
  C139     1.0000 0.71170  0.81660  0.35812  Biso   1.000  C
  C140     1.0000 0.73260  0.82660  0.32267  Biso   1.000  C
  H137     1.0000 0.77740  0.81960  0.31440  Biso   1.000  H
  O55      1.0000 0.55839  0.58913  0.45604  Biso   1.000  O
  O56      1.0000 0.51827  0.62892  0.50392  Biso   1.000  O
  N28      1.0000 0.77280  0.80670  0.38390  Biso   1.000  N
  H138     1.0000 0.82170  0.81170  0.37770  Biso   1.000  H
  H139     1.0000 0.75760  0.80010  0.40650  Biso   1.000  H
  H140     1.0000 0.74570  0.80700  0.37520  Biso   1.000  H
  C141     1.0000 0.21426  0.97314  0.80687  Biso   1.000  C
  C142     1.0000 0.23677  0.05398  0.78975  Biso   1.000  C
  C143     1.0000 0.26707  0.06920  0.75610  Biso   1.000  C
  H141     1.0000 0.27787  0.03123  0.74493  Biso   1.000  H
  C144     1.0000 0.37837  0.14993  0.69145  Biso   1.000  C
  C145     1.0000 0.39927  0.15993  0.65600  Biso   1.000  C
  H142     1.0000 0.44407  0.15293  0.64773  Biso   1.000  H
  O57      1.0000 0.22506  0.92246  0.78937  Biso   1.000  O
  O58      1.0000 0.18494  0.96225  0.83725  Biso   1.000  O
  N29      1.0000 0.43947  0.14003  0.71723  Biso   1.000  N
  H143     1.0000 0.48837  0.14503  0.71103  Biso   1.000  H
  H144     1.0000 0.42427  0.13343  0.73983  Biso   1.000  H
  H145     1.0000 0.41237  0.14033  0.70853  Biso   1.000  H
  C146     1.0000 0.88092  0.30648  0.14021  Biso   1.000  C
  C147     1.0000 0.90343  0.38732  0.12309  Biso   1.000  C
  C148     1.0000 0.93373  0.40254  0.08944  Biso   1.000  C
  H146     1.0000 0.94453  0.36457  0.07827  Biso   1.000  H
  C149     1.0000 0.04503  0.48327  0.02479  Biso   1.000  C
  C150     1.0000 0.06593  0.49327  0.98934  Biso   1.000  C
  H147     1.0000 0.11073  0.48627  0.98107  Biso   1.000  H
  O59      1.0000 0.89172  0.25580  0.12271  Biso   1.000  O
  O60      1.0000 0.85160  0.29559  0.17059  Biso   1.000  O
  N30      1.0000 0.10613  0.47337  0.05057  Biso   1.000  N
  H148     1.0000 0.15503  0.47837  0.04437  Biso   1.000  H
  H149     1.0000 0.09093  0.46677  0.07317  Biso   1.000  H
  H150     1.0000 0.07903  0.47367  0.04187  Biso   1.000  H
  C151     1.0000 0.09222  0.45241  0.47354  Biso   1.000  C
  C152     1.0000 0.15055  0.42990  0.45642  Biso   1.000  C
  C153     1.0000 0.13547  0.39960  0.42277  Biso   1.000  C
  H151     1.0000 0.08670  0.38880  0.41160  Biso   1.000  H
  C154     1.0000 0.10490  0.28830  0.35812  Biso   1.000  C
  C155     1.0000 0.09400  0.26740  0.32267  Biso   1.000  C
  H152     1.0000 0.04220  0.22260  0.31440  Biso   1.000  H
  O61      1.0000 0.03074  0.44161  0.45604  Biso   1.000  O
  O62      1.0000 0.11065  0.48173  0.50392  Biso   1.000  O
  N31      1.0000 0.03390  0.22720  0.38390  Biso   1.000  N
  H153     1.0000 0.99000  0.17830  0.37770  Biso   1.000  H
  H154     1.0000 0.04250  0.24240  0.40650  Biso   1.000  H
  H155     1.0000 0.06130  0.25430  0.37520  Biso   1.000  H
  C156     1.0000 0.75889  0.78574  0.80687  Biso   1.000  C
  C157     1.0000 0.81722  0.76323  0.78975  Biso   1.000  C
  C158     1.0000 0.80214  0.73293  0.75610  Biso   1.000  C
  H156     1.0000 0.75337  0.72213  0.74493  Biso   1.000  H
  C159     1.0000 0.77157  0.62163  0.69145  Biso   1.000  C
  C160     1.0000 0.76067  0.60073  0.65600  Biso   1.000  C
  H157     1.0000 0.70887  0.55593  0.64773  Biso   1.000  H
  O63      1.0000 0.69741  0.77494  0.78937  Biso   1.000  O
  O64      1.0000 0.77732  0.81506  0.83725  Biso   1.000  O
  N32      1.0000 0.70057  0.56053  0.71723  Biso   1.000  N
  H158     1.0000 0.65667  0.51163  0.71103  Biso   1.000  H
  H159     1.0000 0.70917  0.57573  0.73983  Biso   1.000  H
  H160     1.0000 0.72797  0.58763  0.70853  Biso   1.000  H
  C161     1.0000 0.42555  0.11908  0.14021  Biso   1.000  C
  C162     1.0000 0.48388  0.09657  0.12309  Biso   1.000  C
  C163     1.0000 0.46880  0.06627  0.08944  Biso   1.000  C
  H161     1.0000 0.42003  0.05547  0.07827  Biso   1.000  H
  C164     1.0000 0.43823  0.95497  0.02479  Biso   1.000  C
  C165     1.0000 0.42733  0.93407  0.98934  Biso   1.000  C
  H162     1.0000 0.37553  0.88927  0.98107  Biso   1.000  H
  O65      1.0000 0.36407  0.10828  0.12271  Biso   1.000  O
  O66      1.0000 0.44398  0.14840  0.17059  Biso   1.000  O
  N33      1.0000 0.36723  0.89387  0.05057  Biso   1.000  N
  H163     1.0000 0.32333  0.84497  0.04437  Biso   1.000  H
  H164     1.0000 0.37583  0.90907  0.07317  Biso   1.000  H
  H165     1.0000 0.39463  0.92097  0.04187  Biso   1.000  H
  C166     1.0000 0.36019  0.90778  0.47354  Biso   1.000  C
  C167     1.0000 0.27935  0.84945  0.45642  Biso   1.000  C
  C168     1.0000 0.26413  0.86453  0.42277  Biso   1.000  C
  H166     1.0000 0.30210  0.91330  0.41160  Biso   1.000  H
  C169     1.0000 0.18340  0.89510  0.35812  Biso   1.000  C
  C170     1.0000 0.17340  0.90600  0.32267  Biso   1.000  C
  H167     1.0000 0.18040  0.95780  0.31440  Biso   1.000  H
  O67      1.0000 0.41087  0.96926  0.45604  Biso   1.000  O
  O68      1.0000 0.37108  0.88935  0.50392  Biso   1.000  O
  N34      1.0000 0.19330  0.96610  0.38390  Biso   1.000  N
  H168     1.0000 0.18830  0.01000  0.37770  Biso   1.000  H
  H169     1.0000 0.19990  0.95750  0.40650  Biso   1.000  H
  H170     1.0000 0.19300  0.93870  0.37520  Biso   1.000  H
  C171     1.0000 0.02686  0.24111  0.80687  Biso   1.000  C
  C172     1.0000 0.94602  0.18278  0.78975  Biso   1.000  C
  C173     1.0000 0.93080  0.19786  0.75610  Biso   1.000  C
  H171     1.0000 0.96877  0.24663  0.74493  Biso   1.000  H
  C174     1.0000 0.85007  0.22843  0.69145  Biso   1.000  C
  C175     1.0000 0.84007  0.23933  0.65600  Biso   1.000  C
  H172     1.0000 0.84707  0.29113  0.64773  Biso   1.000  H
  O69      1.0000 0.07754  0.30259  0.78937  Biso   1.000  O
  O70      1.0000 0.03775  0.22268  0.83725  Biso   1.000  O
  N35      1.0000 0.85997  0.29943  0.71723  Biso   1.000  N
  H173     1.0000 0.85497  0.34333  0.71103  Biso   1.000  H
  H174     1.0000 0.86657  0.29083  0.73983  Biso   1.000  H
  H175     1.0000 0.85967  0.27203  0.70853  Biso   1.000  H
  C176     1.0000 0.69352  0.57445  0.14021  Biso   1.000  C
  C177     1.0000 0.61268  0.51612  0.12309  Biso   1.000  C
  C178     1.0000 0.59746  0.53120  0.08944  Biso   1.000  C
  H176     1.0000 0.63543  0.57997  0.07827  Biso   1.000  H
  C179     1.0000 0.51673  0.56177  0.02479  Biso   1.000  C
  C180     1.0000 0.50673  0.57267  0.98934  Biso   1.000  C
  H177     1.0000 0.51373  0.62447  0.98107  Biso   1.000  H
  O71      1.0000 0.74420  0.63593  0.12271  Biso   1.000  O
  O72      1.0000 0.70441  0.55602  0.17059  Biso   1.000  O
  N36      1.0000 0.52663  0.63277  0.05057  Biso   1.000  N
  H178     1.0000 0.52163  0.67667  0.04437  Biso   1.000  H
  H179     1.0000 0.53323  0.62417  0.07317  Biso   1.000  H
  H180     1.0000 0.52633  0.60537  0.04187  Biso   1.000  H
  C181     1.0000 0.22260  0.44520  0.47340  Biso   1.000  C
  H181     1.0000 0.23275  0.46550  0.49610  Biso   1.000  H
  C182     1.0000 0.19250  0.38500  0.40543  Biso   1.000  C
  C183     1.0000 0.17790  0.35580  0.36822  Biso   1.000  C
  C184     1.0000 0.88927  0.77853  0.80673  Biso   1.000  C
  H182     1.0000 0.89942  0.79883  0.82943  Biso   1.000  H
  C185     1.0000 0.85917  0.71833  0.73876  Biso   1.000  C
  C186     1.0000 0.84457  0.68913  0.70155  Biso   1.000  C
  C187     1.0000 0.55593  0.11187  0.14007  Biso   1.000  C
  H183     1.0000 0.56608  0.13217  0.16277  Biso   1.000  H
  C188     1.0000 0.52583  0.05167  0.07210  Biso   1.000  C
  C189     1.0000 0.51123  0.02247  0.03489  Biso   1.000  C
  C190     1.0000 0.55480  0.77740  0.47340  Biso   1.000  C
  H184     1.0000 0.53450  0.76725  0.49610  Biso   1.000  H
  C191     1.0000 0.61500  0.80750  0.40543  Biso   1.000  C
  C192     1.0000 0.64420  0.82210  0.36822  Biso   1.000  C
  C193     1.0000 0.22147  0.11073  0.80673  Biso   1.000  C
  H185     1.0000 0.20117  0.10058  0.82943  Biso   1.000  H
  C194     1.0000 0.28167  0.14083  0.73876  Biso   1.000  C
  C195     1.0000 0.31087  0.15543  0.70155  Biso   1.000  C
  C196     1.0000 0.88813  0.44407  0.14007  Biso   1.000  C
  H186     1.0000 0.86783  0.43392  0.16277  Biso   1.000  H
  C197     1.0000 0.94833  0.47417  0.07210  Biso   1.000  C
  C198     1.0000 0.97753  0.48877  0.03489  Biso   1.000  C
  C199     1.0000 0.22260  0.77740  0.47340  Biso   1.000  C
  H187     1.0000 0.23275  0.76725  0.49610  Biso   1.000  H
  C200     1.0000 0.19250  0.80750  0.40543  Biso   1.000  C
  C201     1.0000 0.17790  0.82210  0.36822  Biso   1.000  C
  C202     1.0000 0.88927  0.11073  0.80673  Biso   1.000  C
  H188     1.0000 0.89942  0.10058  0.82943  Biso   1.000  H
  C203     1.0000 0.85917  0.14083  0.73876  Biso   1.000  C
  C204     1.0000 0.84457  0.15543  0.70155  Biso   1.000  C
  C205     1.0000 0.55593  0.44407  0.14007  Biso   1.000  C
  H189     1.0000 0.56608  0.43392  0.16277  Biso   1.000  H
  C206     1.0000 0.52583  0.47417  0.07210  Biso   1.000  C
  C207     1.0000 0.51123  0.48877  0.03489  Biso   1.000  C
  C208     1.0000 0.44520  0.22260  0.52660  Biso   1.000  C
  H190     1.0000 0.46550  0.23275  0.50390  Biso   1.000  H
  C209     1.0000 0.38500  0.19250  0.59457  Biso   1.000  C
  C210     1.0000 0.35580  0.17790  0.63178  Biso   1.000  C
  C211     1.0000 0.11187  0.55593  0.85993  Biso   1.000  C
  H191     1.0000 0.13217  0.56608  0.83723  Biso   1.000  H
  C212     1.0000 0.05167  0.52583  0.92790  Biso   1.000  C
  C213     1.0000 0.02247  0.51123  0.96511  Biso   1.000  C
  C214     1.0000 0.77853  0.88927  0.19327  Biso   1.000  C
  H192     1.0000 0.79883  0.89942  0.17057  Biso   1.000  H
  C215     1.0000 0.71833  0.85917  0.26124  Biso   1.000  C
  C216     1.0000 0.68913  0.84457  0.29845  Biso   1.000  C
  C217     1.0000 0.77740  0.55480  0.52660  Biso   1.000  C
  H193     1.0000 0.76725  0.53450  0.50390  Biso   1.000  H
  C218     1.0000 0.80750  0.61500  0.59457  Biso   1.000  C
  C219     1.0000 0.82210  0.64420  0.63178  Biso   1.000  C
  C220     1.0000 0.44407  0.88813  0.85993  Biso   1.000  C
  H194     1.0000 0.43392  0.86783  0.83723  Biso   1.000  H
  C221     1.0000 0.47417  0.94833  0.92790  Biso   1.000  C
  C222     1.0000 0.48877  0.97753  0.96511  Biso   1.000  C
  C223     1.0000 0.11073  0.22147  0.19327  Biso   1.000  C
  H195     1.0000 0.10058  0.20117  0.17057  Biso   1.000  H
  C224     1.0000 0.14083  0.28167  0.26124  Biso   1.000  C
  C225     1.0000 0.15543  0.31087  0.29845  Biso   1.000  C
  C226     1.0000 0.77740  0.22260  0.52660  Biso   1.000  C
  H196     1.0000 0.76725  0.23275  0.50390  Biso   1.000  H
  C227     1.0000 0.80750  0.19250  0.59457  Biso   1.000  C
  C228     1.0000 0.82210  0.17790  0.63178  Biso   1.000  C
  C229     1.0000 0.44407  0.55593  0.85993  Biso   1.000  C
  H197     1.0000 0.43392  0.56608  0.83723  Biso   1.000  H
  C230     1.0000 0.47417  0.52583  0.92790  Biso   1.000  C
  C231     1.0000 0.48877  0.51123  0.96511  Biso   1.000  C
  C232     1.0000 0.11073  0.88927  0.19327  Biso   1.000  C
  H198     1.0000 0.10058  0.89942  0.17057  Biso   1.000  H
  C233     1.0000 0.14083  0.85917  0.26124  Biso   1.000  C
  C234     1.0000 0.15543  0.84457  0.29845  Biso   1.000  C
  Cu1      1.0000 0.52348  0.47652  0.47162  Biso   1.000  Cu
  Cu2      1.0000 0.19015  0.80985  0.80495  Biso   1.000  Cu
  Cu3      1.0000 0.85682  0.14318  0.13829  Biso   1.000  Cu
  Cu4      1.0000 0.52348  0.04696  0.47162  Biso   1.000  Cu
  Cu5      1.0000 0.19015  0.38030  0.80495  Biso   1.000  Cu
  Cu6      1.0000 0.85682  0.71363  0.13829  Biso   1.000  Cu
  Cu7      1.0000 0.95304  0.47652  0.47162  Biso   1.000  Cu
  Cu8      1.0000 0.61970  0.80985  0.80495  Biso   1.000  Cu
  Cu9      1.0000 0.28637  0.14318  0.13829  Biso   1.000  Cu
  Cu10     1.0000 0.47652  0.52348  0.52838  Biso   1.000  Cu
  Cu11     1.0000 0.14318  0.85682  0.86171  Biso   1.000  Cu
  Cu12     1.0000 0.80985  0.19015  0.19505  Biso   1.000  Cu
  Cu13     1.0000 0.04696  0.52348  0.52838  Biso   1.000  Cu
  Cu14     1.0000 0.71363  0.85682  0.86171  Biso   1.000  Cu
  Cu15     1.0000 0.38030  0.19015  0.19505  Biso   1.000  Cu
  Cu16     1.0000 0.47652  0.95304  0.52838  Biso   1.000  Cu
  Cu17     1.0000 0.14318  0.28637  0.86171  Biso   1.000  Cu
  Cu18     1.0000 0.80985  0.61970  0.19505  Biso   1.000  Cu
