data_image0
_cell_length_a       16.1326
_cell_length_b       25.4852
_cell_length_c       19.1105
_cell_angle_alpha    90
_cell_angle_beta     90.059
_cell_angle_gamma    90

_symmetry_space_group_name_H-M    "P 1"
_symmetry_int_tables_number       1

loop_
  _symmetry_equiv_pos_as_xyz
  'x, y, z'

loop_
  _atom_site_label
  _atom_site_occupancy
  _atom_site_fract_x
  _atom_site_fract_y
  _atom_site_fract_z
  _atom_site_thermal_displace_type
  _atom_site_B_iso_or_equiv
  _atom_site_type_symbol
  U1       1.0000 0.82961  0.78715  0.42404  Biso   1.000  U
  U2       1.0000 0.01106  0.98084  0.28037  Biso   1.000  U
  U3       1.0000 0.62486  0.97477  0.29312  Biso   1.000  U
  U4       1.0000 0.81134  0.81823  0.09358  Biso   1.000  U
  U5       1.0000 0.69902  0.17584  0.59756  Biso   1.000  U
  U6       1.0000 0.50004  0.01312  0.78181  Biso   1.000  U
  U7       1.0000 0.88660  0.02270  0.80508  Biso   1.000  U
  U8       1.0000 0.67030  0.20919  0.92869  Biso   1.000  U
  Rb1      1.0000 0.83209  0.95227  0.42166  Biso   1.000  Rb
  Rb2      1.0000 0.65694  0.81866  0.26956  Biso   1.000  Rb
  Rb3      1.0000 0.98448  0.82776  0.24948  Biso   1.000  Rb
  Rb4      1.0000 0.64319  0.10305  0.12072  Biso   1.000  Rb
  Rb5      1.0000 0.70319  0.01453  0.66115  Biso   1.000  Rb
  Rb6      1.0000 0.84656  0.17711  0.78042  Biso   1.000  Rb
  Rb7      1.0000 0.52023  0.16831  0.75279  Biso   1.000  Rb
  Rb8      1.0000 0.78190  0.98234  0.01823  Biso   1.000  Rb
  O1       1.0000 0.83120  0.83120  0.35190  Biso   1.000  O
  O2       1.0000 0.92140  0.94000  0.27320  Biso   1.000  O
  O3       1.0000 0.71730  0.93740  0.29380  Biso   1.000  O
  O4       1.0000 0.80440  0.85310  0.17350  Biso   1.000  O
  O5       1.0000 0.58850  0.05460  0.77460  Biso   1.000  O
  O6       1.0000 0.79490  0.06050  0.79910  Biso   1.000  O
  O7       1.0000 0.66710  0.16380  0.86050  Biso   1.000  O
  O8       1.0000 0.98110  0.77980  0.42010  Biso   1.000  O
  O9       1.0000 0.93100  0.84580  0.47800  Biso   1.000  O
  O10      1.0000 0.07410  0.90550  0.34600  Biso   1.000  O
  O11      1.0000 0.00770  0.96590  0.40610  Biso   1.000  O
  O12      1.0000 0.76260  0.85470  0.49670  Biso   1.000  O
  O13      1.0000 0.67950  0.80670  0.43590  Biso   1.000  O
  O14      1.0000 0.55360  0.89700  0.34380  Biso   1.000  O
  O15      1.0000 0.61070  0.95180  0.41780  Biso   1.000  O
  O16      1.0000 0.74090  0.72900  0.35320  Biso   1.000  O
  O17      1.0000 0.87430  0.71860  0.34080  Biso   1.000  O
  O18      1.0000 0.76390  0.74220  0.16070  Biso   1.000  O
  O19      1.0000 0.89880  0.75200  0.15410  Biso   1.000  O
  O20      1.0000 0.91840  0.04320  0.34510  Biso   1.000  O
  O21      1.0000 0.93620  0.05590  0.23130  Biso   1.000  O
  O22      1.0000 0.69210  0.03700  0.37120  Biso   1.000  O
  O23      1.0000 0.70420  0.05430  0.25960  Biso   1.000  O
  O24      1.0000 0.02050  0.98370  0.15030  Biso   1.000  O
  O25      1.0000 0.08310  0.91800  0.20330  Biso   1.000  O
  O26      1.0000 0.96070  0.84490  0.09220  Biso   1.000  O
  O27      1.0000 0.87290  0.89250  0.03320  Biso   1.000  O
  O28      1.0000 0.62670  0.98900  0.16340  Biso   1.000  O
  O29      1.0000 0.57550  0.91470  0.20270  Biso   1.000  O
  O30      1.0000 0.70630  0.88010  0.04640  Biso   1.000  O
  O31      1.0000 0.66090  0.80800  0.09310  Biso   1.000  O
  O32      1.0000 0.54950  0.14920  0.58940  Biso   1.000  O
  O33      1.0000 0.64030  0.10050  0.53640  Biso   1.000  O
  O34      1.0000 0.42700  0.07610  0.70380  Biso   1.000  O
  O35      1.0000 0.50080  0.01370  0.65180  Biso   1.000  O
  O36      1.0000 0.80630  0.11320  0.55760  Biso   1.000  O
  O37      1.0000 0.84960  0.18520  0.60410  Biso   1.000  O
  O38      1.0000 0.94390  0.08010  0.71470  Biso   1.000  O
  O39      1.0000 0.88420  0.00970  0.67660  Biso   1.000  O
  O40      1.0000 0.74090  0.25260  0.66750  Biso   1.000  O
  O41      1.0000 0.61070  0.24210  0.65140  Biso   1.000  O
  O42      1.0000 0.75590  0.26670  0.85610  Biso   1.000  O
  O43      1.0000 0.62270  0.27470  0.84170  Biso   1.000  O
  O44      1.0000 0.58450  0.94350  0.73010  Biso   1.000  O
  O45      1.0000 0.58310  0.94580  0.84510  Biso   1.000  O
  O46      1.0000 0.79870  0.94820  0.76800  Biso   1.000  O
  O47      1.0000 0.81970  0.95880  0.88140  Biso   1.000  O
  O48      1.0000 0.49950  0.02830  0.90890  Biso   1.000  O
  O49      1.0000 0.43480  0.08750  0.84770  Biso   1.000  O
  O50      1.0000 0.52000  0.21320  0.91940  Biso   1.000  O
  O51      1.0000 0.56930  0.15330  0.99070  Biso   1.000  O
  O52      1.0000 0.89600  0.04680  0.93120  Biso   1.000  O
  O53      1.0000 0.95270  0.10030  0.85530  Biso   1.000  O
  O54      1.0000 0.74030  0.14460  0.00630  Biso   1.000  O
  O55      1.0000 0.81980  0.19240  0.93910  Biso   1.000  O
  O56      1.0000 0.72170  0.00870  0.51500  Biso   1.000  O
  O57      1.0000 0.60330  0.72800  0.18390  Biso   1.000  O
  O58      1.0000 0.56400  0.73630  0.34880  Biso   1.000  O
  O59      1.0000 0.03690  0.72720  0.29850  Biso   1.000  O
  O60      1.0000 0.08250  0.76960  0.14010  Biso   1.000  O
  O61      1.0000 0.80560  0.98380  0.15520  Biso   1.000  O
  O62      1.0000 0.64910  0.04240  0.98170  Biso   1.000  O
  C1       1.0000 0.08040  0.84000  0.46940  Biso   1.000  C
  H1       1.0000 0.11690  0.82830  0.43010  Biso   1.000  H
  C2       1.0000 0.08090  0.90090  0.47260  Biso   1.000  C
  H2       1.0000 0.04390  0.91290  0.51130  Biso   1.000  H
  C3       1.0000 0.17110  0.92010  0.48690  Biso   1.000  C
  H3       1.0000 0.20750  0.90980  0.44760  Biso   1.000  H
  H4       1.0000 0.17180  0.95890  0.49040  Biso   1.000  H
  C4       1.0000 0.20440  0.89590  0.55620  Biso   1.000  C
  H5       1.0000 0.26280  0.90680  0.56330  Biso   1.000  H
  H6       1.0000 0.17150  0.90930  0.59610  Biso   1.000  H
  C5       1.0000 0.19950  0.83560  0.55460  Biso   1.000  C
  H7       1.0000 0.23890  0.82200  0.51940  Biso   1.000  H
  H8       1.0000 0.21600  0.82150  0.60090  Biso   1.000  H
  C6       1.0000 0.11200  0.81630  0.53690  Biso   1.000  C
  H9       1.0000 0.11250  0.77760  0.53250  Biso   1.000  H
  H10      1.0000 0.07390  0.82570  0.57550  Biso   1.000  H
  C7       1.0000 0.99080  0.82040  0.45560  Biso   1.000  C
  C8       1.0000 0.05200  0.92490  0.40400  Biso   1.000  C
  C9       1.0000 0.61770  0.86460  0.51760  Biso   1.000  C
  H11      1.0000 0.63480  0.89890  0.53840  Biso   1.000  H
  C10      1.0000 0.54420  0.87430  0.46660  Biso   1.000  C
  H12      1.0000 0.52490  0.84000  0.44700  Biso   1.000  H
  C11      1.0000 0.47470  0.89950  0.50720  Biso   1.000  C
  H13      1.0000 0.49480  0.93290  0.52740  Biso   1.000  H
  H14      1.0000 0.42870  0.90780  0.47470  Biso   1.000  H
  C12      1.0000 0.44250  0.86590  0.56450  Biso   1.000  C
  H15      1.0000 0.41680  0.83390  0.54450  Biso   1.000  H
  H16      1.0000 0.39940  0.88510  0.59090  Biso   1.000  H
  C13      1.0000 0.51290  0.85030  0.61390  Biso   1.000  C
  H17      1.0000 0.49200  0.82370  0.64730  Biso   1.000  H
  H18      1.0000 0.52990  0.88150  0.64130  Biso   1.000  H
  C14      1.0000 0.58880  0.82810  0.57640  Biso   1.000  C
  H19      1.0000 0.57510  0.79330  0.55660  Biso   1.000  H
  H20      1.0000 0.63440  0.82340  0.61050  Biso   1.000  H
  C15      1.0000 0.69040  0.84100  0.48100  Biso   1.000  C
  C16      1.0000 0.57140  0.91060  0.40620  Biso   1.000  C
  C17      1.0000 0.78710  0.66580  0.26790  Biso   1.000  C
  H21      1.0000 0.72910  0.67010  0.25040  Biso   1.000  H
  C18      1.0000 0.84460  0.67250  0.20740  Biso   1.000  C
  H22      1.0000 0.90280  0.66880  0.22480  Biso   1.000  H
  C19      1.0000 0.82750  0.62800  0.15370  Biso   1.000  C
  H23      1.0000 0.77060  0.63220  0.13500  Biso   1.000  H
  H24      1.0000 0.86660  0.63170  0.11400  Biso   1.000  H
  C20      1.0000 0.83600  0.57580  0.18320  Biso   1.000  C
  H25      1.0000 0.89400  0.57020  0.19820  Biso   1.000  H
  H26      1.0000 0.82260  0.54930  0.14700  Biso   1.000  H
  C21      1.0000 0.77780  0.56850  0.24630  Biso   1.000  C
  H27      1.0000 0.71940  0.57030  0.23060  Biso   1.000  H
  H28      1.0000 0.78730  0.53370  0.26780  Biso   1.000  H
  C22      1.0000 0.79470  0.61150  0.29980  Biso   1.000  C
  H29      1.0000 0.75490  0.60820  0.33890  Biso   1.000  H
  H30      1.0000 0.85120  0.60700  0.31910  Biso   1.000  H
  C23      1.0000 0.80210  0.70670  0.32330  Biso   1.000  C
  C24      1.0000 0.83650  0.72470  0.17240  Biso   1.000  C
  C25      1.0000 0.84810  0.11830  0.29000  Biso   1.000  C
  H31      1.0000 0.82420  0.12440  0.24240  Biso   1.000  H
  C26      1.0000 0.77710  0.11280  0.34210  Biso   1.000  C
  H32      1.0000 0.79990  0.10830  0.39040  Biso   1.000  H
  C27      1.0000 0.72110  0.16100  0.33980  Biso   1.000  C
  H33      1.0000 0.69660  0.16490  0.29250  Biso   1.000  H
  H34      1.0000 0.67550  0.15720  0.37400  Biso   1.000  H
  C28      1.0000 0.77280  0.20870  0.35740  Biso   1.000  C
  H35      1.0000 0.79200  0.20590  0.40650  Biso   1.000  H
  H36      1.0000 0.73770  0.24040  0.35370  Biso   1.000  H
  C29      1.0000 0.84780  0.21500  0.30970  Biso   1.000  C
  H37      1.0000 0.82900  0.22240  0.26140  Biso   1.000  H
  H38      1.0000 0.88180  0.24500  0.32580  Biso   1.000  H
  C30      1.0000 0.89950  0.16580  0.31030  Biso   1.000  C
  H39      1.0000 0.92290  0.16040  0.35770  Biso   1.000  H
  H40      1.0000 0.94620  0.16970  0.27720  Biso   1.000  H
  C31      1.0000 0.90190  0.06960  0.28740  Biso   1.000  C
  C32      1.0000 0.72310  0.06470  0.32260  Biso   1.000  C
  C33      1.0000 0.08820  0.92130  0.07740  Biso   1.000  C
  H41      1.0000 0.11150  0.88520  0.08370  Biso   1.000  H
  C34      1.0000 0.01650  0.91820  0.02740  Biso   1.000  C
  H42      1.0000 0.99350  0.95440  0.02180  Biso   1.000  H
  C35      1.0000 0.04180  0.89880  0.95600  Biso   1.000  C
  H43      1.0000 0.99290  0.89790  0.92480  Biso   1.000  H
  H44      1.0000 0.06420  0.86280  0.95980  Biso   1.000  H
  C36      1.0000 0.10990  0.93640  0.92420  Biso   1.000  C
  H45      1.0000 0.12620  0.92380  0.87720  Biso   1.000  H
  H46      1.0000 0.08720  0.97230  0.91940  Biso   1.000  H
  C37      1.0000 0.18630  0.93720  0.97290  Biso   1.000  C
  H47      1.0000 0.22930  0.96070  0.95350  Biso   1.000  H
  H48      1.0000 0.21010  0.90150  0.97680  Biso   1.000  H
  C38      1.0000 0.15780  0.95750  0.04810  Biso   1.000  C
  H49      1.0000 0.20570  0.95750  0.08050  Biso   1.000  H
  H50      1.0000 0.13690  0.99400  0.04430  Biso   1.000  H
  C39      1.0000 0.06070  0.94140  0.14750  Biso   1.000  C
  C40      1.0000 0.94750  0.88320  0.05190  Biso   1.000  C
  C41      1.0000 0.55490  0.93150  0.08130  Biso   1.000  C
  H51      1.0000 0.58890  0.94920  0.04450  Biso   1.000  H
  C42      1.0000 0.55780  0.87220  0.06860  Biso   1.000  C
  H52      1.0000 0.52790  0.85440  0.10790  Biso   1.000  H
  C43      1.0000 0.51630  0.85560  0.99900  Biso   1.000  C
  H53      1.0000 0.51810  0.81700  0.99390  Biso   1.000  H
  H54      1.0000 0.54600  0.87150  0.95900  Biso   1.000  H
  C44      1.0000 0.42410  0.87510  0.00040  Biso   1.000  C
  H55      1.0000 0.39660  0.86580  0.95580  Biso   1.000  H
  H56      1.0000 0.39400  0.85730  0.03880  Biso   1.000  H
  C45      1.0000 0.42000  0.93290  0.01080  Biso   1.000  C
  H57      1.0000 0.36110  0.94350  0.01330  Biso   1.000  H
  H58      1.0000 0.44470  0.95030  0.96950  Biso   1.000  H
  C46      1.0000 0.46430  0.95270  0.07650  Biso   1.000  C
  H59      1.0000 0.43300  0.94140  0.11840  Biso   1.000  H
  H60      1.0000 0.46540  0.99150  0.07590  Biso   1.000  H
  C47      1.0000 0.58880  0.94700  0.15300  Biso   1.000  C
  C48      1.0000 0.64760  0.85300  0.06850  Biso   1.000  C
  C49      1.0000 0.49660  0.07370  0.52600  Biso   1.000  C
  H61      1.0000 0.52000  0.03750  0.52180  Biso   1.000  H
  C50      1.0000 0.42530  0.07220  0.57740  Biso   1.000  C
  H62      1.0000 0.40330  0.10860  0.58310  Biso   1.000  H
  C51      1.0000 0.35570  0.03730  0.54690  Biso   1.000  C
  H63      1.0000 0.37580  0.00070  0.54360  Biso   1.000  H
  H64      1.0000 0.30770  0.03770  0.57910  Biso   1.000  H
  C52      1.0000 0.32830  0.05540  0.47590  Biso   1.000  C
  H65      1.0000 0.30350  0.09080  0.47950  Biso   1.000  H
  H66      1.0000 0.28560  0.03120  0.45740  Biso   1.000  H
  C53      1.0000 0.40370  0.05700  0.42480  Biso   1.000  C
  H67      1.0000 0.42590  0.02110  0.41830  Biso   1.000  H
  H68      1.0000 0.38530  0.07020  0.37850  Biso   1.000  H
  C54      1.0000 0.47020  0.09210  0.45330  Biso   1.000  C
  H69      1.0000 0.44940  0.12850  0.45600  Biso   1.000  H
  H70      1.0000 0.51860  0.09160  0.42150  Biso   1.000  H
  C55      1.0000 0.56590  0.11070  0.55400  Biso   1.000  C
  C56      1.0000 0.45310  0.05350  0.64550  Biso   1.000  C
  C57      1.0000 0.95300  0.12140  0.57830  Biso   1.000  C
  H71      1.0000 0.98600  0.13970  0.61540  Biso   1.000  H
  C58      1.0000 0.95730  0.06340  0.59030  Biso   1.000  C
  H72      1.0000 0.92140  0.04540  0.55500  Biso   1.000  H
  C59      1.0000 0.04730  0.04260  0.58300  Biso   1.000  C
  H73      1.0000 0.08140  0.05590  0.62220  Biso   1.000  H
  H74      1.0000 0.04710  0.00380  0.58540  Biso   1.000  H
  C60      1.0000 0.08450  0.06000  0.51420  Biso   1.000  C
  H75      1.0000 0.14330  0.04900  0.51260  Biso   1.000  H
  H76      1.0000 0.05500  0.04220  0.47550  Biso   1.000  H
  C61      1.0000 0.07990  0.11610  0.50370  Biso   1.000  C
  H77      1.0000 0.10530  0.12520  0.45810  Biso   1.000  H
  H78      1.0000 0.11170  0.13410  0.54090  Biso   1.000  H
  C62      1.0000 0.98990  0.13520  0.50500  Biso   1.000  C
  H79      1.0000 0.95750  0.11760  0.46760  Biso   1.000  H
  H80      1.0000 0.98770  0.17350  0.49710  Biso   1.000  H
  C63      1.0000 0.86310  0.14130  0.58030  Biso   1.000  C
  C64      1.0000 0.92500  0.05020  0.66480  Biso   1.000  C
  C65      1.0000 0.65440  0.32350  0.70710  Biso   1.000  C
  H81      1.0000 0.59490  0.32590  0.72140  Biso   1.000  H
  C66      1.0000 0.70850  0.33170  0.77120  Biso   1.000  C
  H82      1.0000 0.76760  0.33000  0.75570  Biso   1.000  H
  C67      1.0000 0.69420  0.38470  0.80140  Biso   1.000  C
  H83      1.0000 0.73130  0.38980  0.84210  Biso   1.000  H
  H84      1.0000 0.63630  0.38720  0.81800  Biso   1.000  H
  C68      1.0000 0.71010  0.42780  0.74840  Biso   1.000  C
  H85      1.0000 0.69650  0.46220  0.76950  Biso   1.000  H
  H86      1.0000 0.76960  0.42800  0.73570  Biso   1.000  H
  C69      1.0000 0.65890  0.41990  0.68360  Biso   1.000  C
  H87      1.0000 0.67500  0.44610  0.64780  Biso   1.000  H
  H88      1.0000 0.59960  0.42530  0.69480  Biso   1.000  H
  C70      1.0000 0.67150  0.36460  0.65460  Biso   1.000  C
  H89      1.0000 0.63450  0.35950  0.61380  Biso   1.000  H
  H90      1.0000 0.72940  0.36100  0.63820  Biso   1.000  H
  C71      1.0000 0.66960  0.26960  0.67380  Biso   1.000  C
  C72      1.0000 0.69570  0.28890  0.82610  Biso   1.000  C
  C73      1.0000 0.66680  0.87870  0.79020  Biso   1.000  C
  H91      1.0000 0.69410  0.87590  0.74340  Biso   1.000  H
  C74      1.0000 0.73450  0.88540  0.84660  Biso   1.000  C
  H92      1.0000 0.70720  0.88960  0.89320  Biso   1.000  H
  C75      1.0000 0.78920  0.83830  0.84890  Biso   1.000  C
  H93      1.0000 0.83130  0.84330  0.88600  Biso   1.000  H
  H94      1.0000 0.81870  0.83530  0.80370  Biso   1.000  H
  C76      1.0000 0.74270  0.78770  0.86270  Biso   1.000  C
  H95      1.0000 0.71710  0.78900  0.90970  Biso   1.000  H
  H96      1.0000 0.78170  0.75780  0.86150  Biso   1.000  H
  C77      1.0000 0.67430  0.77990  0.80650  Biso   1.000  C
  H97      1.0000 0.70050  0.77530  0.76010  Biso   1.000  H
  H98      1.0000 0.64250  0.74760  0.81720  Biso   1.000  H
  C78      1.0000 0.61600  0.82610  0.80420  Biso   1.000  C
  H99      1.0000 0.58610  0.82890  0.84930  Biso   1.000  H
  H100     1.0000 0.57460  0.82090  0.76660  Biso   1.000  H
  C79      1.0000 0.60870  0.92440  0.78910  Biso   1.000  C
  C80      1.0000 0.78580  0.93320  0.83210  Biso   1.000  C
  C81      1.0000 0.42050  0.09340  0.97190  Biso   1.000  C
  H101     1.0000 0.45670  0.08130  0.01130  Biso   1.000  H
  C82      1.0000 0.42130  0.15190  0.97190  Biso   1.000  C
  H102     1.0000 0.38630  0.16300  0.93130  Biso   1.000  H
  C83      1.0000 0.38160  0.17550  0.03610  Biso   1.000  C
  H103     1.0000 0.38070  0.21420  0.03120  Biso   1.000  H
  H104     1.0000 0.41560  0.16680  0.07760  Biso   1.000  H
  C84      1.0000 0.29370  0.15600  0.04760  Biso   1.000  C
  H105     1.0000 0.25700  0.16930  0.01010  Biso   1.000  H
  H106     1.0000 0.27250  0.16900  0.09300  Biso   1.000  H
  C85      1.0000 0.29360  0.09570  0.04730  Biso   1.000  C
  H107     1.0000 0.32300  0.08320  0.08960  Biso   1.000  H
  H108     1.0000 0.23550  0.08330  0.05020  Biso   1.000  H
  C86      1.0000 0.33240  0.07210  0.98550  Biso   1.000  C
  H109     1.0000 0.29730  0.07900  0.94400  Biso   1.000  H
  H110     1.0000 0.33530  0.03360  0.99210  Biso   1.000  H
  C87      1.0000 0.45360  0.06960  0.90590  Biso   1.000  C
  C88      1.0000 0.50910  0.17480  0.95810  Biso   1.000  C
  C89      1.0000 0.95840  0.12710  0.97700  Biso   1.000  C
  H111     1.0000 0.97610  0.16110  0.95580  Biso   1.000  H
  C90      1.0000 0.88640  0.13670  0.02510  Biso   1.000  C
  H112     1.0000 0.87170  0.10300  0.04900  Biso   1.000  H
  C91      1.0000 0.91440  0.17850  0.08270  Biso   1.000  C
  H113     1.0000 0.92850  0.21200  0.05940  Biso   1.000  H
  H114     1.0000 0.86780  0.18520  0.11510  Biso   1.000  H
  C92      1.0000 0.98790  0.15940  0.12330  Biso   1.000  C
  H115     1.0000 0.97180  0.12880  0.15200  Biso   1.000  H
  H116     1.0000 0.00730  0.18750  0.15520  Biso   1.000  H
  C93      1.0000 0.06170  0.14310  0.07130  Biso   1.000  C
  H117     1.0000 0.08240  0.17460  0.04660  Biso   1.000  H
  H118     1.0000 0.10820  0.12800  0.09860  Biso   1.000  H
  C94      1.0000 0.03160  0.10350  0.01870  Biso   1.000  C
  H119     1.0000 0.01350  0.07120  0.04300  Biso   1.000  H
  H120     1.0000 0.07720  0.09410  0.98630  Biso   1.000  H
  C95      1.0000 0.93560  0.08800  0.91740  Biso   1.000  C
  C96      1.0000 0.81020  0.15810  0.98900  Biso   1.000  C
  O63      1.0000 0.80990  0.03660  0.13830  Biso   1.000  O
  O64      1.0000 0.53920  0.77040  0.19440  Biso   1.000  O
  O65      1.0000 0.67040  0.04880  0.92600  Biso   1.000  O
  U9       1.0000 0.17039  0.28715  0.57596  Biso   1.000  U
  U10      1.0000 0.98894  0.48084  0.71963  Biso   1.000  U
  U11      1.0000 0.37514  0.47477  0.70688  Biso   1.000  U
  U12      1.0000 0.18866  0.31823  0.90642  Biso   1.000  U
  U13      1.0000 0.30098  0.67584  0.40244  Biso   1.000  U
  U14      1.0000 0.49996  0.51312  0.21819  Biso   1.000  U
  U15      1.0000 0.11340  0.52270  0.19492  Biso   1.000  U
  U16      1.0000 0.32970  0.70919  0.07131  Biso   1.000  U
  Rb9      1.0000 0.16791  0.45227  0.57834  Biso   1.000  Rb
  Rb10     1.0000 0.34306  0.31866  0.73044  Biso   1.000  Rb
  Rb11     1.0000 0.01552  0.32776  0.75052  Biso   1.000  Rb
  Rb12     1.0000 0.35681  0.60305  0.87928  Biso   1.000  Rb
  Rb13     1.0000 0.29681  0.51453  0.33885  Biso   1.000  Rb
  Rb14     1.0000 0.15344  0.67711  0.21958  Biso   1.000  Rb
  Rb15     1.0000 0.47977  0.66831  0.24721  Biso   1.000  Rb
  Rb16     1.0000 0.21810  0.48234  0.98177  Biso   1.000  Rb
  O66      1.0000 0.16880  0.33120  0.64810  Biso   1.000  O
  O67      1.0000 0.07860  0.44000  0.72680  Biso   1.000  O
  O68      1.0000 0.28270  0.43740  0.70620  Biso   1.000  O
  O69      1.0000 0.19560  0.35310  0.82650  Biso   1.000  O
  O70      1.0000 0.41150  0.55460  0.22540  Biso   1.000  O
  O71      1.0000 0.20510  0.56050  0.20090  Biso   1.000  O
  O72      1.0000 0.33290  0.66380  0.13950  Biso   1.000  O
  O73      1.0000 0.01890  0.27980  0.57990  Biso   1.000  O
  O74      1.0000 0.06900  0.34580  0.52200  Biso   1.000  O
  O75      1.0000 0.92590  0.40550  0.65400  Biso   1.000  O
  O76      1.0000 0.99230  0.46590  0.59390  Biso   1.000  O
  O77      1.0000 0.23740  0.35470  0.50330  Biso   1.000  O
  O78      1.0000 0.32050  0.30670  0.56410  Biso   1.000  O
  O79      1.0000 0.44640  0.39700  0.65620  Biso   1.000  O
  O80      1.0000 0.38930  0.45180  0.58220  Biso   1.000  O
  O81      1.0000 0.25910  0.22900  0.64680  Biso   1.000  O
  O82      1.0000 0.12570  0.21860  0.65920  Biso   1.000  O
  O83      1.0000 0.23610  0.24220  0.83930  Biso   1.000  O
  O84      1.0000 0.10120  0.25200  0.84590  Biso   1.000  O
  O85      1.0000 0.08160  0.54320  0.65490  Biso   1.000  O
  O86      1.0000 0.06380  0.55590  0.76870  Biso   1.000  O
  O87      1.0000 0.30790  0.53700  0.62880  Biso   1.000  O
  O88      1.0000 0.29580  0.55430  0.74040  Biso   1.000  O
  O89      1.0000 0.97950  0.48370  0.84970  Biso   1.000  O
  O90      1.0000 0.91690  0.41800  0.79670  Biso   1.000  O
  O91      1.0000 0.03930  0.34490  0.90780  Biso   1.000  O
  O92      1.0000 0.12710  0.39250  0.96680  Biso   1.000  O
  O93      1.0000 0.37330  0.48900  0.83660  Biso   1.000  O
  O94      1.0000 0.42450  0.41470  0.79730  Biso   1.000  O
  O95      1.0000 0.29370  0.38010  0.95360  Biso   1.000  O
  O96      1.0000 0.33910  0.30800  0.90690  Biso   1.000  O
  O97      1.0000 0.45050  0.64920  0.41060  Biso   1.000  O
  O98      1.0000 0.35970  0.60050  0.46360  Biso   1.000  O
  O99      1.0000 0.57300  0.57610  0.29620  Biso   1.000  O
  O100     1.0000 0.49920  0.51370  0.34820  Biso   1.000  O
  O101     1.0000 0.19370  0.61320  0.44240  Biso   1.000  O
  O102     1.0000 0.15040  0.68520  0.39590  Biso   1.000  O
  O103     1.0000 0.05610  0.58010  0.28530  Biso   1.000  O
  O104     1.0000 0.11580  0.50970  0.32340  Biso   1.000  O
  O105     1.0000 0.25910  0.75260  0.33250  Biso   1.000  O
  O106     1.0000 0.38930  0.74210  0.34860  Biso   1.000  O
  O107     1.0000 0.24410  0.76670  0.14390  Biso   1.000  O
  O108     1.0000 0.37730  0.77470  0.15830  Biso   1.000  O
  O109     1.0000 0.41550  0.44350  0.26990  Biso   1.000  O
  O110     1.0000 0.41690  0.44580  0.15490  Biso   1.000  O
  O111     1.0000 0.20130  0.44820  0.23200  Biso   1.000  O
  O112     1.0000 0.18030  0.45880  0.11860  Biso   1.000  O
  O113     1.0000 0.50050  0.52830  0.09110  Biso   1.000  O
  O114     1.0000 0.56520  0.58750  0.15230  Biso   1.000  O
  O115     1.0000 0.48000  0.71320  0.08060  Biso   1.000  O
  O116     1.0000 0.43070  0.65330  0.00930  Biso   1.000  O
  O117     1.0000 0.10400  0.54680  0.06880  Biso   1.000  O
  O118     1.0000 0.04730  0.60030  0.14470  Biso   1.000  O
  O119     1.0000 0.25970  0.64460  0.99370  Biso   1.000  O
  O120     1.0000 0.18020  0.69240  0.06090  Biso   1.000  O
  O121     1.0000 0.27830  0.50870  0.48500  Biso   1.000  O
  O122     1.0000 0.39670  0.22800  0.81610  Biso   1.000  O
  O123     1.0000 0.43600  0.23630  0.65120  Biso   1.000  O
  O124     1.0000 0.96310  0.22720  0.70150  Biso   1.000  O
  O125     1.0000 0.91750  0.26960  0.85990  Biso   1.000  O
  O126     1.0000 0.19440  0.48380  0.84480  Biso   1.000  O
  O127     1.0000 0.35090  0.54240  0.01830  Biso   1.000  O
  C97      1.0000 0.91960  0.34000  0.53060  Biso   1.000  C
  H121     1.0000 0.88310  0.32830  0.56990  Biso   1.000  H
  C98      1.0000 0.91910  0.40090  0.52740  Biso   1.000  C
  H122     1.0000 0.95610  0.41290  0.48870  Biso   1.000  H
  C99      1.0000 0.82890  0.42010  0.51310  Biso   1.000  C
  H123     1.0000 0.79250  0.40980  0.55240  Biso   1.000  H
  H124     1.0000 0.82820  0.45890  0.50960  Biso   1.000  H
  C100     1.0000 0.79560  0.39590  0.44380  Biso   1.000  C
  H125     1.0000 0.73720  0.40680  0.43670  Biso   1.000  H
  H126     1.0000 0.82850  0.40930  0.40390  Biso   1.000  H
  C101     1.0000 0.80050  0.33560  0.44540  Biso   1.000  C
  H127     1.0000 0.76110  0.32200  0.48060  Biso   1.000  H
  H128     1.0000 0.78400  0.32150  0.39910  Biso   1.000  H
  C102     1.0000 0.88800  0.31630  0.46310  Biso   1.000  C
  H129     1.0000 0.88750  0.27760  0.46750  Biso   1.000  H
  H130     1.0000 0.92610  0.32570  0.42450  Biso   1.000  H
  C103     1.0000 0.00920  0.32040  0.54440  Biso   1.000  C
  C104     1.0000 0.94800  0.42490  0.59600  Biso   1.000  C
  C105     1.0000 0.38230  0.36460  0.48240  Biso   1.000  C
  H131     1.0000 0.36520  0.39890  0.46160  Biso   1.000  H
  C106     1.0000 0.45580  0.37430  0.53340  Biso   1.000  C
  H132     1.0000 0.47510  0.34000  0.55300  Biso   1.000  H
  C107     1.0000 0.52530  0.39950  0.49280  Biso   1.000  C
  H133     1.0000 0.50520  0.43290  0.47260  Biso   1.000  H
  H134     1.0000 0.57130  0.40780  0.52530  Biso   1.000  H
  C108     1.0000 0.55750  0.36590  0.43550  Biso   1.000  C
  H135     1.0000 0.58320  0.33390  0.45550  Biso   1.000  H
  H136     1.0000 0.60060  0.38510  0.40910  Biso   1.000  H
  C109     1.0000 0.48710  0.35030  0.38610  Biso   1.000  C
  H137     1.0000 0.50800  0.32370  0.35270  Biso   1.000  H
  H138     1.0000 0.47010  0.38150  0.35870  Biso   1.000  H
  C110     1.0000 0.41120  0.32810  0.42360  Biso   1.000  C
  H139     1.0000 0.42490  0.29330  0.44340  Biso   1.000  H
  H140     1.0000 0.36560  0.32340  0.38950  Biso   1.000  H
  C111     1.0000 0.30960  0.34100  0.51900  Biso   1.000  C
  C112     1.0000 0.42860  0.41060  0.59380  Biso   1.000  C
  C113     1.0000 0.21290  0.16580  0.73210  Biso   1.000  C
  H141     1.0000 0.27090  0.17010  0.74960  Biso   1.000  H
  C114     1.0000 0.15540  0.17250  0.79260  Biso   1.000  C
  H142     1.0000 0.09720  0.16880  0.77520  Biso   1.000  H
  C115     1.0000 0.17250  0.12800  0.84630  Biso   1.000  C
  H143     1.0000 0.22940  0.13220  0.86500  Biso   1.000  H
  H144     1.0000 0.13340  0.13170  0.88600  Biso   1.000  H
  C116     1.0000 0.16400  0.07580  0.81680  Biso   1.000  C
  H145     1.0000 0.10600  0.07020  0.80180  Biso   1.000  H
  H146     1.0000 0.17740  0.04930  0.85300  Biso   1.000  H
  C117     1.0000 0.22220  0.06850  0.75370  Biso   1.000  C
  H147     1.0000 0.28060  0.07030  0.76940  Biso   1.000  H
  H148     1.0000 0.21270  0.03370  0.73220  Biso   1.000  H
  C118     1.0000 0.20530  0.11150  0.70020  Biso   1.000  C
  H149     1.0000 0.24510  0.10820  0.66110  Biso   1.000  H
  H150     1.0000 0.14880  0.10700  0.68090  Biso   1.000  H
  C119     1.0000 0.19790  0.20670  0.67670  Biso   1.000  C
  C120     1.0000 0.16350  0.22470  0.82760  Biso   1.000  C
  C121     1.0000 0.15190  0.61830  0.71000  Biso   1.000  C
  H151     1.0000 0.17580  0.62440  0.75760  Biso   1.000  H
  C122     1.0000 0.22290  0.61280  0.65790  Biso   1.000  C
  H152     1.0000 0.20010  0.60830  0.60960  Biso   1.000  H
  C123     1.0000 0.27890  0.66100  0.66020  Biso   1.000  C
  H153     1.0000 0.30340  0.66490  0.70750  Biso   1.000  H
  H154     1.0000 0.32450  0.65720  0.62600  Biso   1.000  H
  C124     1.0000 0.22720  0.70870  0.64260  Biso   1.000  C
  H155     1.0000 0.20800  0.70590  0.59350  Biso   1.000  H
  H156     1.0000 0.26230  0.74040  0.64630  Biso   1.000  H
  C125     1.0000 0.15220  0.71500  0.69030  Biso   1.000  C
  H157     1.0000 0.17100  0.72240  0.73860  Biso   1.000  H
  H158     1.0000 0.11820  0.74500  0.67420  Biso   1.000  H
  C126     1.0000 0.10050  0.66580  0.68970  Biso   1.000  C
  H159     1.0000 0.07710  0.66040  0.64230  Biso   1.000  H
  H160     1.0000 0.05380  0.66970  0.72280  Biso   1.000  H
  C127     1.0000 0.09810  0.56960  0.71260  Biso   1.000  C
  C128     1.0000 0.27690  0.56470  0.67740  Biso   1.000  C
  C129     1.0000 0.91180  0.42130  0.92260  Biso   1.000  C
  H161     1.0000 0.88850  0.38520  0.91630  Biso   1.000  H
  C130     1.0000 0.98350  0.41820  0.97260  Biso   1.000  C
  H162     1.0000 0.00650  0.45440  0.97820  Biso   1.000  H
  C131     1.0000 0.95820  0.39880  0.04400  Biso   1.000  C
  H163     1.0000 0.00710  0.39790  0.07520  Biso   1.000  H
  H164     1.0000 0.93580  0.36280  0.04020  Biso   1.000  H
  C132     1.0000 0.89010  0.43640  0.07580  Biso   1.000  C
  H165     1.0000 0.87380  0.42380  0.12280  Biso   1.000  H
  H166     1.0000 0.91280  0.47230  0.08060  Biso   1.000  H
  C133     1.0000 0.81370  0.43720  0.02710  Biso   1.000  C
  H167     1.0000 0.77070  0.46070  0.04650  Biso   1.000  H
  H168     1.0000 0.78990  0.40150  0.02320  Biso   1.000  H
  C134     1.0000 0.84220  0.45750  0.95190  Biso   1.000  C
  H169     1.0000 0.79430  0.45750  0.91950  Biso   1.000  H
  H170     1.0000 0.86310  0.49400  0.95570  Biso   1.000  H
  C135     1.0000 0.93930  0.44140  0.85250  Biso   1.000  C
  C136     1.0000 0.05250  0.38320  0.94810  Biso   1.000  C
  C137     1.0000 0.44510  0.43150  0.91870  Biso   1.000  C
  H171     1.0000 0.41110  0.44920  0.95550  Biso   1.000  H
  C138     1.0000 0.44220  0.37220  0.93140  Biso   1.000  C
  H172     1.0000 0.47210  0.35440  0.89210  Biso   1.000  H
  C139     1.0000 0.48370  0.35560  0.00100  Biso   1.000  C
  H173     1.0000 0.48190  0.31700  0.00610  Biso   1.000  H
  H174     1.0000 0.45400  0.37150  0.04100  Biso   1.000  H
  C140     1.0000 0.57590  0.37510  0.99960  Biso   1.000  C
  H175     1.0000 0.60340  0.36580  0.04420  Biso   1.000  H
  H176     1.0000 0.60600  0.35730  0.96120  Biso   1.000  H
  C141     1.0000 0.58000  0.43290  0.98920  Biso   1.000  C
  H177     1.0000 0.63890  0.44350  0.98670  Biso   1.000  H
  H178     1.0000 0.55530  0.45030  0.03050  Biso   1.000  H
  C142     1.0000 0.53570  0.45270  0.92350  Biso   1.000  C
  H179     1.0000 0.56700  0.44140  0.88160  Biso   1.000  H
  H180     1.0000 0.53460  0.49150  0.92410  Biso   1.000  H
  C143     1.0000 0.41120  0.44700  0.84700  Biso   1.000  C
  C144     1.0000 0.35240  0.35300  0.93150  Biso   1.000  C
  C145     1.0000 0.50340  0.57370  0.47400  Biso   1.000  C
  H181     1.0000 0.48000  0.53750  0.47820  Biso   1.000  H
  C146     1.0000 0.57470  0.57220  0.42260  Biso   1.000  C
  H182     1.0000 0.59670  0.60860  0.41690  Biso   1.000  H
  C147     1.0000 0.64430  0.53730  0.45310  Biso   1.000  C
  H183     1.0000 0.62420  0.50070  0.45640  Biso   1.000  H
  H184     1.0000 0.69230  0.53770  0.42090  Biso   1.000  H
  C148     1.0000 0.67170  0.55540  0.52410  Biso   1.000  C
  H185     1.0000 0.69650  0.59080  0.52050  Biso   1.000  H
  H186     1.0000 0.71440  0.53120  0.54260  Biso   1.000  H
  C149     1.0000 0.59630  0.55700  0.57520  Biso   1.000  C
  H187     1.0000 0.57410  0.52110  0.58170  Biso   1.000  H
  H188     1.0000 0.61470  0.57020  0.62150  Biso   1.000  H
  C150     1.0000 0.52980  0.59210  0.54670  Biso   1.000  C
  H189     1.0000 0.55060  0.62850  0.54400  Biso   1.000  H
  H190     1.0000 0.48140  0.59160  0.57850  Biso   1.000  H
  C151     1.0000 0.43410  0.61070  0.44600  Biso   1.000  C
  C152     1.0000 0.54690  0.55350  0.35450  Biso   1.000  C
  C153     1.0000 0.04700  0.62140  0.42170  Biso   1.000  C
  H191     1.0000 0.01400  0.63970  0.38460  Biso   1.000  H
  C154     1.0000 0.04270  0.56340  0.40970  Biso   1.000  C
  H192     1.0000 0.07860  0.54540  0.44500  Biso   1.000  H
  C155     1.0000 0.95270  0.54260  0.41700  Biso   1.000  C
  H193     1.0000 0.91860  0.55590  0.37780  Biso   1.000  H
  H194     1.0000 0.95290  0.50380  0.41460  Biso   1.000  H
  C156     1.0000 0.91550  0.56000  0.48580  Biso   1.000  C
  H195     1.0000 0.85670  0.54900  0.48740  Biso   1.000  H
  H196     1.0000 0.94500  0.54220  0.52450  Biso   1.000  H
  C157     1.0000 0.92010  0.61610  0.49630  Biso   1.000  C
  H197     1.0000 0.89470  0.62520  0.54190  Biso   1.000  H
  H198     1.0000 0.88830  0.63410  0.45910  Biso   1.000  H
  C158     1.0000 0.01010  0.63520  0.49500  Biso   1.000  C
  H199     1.0000 0.04250  0.61760  0.53240  Biso   1.000  H
  H200     1.0000 0.01230  0.67350  0.50290  Biso   1.000  H
  C159     1.0000 0.13690  0.64130  0.41970  Biso   1.000  C
  C160     1.0000 0.07500  0.55020  0.33520  Biso   1.000  C
  C161     1.0000 0.34560  0.82350  0.29290  Biso   1.000  C
  H201     1.0000 0.40510  0.82590  0.27860  Biso   1.000  H
  C162     1.0000 0.29150  0.83170  0.22880  Biso   1.000  C
  H202     1.0000 0.23240  0.83000  0.24430  Biso   1.000  H
  C163     1.0000 0.30580  0.88470  0.19860  Biso   1.000  C
  H203     1.0000 0.26870  0.88980  0.15790  Biso   1.000  H
  H204     1.0000 0.36370  0.88720  0.18200  Biso   1.000  H
  C164     1.0000 0.28990  0.92780  0.25160  Biso   1.000  C
  H205     1.0000 0.30350  0.96220  0.23050  Biso   1.000  H
  H206     1.0000 0.23040  0.92800  0.26430  Biso   1.000  H
  C165     1.0000 0.34110  0.91990  0.31640  Biso   1.000  C
  H207     1.0000 0.32500  0.94610  0.35220  Biso   1.000  H
  H208     1.0000 0.40040  0.92530  0.30520  Biso   1.000  H
  C166     1.0000 0.32850  0.86460  0.34540  Biso   1.000  C
  H209     1.0000 0.36550  0.85950  0.38620  Biso   1.000  H
  H210     1.0000 0.27060  0.86100  0.36180  Biso   1.000  H
  C167     1.0000 0.33040  0.76960  0.32620  Biso   1.000  C
  C168     1.0000 0.30430  0.78890  0.17390  Biso   1.000  C
  C169     1.0000 0.33320  0.37870  0.20980  Biso   1.000  C
  H211     1.0000 0.30590  0.37590  0.25660  Biso   1.000  H
  C170     1.0000 0.26550  0.38540  0.15340  Biso   1.000  C
  H212     1.0000 0.29280  0.38960  0.10680  Biso   1.000  H
  C171     1.0000 0.21080  0.33830  0.15110  Biso   1.000  C
  H213     1.0000 0.16870  0.34330  0.11400  Biso   1.000  H
  H214     1.0000 0.18130  0.33530  0.19630  Biso   1.000  H
  C172     1.0000 0.25730  0.28770  0.13730  Biso   1.000  C
  H215     1.0000 0.28290  0.28900  0.09030  Biso   1.000  H
  H216     1.0000 0.21830  0.25780  0.13850  Biso   1.000  H
  C173     1.0000 0.32570  0.27990  0.19350  Biso   1.000  C
  H217     1.0000 0.29950  0.27530  0.23990  Biso   1.000  H
  H218     1.0000 0.35750  0.24760  0.18280  Biso   1.000  H
  C174     1.0000 0.38400  0.32610  0.19580  Biso   1.000  C
  H219     1.0000 0.41390  0.32890  0.15070  Biso   1.000  H
  H220     1.0000 0.42540  0.32090  0.23340  Biso   1.000  H
  C175     1.0000 0.39130  0.42440  0.21090  Biso   1.000  C
  C176     1.0000 0.21420  0.43320  0.16790  Biso   1.000  C
  C177     1.0000 0.57950  0.59340  0.02810  Biso   1.000  C
  H221     1.0000 0.54330  0.58130  0.98870  Biso   1.000  H
  C178     1.0000 0.57870  0.65190  0.02810  Biso   1.000  C
  H222     1.0000 0.61370  0.66300  0.06870  Biso   1.000  H
  C179     1.0000 0.61840  0.67550  0.96390  Biso   1.000  C
  H223     1.0000 0.61930  0.71420  0.96880  Biso   1.000  H
  H224     1.0000 0.58440  0.66680  0.92240  Biso   1.000  H
  C180     1.0000 0.70630  0.65600  0.95240  Biso   1.000  C
  H225     1.0000 0.74300  0.66930  0.98990  Biso   1.000  H
  H226     1.0000 0.72750  0.66900  0.90700  Biso   1.000  H
  C181     1.0000 0.70640  0.59570  0.95270  Biso   1.000  C
  H227     1.0000 0.67700  0.58320  0.91040  Biso   1.000  H
  H228     1.0000 0.76450  0.58330  0.94980  Biso   1.000  H
  C182     1.0000 0.66760  0.57210  0.01450  Biso   1.000  C
  H229     1.0000 0.70270  0.57900  0.05600  Biso   1.000  H
  H230     1.0000 0.66470  0.53360  0.00790  Biso   1.000  H
  C183     1.0000 0.54640  0.56960  0.09410  Biso   1.000  C
  C184     1.0000 0.49090  0.67480  0.04190  Biso   1.000  C
  C185     1.0000 0.04160  0.62710  0.02300  Biso   1.000  C
  H231     1.0000 0.02390  0.66110  0.04420  Biso   1.000  H
  C186     1.0000 0.11360  0.63670  0.97490  Biso   1.000  C
  H232     1.0000 0.12830  0.60300  0.95100  Biso   1.000  H
  C187     1.0000 0.08560  0.67850  0.91730  Biso   1.000  C
  H233     1.0000 0.07150  0.71200  0.94060  Biso   1.000  H
  H234     1.0000 0.13220  0.68520  0.88490  Biso   1.000  H
  C188     1.0000 0.01210  0.65940  0.87670  Biso   1.000  C
  H235     1.0000 0.02820  0.62880  0.84800  Biso   1.000  H
  H236     1.0000 0.99270  0.68750  0.84480  Biso   1.000  H
  C189     1.0000 0.93830  0.64310  0.92870  Biso   1.000  C
  H237     1.0000 0.91760  0.67460  0.95340  Biso   1.000  H
  H238     1.0000 0.89180  0.62800  0.90140  Biso   1.000  H
  C190     1.0000 0.96840  0.60350  0.98130  Biso   1.000  C
  H239     1.0000 0.98650  0.57120  0.95700  Biso   1.000  H
  H240     1.0000 0.92280  0.59410  0.01370  Biso   1.000  H
  C191     1.0000 0.06440  0.58800  0.08260  Biso   1.000  C
  C192     1.0000 0.18980  0.65810  0.01100  Biso   1.000  C
  O128     1.0000 0.19010  0.53660  0.86170  Biso   1.000  O
  O129     1.0000 0.46080  0.27040  0.80560  Biso   1.000  O
  O130     1.0000 0.32960  0.54880  0.07400  Biso   1.000  O
