data_image0
_cell_length_a       27.574
_cell_length_b       9.776
_cell_length_c       15.557
_cell_angle_alpha    90
_cell_angle_beta     119.48
_cell_angle_gamma    90

_symmetry_space_group_name_H-M    "P 1"
_symmetry_int_tables_number       1

loop_
  _symmetry_equiv_pos_as_xyz
  'x, y, z'

loop_
  _atom_site_label
  _atom_site_occupancy
  _atom_site_fract_x
  _atom_site_fract_y
  _atom_site_fract_z
  _atom_site_thermal_displace_type
  _atom_site_B_iso_or_equiv
  _atom_site_type_symbol
  Co1      1.0000 0.29002  0.63531  0.03208  Biso   1.000  Co
  N1       1.0000 0.48764  0.97560  0.45840  Biso   1.000  N
  O1       1.0000 0.33284  0.73280  0.16420  Biso   1.000  O
  C1       1.0000 0.39100  0.32220  0.02470  Biso   1.000  C
  H1       1.0000 0.40970  0.27820  0.99660  Biso   1.000  H
  O2       1.0000 0.26544  0.89010  0.11470  Biso   1.000  O
  N2       1.0000 0.39010  0.28550  0.10920  Biso   1.000  N
  C2       1.0000 0.31341  0.97930  0.31290  Biso   1.000  C
  H2       1.0000 0.27470  0.97900  0.27930  Biso   1.000  H
  C3       1.0000 0.42857  0.98020  0.41280  Biso   1.000  C
  N3       1.0000 0.33872  0.46890  0.05240  Biso   1.000  N
  C4       1.0000 0.40010  0.05500  0.45030  Biso   1.000  C
  H3       1.0000 0.41960  0.10640  0.50760  Biso   1.000  H
  C5       1.0000 0.39974  0.90640  0.32550  Biso   1.000  C
  H4       1.0000 0.41910  0.85640  0.30130  Biso   1.000  H
  C6       1.0000 0.35890  0.43540  0.99090  Biso   1.000  C
  H5       1.0000 0.35170  0.48320  0.93420  Biso   1.000  H
  C7       1.0000 0.34204  0.90760  0.27500  Biso   1.000  C
  C8       1.0000 0.31108  0.83740  0.17670  Biso   1.000  C
  C9       1.0000 0.35680  0.37370  0.12010  Biso   1.000  C
  C10      1.0000 0.34237  0.05170  0.40100  Biso   1.000  C
  C11      1.0000 0.31104  0.12840  0.44180  Biso   1.000  C
  O3       1.0000 0.26653  0.07670  0.42820  Biso   1.000  O
  O4       1.0000 0.33224  0.23760  0.48670  Biso   1.000  O
  C12      1.0000 0.33940  0.35980  0.19480  Biso   1.000  C
  H6       1.0000 0.37160  0.32710  0.25450  Biso   1.000  H
  H7       1.0000 0.33160  0.45130  0.20880  Biso   1.000  H
  C13      1.0000 0.29290  0.27520  0.17900  Biso   1.000  C
  H8       1.0000 0.29590  0.18780  0.15380  Biso   1.000  H
  H9       1.0000 0.25880  0.31870  0.13220  Biso   1.000  H
  H10      1.0000 0.29320  0.26280  0.24040  Biso   1.000  H
  C14      1.0000 0.40390  0.14440  0.16100  Biso   1.000  C
  C15      1.0000 0.46650  0.12580  0.20270  Biso   1.000  C
  C16      1.0000 0.43950  0.19980  0.17490  Biso   1.000  C
  C17      1.0000 0.50100  0.23560  0.21180  Biso   1.000  C
  H11      1.0000 0.38340  0.07240  0.11410  Biso   1.000  H
  H12      1.0000 0.48410  0.04850  0.25790  Biso   1.000  H
  H13      1.0000 0.43340  0.11220  0.14190  Biso   1.000  H
  H14      1.0000 0.39460  0.14270  0.21340  Biso   1.000  H
  H15      1.0000 0.50820  0.32470  0.20500  Biso   1.000  H
  H16      1.0000 0.43670  0.18320  0.23380  Biso   1.000  H
  H17      1.0000 0.47730  0.09750  0.15660  Biso   1.000  H
  H18      1.0000 0.52080  0.17270  0.19010  Biso   1.000  H
  Co2      1.0000 0.79002  0.13531  0.03208  Biso   1.000  Co
  N4       1.0000 0.98764  0.47560  0.45840  Biso   1.000  N
  O5       1.0000 0.83284  0.23280  0.16420  Biso   1.000  O
  C18      1.0000 0.89100  0.82220  0.02470  Biso   1.000  C
  H19      1.0000 0.90970  0.77820  0.99660  Biso   1.000  H
  O6       1.0000 0.76544  0.39010  0.11470  Biso   1.000  O
  N5       1.0000 0.89010  0.78550  0.10920  Biso   1.000  N
  C19      1.0000 0.81341  0.47930  0.31290  Biso   1.000  C
  H20      1.0000 0.77470  0.47900  0.27930  Biso   1.000  H
  C20      1.0000 0.92857  0.48020  0.41280  Biso   1.000  C
  N6       1.0000 0.83872  0.96890  0.05240  Biso   1.000  N
  C21      1.0000 0.90010  0.55500  0.45030  Biso   1.000  C
  H21      1.0000 0.91960  0.60640  0.50760  Biso   1.000  H
  C22      1.0000 0.89974  0.40640  0.32550  Biso   1.000  C
  H22      1.0000 0.91910  0.35640  0.30130  Biso   1.000  H
  C23      1.0000 0.85890  0.93540  0.99090  Biso   1.000  C
  H23      1.0000 0.85170  0.98320  0.93420  Biso   1.000  H
  C24      1.0000 0.84204  0.40760  0.27500  Biso   1.000  C
  C25      1.0000 0.81108  0.33740  0.17670  Biso   1.000  C
  C26      1.0000 0.85680  0.87370  0.12010  Biso   1.000  C
  C27      1.0000 0.84237  0.55170  0.40100  Biso   1.000  C
  C28      1.0000 0.81104  0.62840  0.44180  Biso   1.000  C
  O7       1.0000 0.76653  0.57670  0.42820  Biso   1.000  O
  O8       1.0000 0.83224  0.73760  0.48670  Biso   1.000  O
  C29      1.0000 0.83940  0.85980  0.19480  Biso   1.000  C
  H24      1.0000 0.87160  0.82710  0.25450  Biso   1.000  H
  H25      1.0000 0.83160  0.95130  0.20880  Biso   1.000  H
  C30      1.0000 0.79290  0.77520  0.17900  Biso   1.000  C
  H26      1.0000 0.79590  0.68780  0.15380  Biso   1.000  H
  H27      1.0000 0.75880  0.81870  0.13220  Biso   1.000  H
  H28      1.0000 0.79320  0.76280  0.24040  Biso   1.000  H
  C31      1.0000 0.90390  0.64440  0.16100  Biso   1.000  C
  C32      1.0000 0.96650  0.62580  0.20270  Biso   1.000  C
  C33      1.0000 0.93950  0.69980  0.17490  Biso   1.000  C
  C34      1.0000 0.00100  0.73560  0.21180  Biso   1.000  C
  H29      1.0000 0.88340  0.57240  0.11410  Biso   1.000  H
  H30      1.0000 0.98410  0.54850  0.25790  Biso   1.000  H
  H31      1.0000 0.93340  0.61220  0.14190  Biso   1.000  H
  H32      1.0000 0.89460  0.64270  0.21340  Biso   1.000  H
  H33      1.0000 0.00820  0.82470  0.20500  Biso   1.000  H
  H34      1.0000 0.93670  0.68320  0.23380  Biso   1.000  H
  H35      1.0000 0.97730  0.59750  0.15660  Biso   1.000  H
  H36      1.0000 0.02080  0.67270  0.19010  Biso   1.000  H
  Co3      1.0000 0.70998  0.63531  0.46792  Biso   1.000  Co
  N7       1.0000 0.51236  0.97560  0.04160  Biso   1.000  N
  O9       1.0000 0.66716  0.73280  0.33580  Biso   1.000  O
  C35      1.0000 0.60900  0.32220  0.47530  Biso   1.000  C
  H37      1.0000 0.59030  0.27820  0.50340  Biso   1.000  H
  O10      1.0000 0.73456  0.89010  0.38530  Biso   1.000  O
  N8       1.0000 0.60990  0.28550  0.39080  Biso   1.000  N
  C36      1.0000 0.68659  0.97930  0.18710  Biso   1.000  C
  H38      1.0000 0.72530  0.97900  0.22070  Biso   1.000  H
  C37      1.0000 0.57143  0.98020  0.08720  Biso   1.000  C
  N9       1.0000 0.66128  0.46890  0.44760  Biso   1.000  N
  C38      1.0000 0.59990  0.05500  0.04970  Biso   1.000  C
  H39      1.0000 0.58040  0.10640  0.99240  Biso   1.000  H
  C39      1.0000 0.60026  0.90640  0.17450  Biso   1.000  C
  H40      1.0000 0.58090  0.85640  0.19870  Biso   1.000  H
  C40      1.0000 0.64110  0.43540  0.50910  Biso   1.000  C
  H41      1.0000 0.64830  0.48320  0.56580  Biso   1.000  H
  C41      1.0000 0.65796  0.90760  0.22500  Biso   1.000  C
  C42      1.0000 0.68892  0.83740  0.32330  Biso   1.000  C
  C43      1.0000 0.64320  0.37370  0.37990  Biso   1.000  C
  C44      1.0000 0.65763  0.05170  0.09900  Biso   1.000  C
  C45      1.0000 0.68896  0.12840  0.05820  Biso   1.000  C
  O11      1.0000 0.73347  0.07670  0.07180  Biso   1.000  O
  O12      1.0000 0.66776  0.23760  0.01330  Biso   1.000  O
  C46      1.0000 0.66060  0.35980  0.30520  Biso   1.000  C
  H42      1.0000 0.62840  0.32710  0.24550  Biso   1.000  H
  H43      1.0000 0.66840  0.45130  0.29120  Biso   1.000  H
  C47      1.0000 0.70710  0.27520  0.32100  Biso   1.000  C
  H44      1.0000 0.70410  0.18780  0.34620  Biso   1.000  H
  H45      1.0000 0.74120  0.31870  0.36780  Biso   1.000  H
  H46      1.0000 0.70680  0.26280  0.25960  Biso   1.000  H
  C48      1.0000 0.59610  0.14440  0.33900  Biso   1.000  C
  C49      1.0000 0.53350  0.12580  0.29730  Biso   1.000  C
  C50      1.0000 0.56050  0.19980  0.32510  Biso   1.000  C
  C51      1.0000 0.49900  0.23560  0.28820  Biso   1.000  C
  H47      1.0000 0.61660  0.07240  0.38590  Biso   1.000  H
  H48      1.0000 0.51590  0.04850  0.24210  Biso   1.000  H
  H49      1.0000 0.56660  0.11220  0.35810  Biso   1.000  H
  H50      1.0000 0.60540  0.14270  0.28660  Biso   1.000  H
  H51      1.0000 0.49180  0.32470  0.29500  Biso   1.000  H
  H52      1.0000 0.56330  0.18320  0.26620  Biso   1.000  H
  H53      1.0000 0.52270  0.09750  0.34340  Biso   1.000  H
  H54      1.0000 0.47920  0.17270  0.30990  Biso   1.000  H
  Co4      1.0000 0.20998  0.13531  0.46792  Biso   1.000  Co
  N10      1.0000 0.01236  0.47560  0.04160  Biso   1.000  N
  O13      1.0000 0.16716  0.23280  0.33580  Biso   1.000  O
  C52      1.0000 0.10900  0.82220  0.47530  Biso   1.000  C
  H55      1.0000 0.09030  0.77820  0.50340  Biso   1.000  H
  O14      1.0000 0.23456  0.39010  0.38530  Biso   1.000  O
  N11      1.0000 0.10990  0.78550  0.39080  Biso   1.000  N
  C53      1.0000 0.18659  0.47930  0.18710  Biso   1.000  C
  H56      1.0000 0.22530  0.47900  0.22070  Biso   1.000  H
  C54      1.0000 0.07143  0.48020  0.08720  Biso   1.000  C
  N12      1.0000 0.16128  0.96890  0.44760  Biso   1.000  N
  C55      1.0000 0.09990  0.55500  0.04970  Biso   1.000  C
  H57      1.0000 0.08040  0.60640  0.99240  Biso   1.000  H
  C56      1.0000 0.10026  0.40640  0.17450  Biso   1.000  C
  H58      1.0000 0.08090  0.35640  0.19870  Biso   1.000  H
  C57      1.0000 0.14110  0.93540  0.50910  Biso   1.000  C
  H59      1.0000 0.14830  0.98320  0.56580  Biso   1.000  H
  C58      1.0000 0.15796  0.40760  0.22500  Biso   1.000  C
  C59      1.0000 0.18892  0.33740  0.32330  Biso   1.000  C
  C60      1.0000 0.14320  0.87370  0.37990  Biso   1.000  C
  C61      1.0000 0.15763  0.55170  0.09900  Biso   1.000  C
  C62      1.0000 0.18896  0.62840  0.05820  Biso   1.000  C
  O15      1.0000 0.23347  0.57670  0.07180  Biso   1.000  O
  O16      1.0000 0.16776  0.73760  0.01330  Biso   1.000  O
  C63      1.0000 0.16060  0.85980  0.30520  Biso   1.000  C
  H60      1.0000 0.12840  0.82710  0.24550  Biso   1.000  H
  H61      1.0000 0.16840  0.95130  0.29120  Biso   1.000  H
  C64      1.0000 0.20710  0.77520  0.32100  Biso   1.000  C
  H62      1.0000 0.20410  0.68780  0.34620  Biso   1.000  H
  H63      1.0000 0.24120  0.81870  0.36780  Biso   1.000  H
  H64      1.0000 0.20680  0.76280  0.25960  Biso   1.000  H
  C65      1.0000 0.09610  0.64440  0.33900  Biso   1.000  C
  C66      1.0000 0.03350  0.62580  0.29730  Biso   1.000  C
  C67      1.0000 0.06050  0.69980  0.32510  Biso   1.000  C
  C68      1.0000 0.99900  0.73560  0.28820  Biso   1.000  C
  H65      1.0000 0.11660  0.57240  0.38590  Biso   1.000  H
  H66      1.0000 0.01590  0.54850  0.24210  Biso   1.000  H
  H67      1.0000 0.06660  0.61220  0.35810  Biso   1.000  H
  H68      1.0000 0.10540  0.64270  0.28660  Biso   1.000  H
  H69      1.0000 0.99180  0.82470  0.29500  Biso   1.000  H
  H70      1.0000 0.06330  0.68320  0.26620  Biso   1.000  H
  H71      1.0000 0.02270  0.59750  0.34340  Biso   1.000  H
  H72      1.0000 0.97920  0.67270  0.30990  Biso   1.000  H
  Co5      1.0000 0.70998  0.36469  0.96792  Biso   1.000  Co
  N13      1.0000 0.51236  0.02440  0.54160  Biso   1.000  N
  O17      1.0000 0.66716  0.26720  0.83580  Biso   1.000  O
  C69      1.0000 0.60900  0.67780  0.97530  Biso   1.000  C
  H73      1.0000 0.59030  0.72180  0.00340  Biso   1.000  H
  O18      1.0000 0.73456  0.10990  0.88530  Biso   1.000  O
  N14      1.0000 0.60990  0.71450  0.89080  Biso   1.000  N
  C70      1.0000 0.68659  0.02070  0.68710  Biso   1.000  C
  H74      1.0000 0.72530  0.02100  0.72070  Biso   1.000  H
  C71      1.0000 0.57143  0.01980  0.58720  Biso   1.000  C
  N15      1.0000 0.66128  0.53110  0.94760  Biso   1.000  N
  C72      1.0000 0.59990  0.94500  0.54970  Biso   1.000  C
  H75      1.0000 0.58040  0.89360  0.49240  Biso   1.000  H
  C73      1.0000 0.60026  0.09360  0.67450  Biso   1.000  C
  H76      1.0000 0.58090  0.14360  0.69870  Biso   1.000  H
  C74      1.0000 0.64110  0.56460  0.00910  Biso   1.000  C
  H77      1.0000 0.64830  0.51680  0.06580  Biso   1.000  H
  C75      1.0000 0.65796  0.09240  0.72500  Biso   1.000  C
  C76      1.0000 0.68892  0.16260  0.82330  Biso   1.000  C
  C77      1.0000 0.64320  0.62630  0.87990  Biso   1.000  C
  C78      1.0000 0.65763  0.94830  0.59900  Biso   1.000  C
  C79      1.0000 0.68896  0.87160  0.55820  Biso   1.000  C
  O19      1.0000 0.73347  0.92330  0.57180  Biso   1.000  O
  O20      1.0000 0.66776  0.76240  0.51330  Biso   1.000  O
  C80      1.0000 0.66060  0.64020  0.80520  Biso   1.000  C
  H78      1.0000 0.62840  0.67290  0.74550  Biso   1.000  H
  H79      1.0000 0.66840  0.54870  0.79120  Biso   1.000  H
  C81      1.0000 0.70710  0.72480  0.82100  Biso   1.000  C
  H80      1.0000 0.70410  0.81220  0.84620  Biso   1.000  H
  H81      1.0000 0.74120  0.68130  0.86780  Biso   1.000  H
  H82      1.0000 0.70680  0.73720  0.75960  Biso   1.000  H
  C82      1.0000 0.59610  0.85560  0.83900  Biso   1.000  C
  C83      1.0000 0.53350  0.87420  0.79730  Biso   1.000  C
  C84      1.0000 0.56050  0.80020  0.82510  Biso   1.000  C
  C85      1.0000 0.49900  0.76440  0.78820  Biso   1.000  C
  H83      1.0000 0.61660  0.92760  0.88590  Biso   1.000  H
  H84      1.0000 0.51590  0.95150  0.74210  Biso   1.000  H
  H85      1.0000 0.56660  0.88780  0.85810  Biso   1.000  H
  H86      1.0000 0.60540  0.85730  0.78660  Biso   1.000  H
  H87      1.0000 0.49180  0.67530  0.79500  Biso   1.000  H
  H88      1.0000 0.56330  0.81680  0.76620  Biso   1.000  H
  H89      1.0000 0.52270  0.90250  0.84340  Biso   1.000  H
  H90      1.0000 0.47920  0.82730  0.80990  Biso   1.000  H
  Co6      1.0000 0.20998  0.86469  0.96792  Biso   1.000  Co
  N16      1.0000 0.01236  0.52440  0.54160  Biso   1.000  N
  O21      1.0000 0.16716  0.76720  0.83580  Biso   1.000  O
  C86      1.0000 0.10900  0.17780  0.97530  Biso   1.000  C
  H91      1.0000 0.09030  0.22180  0.00340  Biso   1.000  H
  O22      1.0000 0.23456  0.60990  0.88530  Biso   1.000  O
  N17      1.0000 0.10990  0.21450  0.89080  Biso   1.000  N
  C87      1.0000 0.18659  0.52070  0.68710  Biso   1.000  C
  H92      1.0000 0.22530  0.52100  0.72070  Biso   1.000  H
  C88      1.0000 0.07143  0.51980  0.58720  Biso   1.000  C
  N18      1.0000 0.16128  0.03110  0.94760  Biso   1.000  N
  C89      1.0000 0.09990  0.44500  0.54970  Biso   1.000  C
  H93      1.0000 0.08040  0.39360  0.49240  Biso   1.000  H
  C90      1.0000 0.10026  0.59360  0.67450  Biso   1.000  C
  H94      1.0000 0.08090  0.64360  0.69870  Biso   1.000  H
  C91      1.0000 0.14110  0.06460  0.00910  Biso   1.000  C
  H95      1.0000 0.14830  0.01680  0.06580  Biso   1.000  H
  C92      1.0000 0.15796  0.59240  0.72500  Biso   1.000  C
  C93      1.0000 0.18892  0.66260  0.82330  Biso   1.000  C
  C94      1.0000 0.14320  0.12630  0.87990  Biso   1.000  C
  C95      1.0000 0.15763  0.44830  0.59900  Biso   1.000  C
  C96      1.0000 0.18896  0.37160  0.55820  Biso   1.000  C
  O23      1.0000 0.23347  0.42330  0.57180  Biso   1.000  O
  O24      1.0000 0.16776  0.26240  0.51330  Biso   1.000  O
  C97      1.0000 0.16060  0.14020  0.80520  Biso   1.000  C
  H96      1.0000 0.12840  0.17290  0.74550  Biso   1.000  H
  H97      1.0000 0.16840  0.04870  0.79120  Biso   1.000  H
  C98      1.0000 0.20710  0.22480  0.82100  Biso   1.000  C
  H98      1.0000 0.20410  0.31220  0.84620  Biso   1.000  H
  H99      1.0000 0.24120  0.18130  0.86780  Biso   1.000  H
  H100     1.0000 0.20680  0.23720  0.75960  Biso   1.000  H
  C99      1.0000 0.09610  0.35560  0.83900  Biso   1.000  C
  C100     1.0000 0.03350  0.37420  0.79730  Biso   1.000  C
  C101     1.0000 0.06050  0.30020  0.82510  Biso   1.000  C
  C102     1.0000 0.99900  0.26440  0.78820  Biso   1.000  C
  H101     1.0000 0.11660  0.42760  0.88590  Biso   1.000  H
  H102     1.0000 0.01590  0.45150  0.74210  Biso   1.000  H
  H103     1.0000 0.06660  0.38780  0.85810  Biso   1.000  H
  H104     1.0000 0.10540  0.35730  0.78660  Biso   1.000  H
  H105     1.0000 0.99180  0.17530  0.79500  Biso   1.000  H
  H106     1.0000 0.06330  0.31680  0.76620  Biso   1.000  H
  H107     1.0000 0.02270  0.40250  0.84340  Biso   1.000  H
  H108     1.0000 0.97920  0.32730  0.80990  Biso   1.000  H
  Co7      1.0000 0.29002  0.36469  0.53208  Biso   1.000  Co
  N19      1.0000 0.48764  0.02440  0.95840  Biso   1.000  N
  O25      1.0000 0.33284  0.26720  0.66420  Biso   1.000  O
  C103     1.0000 0.39100  0.67780  0.52470  Biso   1.000  C
  H109     1.0000 0.40970  0.72180  0.49660  Biso   1.000  H
  O26      1.0000 0.26544  0.10990  0.61470  Biso   1.000  O
  N20      1.0000 0.39010  0.71450  0.60920  Biso   1.000  N
  C104     1.0000 0.31341  0.02070  0.81290  Biso   1.000  C
  H110     1.0000 0.27470  0.02100  0.77930  Biso   1.000  H
  C105     1.0000 0.42857  0.01980  0.91280  Biso   1.000  C
  N21      1.0000 0.33872  0.53110  0.55240  Biso   1.000  N
  C106     1.0000 0.40010  0.94500  0.95030  Biso   1.000  C
  H111     1.0000 0.41960  0.89360  0.00760  Biso   1.000  H
  C107     1.0000 0.39974  0.09360  0.82550  Biso   1.000  C
  H112     1.0000 0.41910  0.14360  0.80130  Biso   1.000  H
  C108     1.0000 0.35890  0.56460  0.49090  Biso   1.000  C
  H113     1.0000 0.35170  0.51680  0.43420  Biso   1.000  H
  C109     1.0000 0.34204  0.09240  0.77500  Biso   1.000  C
  C110     1.0000 0.31108  0.16260  0.67670  Biso   1.000  C
  C111     1.0000 0.35680  0.62630  0.62010  Biso   1.000  C
  C112     1.0000 0.34237  0.94830  0.90100  Biso   1.000  C
  C113     1.0000 0.31104  0.87160  0.94180  Biso   1.000  C
  O27      1.0000 0.26653  0.92330  0.92820  Biso   1.000  O
  O28      1.0000 0.33224  0.76240  0.98670  Biso   1.000  O
  C114     1.0000 0.33940  0.64020  0.69480  Biso   1.000  C
  H114     1.0000 0.37160  0.67290  0.75450  Biso   1.000  H
  H115     1.0000 0.33160  0.54870  0.70880  Biso   1.000  H
  C115     1.0000 0.29290  0.72480  0.67900  Biso   1.000  C
  H116     1.0000 0.29590  0.81220  0.65380  Biso   1.000  H
  H117     1.0000 0.25880  0.68130  0.63220  Biso   1.000  H
  H118     1.0000 0.29320  0.73720  0.74040  Biso   1.000  H
  C116     1.0000 0.40390  0.85560  0.66100  Biso   1.000  C
  C117     1.0000 0.46650  0.87420  0.70270  Biso   1.000  C
  C118     1.0000 0.43950  0.80020  0.67490  Biso   1.000  C
  C119     1.0000 0.50100  0.76440  0.71180  Biso   1.000  C
  H119     1.0000 0.38340  0.92760  0.61410  Biso   1.000  H
  H120     1.0000 0.48410  0.95150  0.75790  Biso   1.000  H
  H121     1.0000 0.43340  0.88780  0.64190  Biso   1.000  H
  H122     1.0000 0.39460  0.85730  0.71340  Biso   1.000  H
  H123     1.0000 0.50820  0.67530  0.70500  Biso   1.000  H
  H124     1.0000 0.43670  0.81680  0.73380  Biso   1.000  H
  H125     1.0000 0.47730  0.90250  0.65660  Biso   1.000  H
  H126     1.0000 0.52080  0.82730  0.69010  Biso   1.000  H
  Co8      1.0000 0.79002  0.86469  0.53208  Biso   1.000  Co
  N22      1.0000 0.98764  0.52440  0.95840  Biso   1.000  N
  O29      1.0000 0.83284  0.76720  0.66420  Biso   1.000  O
  C120     1.0000 0.89100  0.17780  0.52470  Biso   1.000  C
  H127     1.0000 0.90970  0.22180  0.49660  Biso   1.000  H
  O30      1.0000 0.76544  0.60990  0.61470  Biso   1.000  O
  N23      1.0000 0.89010  0.21450  0.60920  Biso   1.000  N
  C121     1.0000 0.81341  0.52070  0.81290  Biso   1.000  C
  H128     1.0000 0.77470  0.52100  0.77930  Biso   1.000  H
  C122     1.0000 0.92857  0.51980  0.91280  Biso   1.000  C
  N24      1.0000 0.83872  0.03110  0.55240  Biso   1.000  N
  C123     1.0000 0.90010  0.44500  0.95030  Biso   1.000  C
  H129     1.0000 0.91960  0.39360  0.00760  Biso   1.000  H
  C124     1.0000 0.89974  0.59360  0.82550  Biso   1.000  C
  H130     1.0000 0.91910  0.64360  0.80130  Biso   1.000  H
  C125     1.0000 0.85890  0.06460  0.49090  Biso   1.000  C
  H131     1.0000 0.85170  0.01680  0.43420  Biso   1.000  H
  C126     1.0000 0.84204  0.59240  0.77500  Biso   1.000  C
  C127     1.0000 0.81108  0.66260  0.67670  Biso   1.000  C
  C128     1.0000 0.85680  0.12630  0.62010  Biso   1.000  C
  C129     1.0000 0.84237  0.44830  0.90100  Biso   1.000  C
  C130     1.0000 0.81104  0.37160  0.94180  Biso   1.000  C
  O31      1.0000 0.76653  0.42330  0.92820  Biso   1.000  O
  O32      1.0000 0.83224  0.26240  0.98670  Biso   1.000  O
  C131     1.0000 0.83940  0.14020  0.69480  Biso   1.000  C
  H132     1.0000 0.87160  0.17290  0.75450  Biso   1.000  H
  H133     1.0000 0.83160  0.04870  0.70880  Biso   1.000  H
  C132     1.0000 0.79290  0.22480  0.67900  Biso   1.000  C
  H134     1.0000 0.79590  0.31220  0.65380  Biso   1.000  H
  H135     1.0000 0.75880  0.18130  0.63220  Biso   1.000  H
  H136     1.0000 0.79320  0.23720  0.74040  Biso   1.000  H
  C133     1.0000 0.90390  0.35560  0.66100  Biso   1.000  C
  C134     1.0000 0.96650  0.37420  0.70270  Biso   1.000  C
  C135     1.0000 0.93950  0.30020  0.67490  Biso   1.000  C
  C136     1.0000 0.00100  0.26440  0.71180  Biso   1.000  C
  H137     1.0000 0.88340  0.42760  0.61410  Biso   1.000  H
  H138     1.0000 0.98410  0.45150  0.75790  Biso   1.000  H
  H139     1.0000 0.93340  0.38780  0.64190  Biso   1.000  H
  H140     1.0000 0.89460  0.35730  0.71340  Biso   1.000  H
  H141     1.0000 0.00820  0.17530  0.70500  Biso   1.000  H
  H142     1.0000 0.93670  0.31680  0.73380  Biso   1.000  H
  H143     1.0000 0.97730  0.40250  0.65660  Biso   1.000  H
  H144     1.0000 0.02080  0.32730  0.69010  Biso   1.000  H
