data_image0
_cell_length_a       27.625
_cell_length_b       9.9064
_cell_length_c       15.5403
_cell_angle_alpha    90
_cell_angle_beta     119.742
_cell_angle_gamma    90

_symmetry_space_group_name_H-M    "P 1"
_symmetry_int_tables_number       1

loop_
  _symmetry_equiv_pos_as_xyz
  'x, y, z'

loop_
  _atom_site_label
  _atom_site_occupancy
  _atom_site_fract_x
  _atom_site_fract_y
  _atom_site_fract_z
  _atom_site_thermal_displace_type
  _atom_site_B_iso_or_equiv
  _atom_site_type_symbol
  Co1      1.0000 0.20951  0.13713  0.46752  Biso   1.000  Co
  O1       1.0000 0.23585  0.39080  0.38510  Biso   1.000  O
  O2       1.0000 0.16830  0.23510  0.33570  Biso   1.000  O
  O3       1.0000 0.23294  0.57710  0.06980  Biso   1.000  O
  O4       1.0000 0.16759  0.73680  0.01310  Biso   1.000  O
  N1       1.0000 0.01251  0.47570  0.04240  Biso   1.000  N
  N2       1.0000 0.16190  0.96840  0.44670  Biso   1.000  N
  C1       1.0000 0.15740  0.55150  0.09750  Biso   1.000  C
  C2       1.0000 0.18710  0.48010  0.18610  Biso   1.000  C
  H1       1.0000 0.22590  0.48050  0.21960  Biso   1.000  H
  C3       1.0000 0.09950  0.55380  0.04830  Biso   1.000  C
  H2       1.0000 0.07960  0.60450  0.99080  Biso   1.000  H
  C4       1.0000 0.19030  0.33850  0.32240  Biso   1.000  C
  C5       1.0000 0.15880  0.40880  0.22430  Biso   1.000  C
  C6       1.0000 0.10090  0.40550  0.17410  Biso   1.000  C
  H3       1.0000 0.08180  0.35540  0.19850  Biso   1.000  H
  C7       1.0000 0.07190  0.47890  0.08660  Biso   1.000  C
  C8       1.0000 0.18850  0.62880  0.05670  Biso   1.000  C
  N3       1.0000 0.10900  0.78950  0.38890  Biso   1.000  N
  C9       1.0000 0.14350  0.87870  0.37840  Biso   1.000  C
  C10      1.0000 0.14210  0.93650  0.50860  Biso   1.000  C
  H4       1.0000 0.14870  0.98470  0.56480  Biso   1.000  H
  C11      1.0000 0.11130  0.82270  0.47470  Biso   1.000  C
  H5       1.0000 0.09460  0.77590  0.50510  Biso   1.000  H
  C12      1.0000 0.16490  0.86080  0.30300  Biso   1.000  C
  H6       1.0000 0.17470  0.94840  0.28830  Biso   1.000  H
  H7       1.0000 0.13520  0.82360  0.24170  Biso   1.000  H
  C13      1.0000 0.21840  0.76270  0.34540  Biso   1.000  C
  H8       1.0000 0.24640  0.79390  0.40950  Biso   1.000  H
  H9       1.0000 0.23320  0.76320  0.30100  Biso   1.000  H
  H10      1.0000 0.20760  0.67250  0.35100  Biso   1.000  H
  C14      1.0000 0.03190  0.62470  0.31250  Biso   1.000  C
  C15      1.0000 0.09420  0.64930  0.33380  Biso   1.000  C
  C16      1.0000 0.00750  0.72770  0.29090  Biso   1.000  C
  C17      1.0000 0.94160  0.70100  0.19130  Biso   1.000  C
  H11      1.0000 0.94860  0.63920  0.15050  Biso   1.000  H
  H12      1.0000 0.92390  0.64710  0.22010  Biso   1.000  H
  H13      1.0000 0.01310  0.56040  0.25890  Biso   1.000  H
  H14      1.0000 0.03280  0.58790  0.37110  Biso   1.000  H
  H15      1.0000 0.02720  0.79340  0.27350  Biso   1.000  H
  H16      1.0000 0.00480  0.76250  0.34670  Biso   1.000  H
  H17      1.0000 0.11920  0.57880  0.37560  Biso   1.000  H
  H18      1.0000 0.09550  0.65400  0.27270  Biso   1.000  H
  Co2      1.0000 0.70951  0.63713  0.46752  Biso   1.000  Co
  O5       1.0000 0.73585  0.89080  0.38510  Biso   1.000  O
  O6       1.0000 0.66830  0.73510  0.33570  Biso   1.000  O
  O7       1.0000 0.73294  0.07710  0.06980  Biso   1.000  O
  O8       1.0000 0.66759  0.23680  0.01310  Biso   1.000  O
  N4       1.0000 0.51251  0.97570  0.04240  Biso   1.000  N
  N5       1.0000 0.66190  0.46840  0.44670  Biso   1.000  N
  C18      1.0000 0.65740  0.05150  0.09750  Biso   1.000  C
  C19      1.0000 0.68710  0.98010  0.18610  Biso   1.000  C
  H19      1.0000 0.72590  0.98050  0.21960  Biso   1.000  H
  C20      1.0000 0.59950  0.05380  0.04830  Biso   1.000  C
  H20      1.0000 0.57960  0.10450  0.99080  Biso   1.000  H
  C21      1.0000 0.69030  0.83850  0.32240  Biso   1.000  C
  C22      1.0000 0.65880  0.90880  0.22430  Biso   1.000  C
  C23      1.0000 0.60090  0.90550  0.17410  Biso   1.000  C
  H21      1.0000 0.58180  0.85540  0.19850  Biso   1.000  H
  C24      1.0000 0.57190  0.97890  0.08660  Biso   1.000  C
  C25      1.0000 0.68850  0.12880  0.05670  Biso   1.000  C
  N6       1.0000 0.60900  0.28950  0.38890  Biso   1.000  N
  C26      1.0000 0.64350  0.37870  0.37840  Biso   1.000  C
  C27      1.0000 0.64210  0.43650  0.50860  Biso   1.000  C
  H22      1.0000 0.64870  0.48470  0.56480  Biso   1.000  H
  C28      1.0000 0.61130  0.32270  0.47470  Biso   1.000  C
  H23      1.0000 0.59460  0.27590  0.50510  Biso   1.000  H
  C29      1.0000 0.66490  0.36080  0.30300  Biso   1.000  C
  H24      1.0000 0.67470  0.44840  0.28830  Biso   1.000  H
  H25      1.0000 0.63520  0.32360  0.24170  Biso   1.000  H
  C30      1.0000 0.71840  0.26270  0.34540  Biso   1.000  C
  H26      1.0000 0.74640  0.29390  0.40950  Biso   1.000  H
  H27      1.0000 0.73320  0.26320  0.30100  Biso   1.000  H
  H28      1.0000 0.70760  0.17250  0.35100  Biso   1.000  H
  C31      1.0000 0.53190  0.12470  0.31250  Biso   1.000  C
  C32      1.0000 0.59420  0.14930  0.33380  Biso   1.000  C
  C33      1.0000 0.50750  0.22770  0.29090  Biso   1.000  C
  C34      1.0000 0.44160  0.20100  0.19130  Biso   1.000  C
  H29      1.0000 0.44860  0.13920  0.15050  Biso   1.000  H
  H30      1.0000 0.42390  0.14710  0.22010  Biso   1.000  H
  H31      1.0000 0.51310  0.06040  0.25890  Biso   1.000  H
  H32      1.0000 0.53280  0.08790  0.37110  Biso   1.000  H
  H33      1.0000 0.52720  0.29340  0.27350  Biso   1.000  H
  H34      1.0000 0.50480  0.26250  0.34670  Biso   1.000  H
  H35      1.0000 0.61920  0.07880  0.37560  Biso   1.000  H
  H36      1.0000 0.59550  0.15400  0.27270  Biso   1.000  H
  Co3      1.0000 0.79049  0.13713  0.03248  Biso   1.000  Co
  O9       1.0000 0.76415  0.39080  0.11490  Biso   1.000  O
  O10      1.0000 0.83170  0.23510  0.16430  Biso   1.000  O
  O11      1.0000 0.76706  0.57710  0.43020  Biso   1.000  O
  O12      1.0000 0.83241  0.73680  0.48690  Biso   1.000  O
  N7       1.0000 0.98749  0.47570  0.45760  Biso   1.000  N
  N8       1.0000 0.83810  0.96840  0.05330  Biso   1.000  N
  C35      1.0000 0.84260  0.55150  0.40250  Biso   1.000  C
  C36      1.0000 0.81290  0.48010  0.31390  Biso   1.000  C
  H37      1.0000 0.77410  0.48050  0.28040  Biso   1.000  H
  C37      1.0000 0.90050  0.55380  0.45170  Biso   1.000  C
  H38      1.0000 0.92040  0.60450  0.50920  Biso   1.000  H
  C38      1.0000 0.80970  0.33850  0.17760  Biso   1.000  C
  C39      1.0000 0.84120  0.40880  0.27570  Biso   1.000  C
  C40      1.0000 0.89910  0.40550  0.32590  Biso   1.000  C
  H39      1.0000 0.91820  0.35540  0.30150  Biso   1.000  H
  C41      1.0000 0.92810  0.47890  0.41340  Biso   1.000  C
  C42      1.0000 0.81150  0.62880  0.44330  Biso   1.000  C
  N9       1.0000 0.89100  0.78950  0.11110  Biso   1.000  N
  C43      1.0000 0.85650  0.87870  0.12160  Biso   1.000  C
  C44      1.0000 0.85790  0.93650  0.99140  Biso   1.000  C
  H40      1.0000 0.85130  0.98470  0.93520  Biso   1.000  H
  C45      1.0000 0.88870  0.82270  0.02530  Biso   1.000  C
  H41      1.0000 0.90540  0.77590  0.99490  Biso   1.000  H
  C46      1.0000 0.83510  0.86080  0.19700  Biso   1.000  C
  H42      1.0000 0.82530  0.94840  0.21170  Biso   1.000  H
  H43      1.0000 0.86480  0.82360  0.25830  Biso   1.000  H
  C47      1.0000 0.78160  0.76270  0.15460  Biso   1.000  C
  H44      1.0000 0.75360  0.79390  0.09050  Biso   1.000  H
  H45      1.0000 0.76680  0.76320  0.19900  Biso   1.000  H
  H46      1.0000 0.79240  0.67250  0.14900  Biso   1.000  H
  C48      1.0000 0.96810  0.62470  0.18750  Biso   1.000  C
  C49      1.0000 0.90580  0.64930  0.16620  Biso   1.000  C
  C50      1.0000 0.99250  0.72770  0.20910  Biso   1.000  C
  C51      1.0000 0.05840  0.70100  0.30870  Biso   1.000  C
  H47      1.0000 0.05140  0.63920  0.34950  Biso   1.000  H
  H48      1.0000 0.07610  0.64710  0.27990  Biso   1.000  H
  H49      1.0000 0.98690  0.56040  0.24110  Biso   1.000  H
  H50      1.0000 0.96720  0.58790  0.12890  Biso   1.000  H
  H51      1.0000 0.97280  0.79340  0.22650  Biso   1.000  H
  H52      1.0000 0.99520  0.76250  0.15330  Biso   1.000  H
  H53      1.0000 0.88080  0.57880  0.12440  Biso   1.000  H
  H54      1.0000 0.90450  0.65400  0.22730  Biso   1.000  H
  Co4      1.0000 0.29049  0.63713  0.03248  Biso   1.000  Co
  O13      1.0000 0.26415  0.89080  0.11490  Biso   1.000  O
  O14      1.0000 0.33170  0.73510  0.16430  Biso   1.000  O
  O15      1.0000 0.26706  0.07710  0.43020  Biso   1.000  O
  O16      1.0000 0.33241  0.23680  0.48690  Biso   1.000  O
  N10      1.0000 0.48749  0.97570  0.45760  Biso   1.000  N
  N11      1.0000 0.33810  0.46840  0.05330  Biso   1.000  N
  C52      1.0000 0.34260  0.05150  0.40250  Biso   1.000  C
  C53      1.0000 0.31290  0.98010  0.31390  Biso   1.000  C
  H55      1.0000 0.27410  0.98050  0.28040  Biso   1.000  H
  C54      1.0000 0.40050  0.05380  0.45170  Biso   1.000  C
  H56      1.0000 0.42040  0.10450  0.50920  Biso   1.000  H
  C55      1.0000 0.30970  0.83850  0.17760  Biso   1.000  C
  C56      1.0000 0.34120  0.90880  0.27570  Biso   1.000  C
  C57      1.0000 0.39910  0.90550  0.32590  Biso   1.000  C
  H57      1.0000 0.41820  0.85540  0.30150  Biso   1.000  H
  C58      1.0000 0.42810  0.97890  0.41340  Biso   1.000  C
  C59      1.0000 0.31150  0.12880  0.44330  Biso   1.000  C
  N12      1.0000 0.39100  0.28950  0.11110  Biso   1.000  N
  C60      1.0000 0.35650  0.37870  0.12160  Biso   1.000  C
  C61      1.0000 0.35790  0.43650  0.99140  Biso   1.000  C
  H58      1.0000 0.35130  0.48470  0.93520  Biso   1.000  H
  C62      1.0000 0.38870  0.32270  0.02530  Biso   1.000  C
  H59      1.0000 0.40540  0.27590  0.99490  Biso   1.000  H
  C63      1.0000 0.33510  0.36080  0.19700  Biso   1.000  C
  H60      1.0000 0.32530  0.44840  0.21170  Biso   1.000  H
  H61      1.0000 0.36480  0.32360  0.25830  Biso   1.000  H
  C64      1.0000 0.28160  0.26270  0.15460  Biso   1.000  C
  H62      1.0000 0.25360  0.29390  0.09050  Biso   1.000  H
  H63      1.0000 0.26680  0.26320  0.19900  Biso   1.000  H
  H64      1.0000 0.29240  0.17250  0.14900  Biso   1.000  H
  C65      1.0000 0.46810  0.12470  0.18750  Biso   1.000  C
  C66      1.0000 0.40580  0.14930  0.16620  Biso   1.000  C
  C67      1.0000 0.49250  0.22770  0.20910  Biso   1.000  C
  C68      1.0000 0.55840  0.20100  0.30870  Biso   1.000  C
  H65      1.0000 0.55140  0.13920  0.34950  Biso   1.000  H
  H66      1.0000 0.57610  0.14710  0.27990  Biso   1.000  H
  H67      1.0000 0.48690  0.06040  0.24110  Biso   1.000  H
  H68      1.0000 0.46720  0.08790  0.12890  Biso   1.000  H
  H69      1.0000 0.47280  0.29340  0.22650  Biso   1.000  H
  H70      1.0000 0.49520  0.26250  0.15330  Biso   1.000  H
  H71      1.0000 0.38080  0.07880  0.12440  Biso   1.000  H
  H72      1.0000 0.40450  0.15400  0.22730  Biso   1.000  H
  Co5      1.0000 0.79049  0.86287  0.53248  Biso   1.000  Co
  O17      1.0000 0.76415  0.60920  0.61490  Biso   1.000  O
  O18      1.0000 0.83170  0.76490  0.66430  Biso   1.000  O
  O19      1.0000 0.76706  0.42290  0.93020  Biso   1.000  O
  O20      1.0000 0.83241  0.26320  0.98690  Biso   1.000  O
  N13      1.0000 0.98749  0.52430  0.95760  Biso   1.000  N
  N14      1.0000 0.83810  0.03160  0.55330  Biso   1.000  N
  C69      1.0000 0.84260  0.44850  0.90250  Biso   1.000  C
  C70      1.0000 0.81290  0.51990  0.81390  Biso   1.000  C
  H73      1.0000 0.77410  0.51950  0.78040  Biso   1.000  H
  C71      1.0000 0.90050  0.44620  0.95170  Biso   1.000  C
  H74      1.0000 0.92040  0.39550  0.00920  Biso   1.000  H
  C72      1.0000 0.80970  0.66150  0.67760  Biso   1.000  C
  C73      1.0000 0.84120  0.59120  0.77570  Biso   1.000  C
  C74      1.0000 0.89910  0.59450  0.82590  Biso   1.000  C
  H75      1.0000 0.91820  0.64460  0.80150  Biso   1.000  H
  C75      1.0000 0.92810  0.52110  0.91340  Biso   1.000  C
  C76      1.0000 0.81150  0.37120  0.94330  Biso   1.000  C
  N15      1.0000 0.89100  0.21050  0.61110  Biso   1.000  N
  C77      1.0000 0.85650  0.12130  0.62160  Biso   1.000  C
  C78      1.0000 0.85790  0.06350  0.49140  Biso   1.000  C
  H76      1.0000 0.85130  0.01530  0.43520  Biso   1.000  H
  C79      1.0000 0.88870  0.17730  0.52530  Biso   1.000  C
  H77      1.0000 0.90540  0.22410  0.49490  Biso   1.000  H
  C80      1.0000 0.83510  0.13920  0.69700  Biso   1.000  C
  H78      1.0000 0.82530  0.05160  0.71170  Biso   1.000  H
  H79      1.0000 0.86480  0.17640  0.75830  Biso   1.000  H
  C81      1.0000 0.78160  0.23730  0.65460  Biso   1.000  C
  H80      1.0000 0.75360  0.20610  0.59050  Biso   1.000  H
  H81      1.0000 0.76680  0.23680  0.69900  Biso   1.000  H
  H82      1.0000 0.79240  0.32750  0.64900  Biso   1.000  H
  C82      1.0000 0.96810  0.37530  0.68750  Biso   1.000  C
  C83      1.0000 0.90580  0.35070  0.66620  Biso   1.000  C
  C84      1.0000 0.99250  0.27230  0.70910  Biso   1.000  C
  C85      1.0000 0.05840  0.29900  0.80870  Biso   1.000  C
  H83      1.0000 0.05140  0.36080  0.84950  Biso   1.000  H
  H84      1.0000 0.07610  0.35290  0.77990  Biso   1.000  H
  H85      1.0000 0.98690  0.43960  0.74110  Biso   1.000  H
  H86      1.0000 0.96720  0.41210  0.62890  Biso   1.000  H
  H87      1.0000 0.97280  0.20660  0.72650  Biso   1.000  H
  H88      1.0000 0.99520  0.23750  0.65330  Biso   1.000  H
  H89      1.0000 0.88080  0.42120  0.62440  Biso   1.000  H
  H90      1.0000 0.90450  0.34600  0.72730  Biso   1.000  H
  Co6      1.0000 0.29049  0.36287  0.53248  Biso   1.000  Co
  O21      1.0000 0.26415  0.10920  0.61490  Biso   1.000  O
  O22      1.0000 0.33170  0.26490  0.66430  Biso   1.000  O
  O23      1.0000 0.26706  0.92290  0.93020  Biso   1.000  O
  O24      1.0000 0.33241  0.76320  0.98690  Biso   1.000  O
  N16      1.0000 0.48749  0.02430  0.95760  Biso   1.000  N
  N17      1.0000 0.33810  0.53160  0.55330  Biso   1.000  N
  C86      1.0000 0.34260  0.94850  0.90250  Biso   1.000  C
  C87      1.0000 0.31290  0.01990  0.81390  Biso   1.000  C
  H91      1.0000 0.27410  0.01950  0.78040  Biso   1.000  H
  C88      1.0000 0.40050  0.94620  0.95170  Biso   1.000  C
  H92      1.0000 0.42040  0.89550  0.00920  Biso   1.000  H
  C89      1.0000 0.30970  0.16150  0.67760  Biso   1.000  C
  C90      1.0000 0.34120  0.09120  0.77570  Biso   1.000  C
  C91      1.0000 0.39910  0.09450  0.82590  Biso   1.000  C
  H93      1.0000 0.41820  0.14460  0.80150  Biso   1.000  H
  C92      1.0000 0.42810  0.02110  0.91340  Biso   1.000  C
  C93      1.0000 0.31150  0.87120  0.94330  Biso   1.000  C
  N18      1.0000 0.39100  0.71050  0.61110  Biso   1.000  N
  C94      1.0000 0.35650  0.62130  0.62160  Biso   1.000  C
  C95      1.0000 0.35790  0.56350  0.49140  Biso   1.000  C
  H94      1.0000 0.35130  0.51530  0.43520  Biso   1.000  H
  C96      1.0000 0.38870  0.67730  0.52530  Biso   1.000  C
  H95      1.0000 0.40540  0.72410  0.49490  Biso   1.000  H
  C97      1.0000 0.33510  0.63920  0.69700  Biso   1.000  C
  H96      1.0000 0.32530  0.55160  0.71170  Biso   1.000  H
  H97      1.0000 0.36480  0.67640  0.75830  Biso   1.000  H
  C98      1.0000 0.28160  0.73730  0.65460  Biso   1.000  C
  H98      1.0000 0.25360  0.70610  0.59050  Biso   1.000  H
  H99      1.0000 0.26680  0.73680  0.69900  Biso   1.000  H
  H100     1.0000 0.29240  0.82750  0.64900  Biso   1.000  H
  C99      1.0000 0.46810  0.87530  0.68750  Biso   1.000  C
  C100     1.0000 0.40580  0.85070  0.66620  Biso   1.000  C
  C101     1.0000 0.49250  0.77230  0.70910  Biso   1.000  C
  C102     1.0000 0.55840  0.79900  0.80870  Biso   1.000  C
  H101     1.0000 0.55140  0.86080  0.84950  Biso   1.000  H
  H102     1.0000 0.57610  0.85290  0.77990  Biso   1.000  H
  H103     1.0000 0.48690  0.93960  0.74110  Biso   1.000  H
  H104     1.0000 0.46720  0.91210  0.62890  Biso   1.000  H
  H105     1.0000 0.47280  0.70660  0.72650  Biso   1.000  H
  H106     1.0000 0.49520  0.73750  0.65330  Biso   1.000  H
  H107     1.0000 0.38080  0.92120  0.62440  Biso   1.000  H
  H108     1.0000 0.40450  0.84600  0.72730  Biso   1.000  H
  Co7      1.0000 0.20951  0.86287  0.96752  Biso   1.000  Co
  O25      1.0000 0.23585  0.60920  0.88510  Biso   1.000  O
  O26      1.0000 0.16830  0.76490  0.83570  Biso   1.000  O
  O27      1.0000 0.23294  0.42290  0.56980  Biso   1.000  O
  O28      1.0000 0.16759  0.26320  0.51310  Biso   1.000  O
  N19      1.0000 0.01251  0.52430  0.54240  Biso   1.000  N
  N20      1.0000 0.16190  0.03160  0.94670  Biso   1.000  N
  C103     1.0000 0.15740  0.44850  0.59750  Biso   1.000  C
  C104     1.0000 0.18710  0.51990  0.68610  Biso   1.000  C
  H109     1.0000 0.22590  0.51950  0.71960  Biso   1.000  H
  C105     1.0000 0.09950  0.44620  0.54830  Biso   1.000  C
  H110     1.0000 0.07960  0.39550  0.49080  Biso   1.000  H
  C106     1.0000 0.19030  0.66150  0.82240  Biso   1.000  C
  C107     1.0000 0.15880  0.59120  0.72430  Biso   1.000  C
  C108     1.0000 0.10090  0.59450  0.67410  Biso   1.000  C
  H111     1.0000 0.08180  0.64460  0.69850  Biso   1.000  H
  C109     1.0000 0.07190  0.52110  0.58660  Biso   1.000  C
  C110     1.0000 0.18850  0.37120  0.55670  Biso   1.000  C
  N21      1.0000 0.10900  0.21050  0.88890  Biso   1.000  N
  C111     1.0000 0.14350  0.12130  0.87840  Biso   1.000  C
  C112     1.0000 0.14210  0.06350  0.00860  Biso   1.000  C
  H112     1.0000 0.14870  0.01530  0.06480  Biso   1.000  H
  C113     1.0000 0.11130  0.17730  0.97470  Biso   1.000  C
  H113     1.0000 0.09460  0.22410  0.00510  Biso   1.000  H
  C114     1.0000 0.16490  0.13920  0.80300  Biso   1.000  C
  H114     1.0000 0.17470  0.05160  0.78830  Biso   1.000  H
  H115     1.0000 0.13520  0.17640  0.74170  Biso   1.000  H
  C115     1.0000 0.21840  0.23730  0.84540  Biso   1.000  C
  H116     1.0000 0.24640  0.20610  0.90950  Biso   1.000  H
  H117     1.0000 0.23320  0.23680  0.80100  Biso   1.000  H
  H118     1.0000 0.20760  0.32750  0.85100  Biso   1.000  H
  C116     1.0000 0.03190  0.37530  0.81250  Biso   1.000  C
  C117     1.0000 0.09420  0.35070  0.83380  Biso   1.000  C
  C118     1.0000 0.00750  0.27230  0.79090  Biso   1.000  C
  C119     1.0000 0.94160  0.29900  0.69130  Biso   1.000  C
  H119     1.0000 0.94860  0.36080  0.65050  Biso   1.000  H
  H120     1.0000 0.92390  0.35290  0.72010  Biso   1.000  H
  H121     1.0000 0.01310  0.43960  0.75890  Biso   1.000  H
  H122     1.0000 0.03280  0.41210  0.87110  Biso   1.000  H
  H123     1.0000 0.02720  0.20660  0.77350  Biso   1.000  H
  H124     1.0000 0.00480  0.23750  0.84670  Biso   1.000  H
  H125     1.0000 0.11920  0.42120  0.87560  Biso   1.000  H
  H126     1.0000 0.09550  0.34600  0.77270  Biso   1.000  H
  Co8      1.0000 0.70951  0.36287  0.96752  Biso   1.000  Co
  O29      1.0000 0.73585  0.10920  0.88510  Biso   1.000  O
  O30      1.0000 0.66830  0.26490  0.83570  Biso   1.000  O
  O31      1.0000 0.73294  0.92290  0.56980  Biso   1.000  O
  O32      1.0000 0.66759  0.76320  0.51310  Biso   1.000  O
  N22      1.0000 0.51251  0.02430  0.54240  Biso   1.000  N
  N23      1.0000 0.66190  0.53160  0.94670  Biso   1.000  N
  C120     1.0000 0.65740  0.94850  0.59750  Biso   1.000  C
  C121     1.0000 0.68710  0.01990  0.68610  Biso   1.000  C
  H127     1.0000 0.72590  0.01950  0.71960  Biso   1.000  H
  C122     1.0000 0.59950  0.94620  0.54830  Biso   1.000  C
  H128     1.0000 0.57960  0.89550  0.49080  Biso   1.000  H
  C123     1.0000 0.69030  0.16150  0.82240  Biso   1.000  C
  C124     1.0000 0.65880  0.09120  0.72430  Biso   1.000  C
  C125     1.0000 0.60090  0.09450  0.67410  Biso   1.000  C
  H129     1.0000 0.58180  0.14460  0.69850  Biso   1.000  H
  C126     1.0000 0.57190  0.02110  0.58660  Biso   1.000  C
  C127     1.0000 0.68850  0.87120  0.55670  Biso   1.000  C
  N24      1.0000 0.60900  0.71050  0.88890  Biso   1.000  N
  C128     1.0000 0.64350  0.62130  0.87840  Biso   1.000  C
  C129     1.0000 0.64210  0.56350  0.00860  Biso   1.000  C
  H130     1.0000 0.64870  0.51530  0.06480  Biso   1.000  H
  C130     1.0000 0.61130  0.67730  0.97470  Biso   1.000  C
  H131     1.0000 0.59460  0.72410  0.00510  Biso   1.000  H
  C131     1.0000 0.66490  0.63920  0.80300  Biso   1.000  C
  H132     1.0000 0.67470  0.55160  0.78830  Biso   1.000  H
  H133     1.0000 0.63520  0.67640  0.74170  Biso   1.000  H
  C132     1.0000 0.71840  0.73730  0.84540  Biso   1.000  C
  H134     1.0000 0.74640  0.70610  0.90950  Biso   1.000  H
  H135     1.0000 0.73320  0.73680  0.80100  Biso   1.000  H
  H136     1.0000 0.70760  0.82750  0.85100  Biso   1.000  H
  C133     1.0000 0.53190  0.87530  0.81250  Biso   1.000  C
  C134     1.0000 0.59420  0.85070  0.83380  Biso   1.000  C
  C135     1.0000 0.50750  0.77230  0.79090  Biso   1.000  C
  C136     1.0000 0.44160  0.79900  0.69130  Biso   1.000  C
  H137     1.0000 0.44860  0.86080  0.65050  Biso   1.000  H
  H138     1.0000 0.42390  0.85290  0.72010  Biso   1.000  H
  H139     1.0000 0.51310  0.93960  0.75890  Biso   1.000  H
  H140     1.0000 0.53280  0.91210  0.87110  Biso   1.000  H
  H141     1.0000 0.52720  0.70660  0.77350  Biso   1.000  H
  H142     1.0000 0.50480  0.73750  0.84670  Biso   1.000  H
  H143     1.0000 0.61920  0.92120  0.87560  Biso   1.000  H
  H144     1.0000 0.59550  0.84600  0.77270  Biso   1.000  H
