data_image0
_cell_length_a       14.9347
_cell_length_b       16.0248
_cell_length_c       27.3
_cell_angle_alpha    90
_cell_angle_beta     105.065
_cell_angle_gamma    90

_symmetry_space_group_name_H-M    "P 1"
_symmetry_int_tables_number       1

loop_
  _symmetry_equiv_pos_as_xyz
  'x, y, z'

loop_
  _atom_site_label
  _atom_site_occupancy
  _atom_site_fract_x
  _atom_site_fract_y
  _atom_site_fract_z
  _atom_site_thermal_displace_type
  _atom_site_B_iso_or_equiv
  _atom_site_type_symbol
  W1       1.0000 0.56363  0.22044  0.45270  Biso   1.000  W
  W2       1.0000 0.75348  0.27917  0.39377  Biso   1.000  W
  W3       1.0000 0.58700  0.23003  0.57755  Biso   1.000  W
  W4       1.0000 0.93533  0.36768  0.47687  Biso   1.000  W
  W5       1.0000 0.90141  0.15772  0.47773  Biso   1.000  W
  W6       1.0000 0.95940  0.37825  0.61179  Biso   1.000  W
  W7       1.0000 0.80369  0.30095  0.66957  Biso   1.000  W
  W8       1.0000 0.70958  0.08987  0.53031  Biso   1.000  W
  W9       1.0000 0.92488  0.16768  0.61635  Biso   1.000  W
  W10      1.0000 0.59490  0.43735  0.42010  Biso   1.000  W
  W11      1.0000 0.37131  0.54845  0.39537  Biso   1.000  W
  Eu1      1.0000 0.80183  0.56471  0.52599  Biso   1.000  Eu
  Eu2      1.0000 0.65031  0.71390  0.25827  Biso   1.000  Eu
  As1      1.0000 0.75867  0.32037  0.52897  Biso   1.000  As
  P1       1.0000 0.52220  0.56480  0.32354  Biso   1.000  P
  P2       1.0000 0.41580  0.40790  0.31754  Biso   1.000  P
  O1       1.0000 0.68850  0.38090  0.39750  Biso   1.000  O
  O2       1.0000 0.91040  0.36310  0.67250  Biso   1.000  O
  O3       1.0000 0.82130  0.28340  0.48510  Biso   1.000  O
  O4       1.0000 0.50090  0.37440  0.35780  Biso   1.000  O
  O5       1.0000 0.93920  0.15790  0.54950  Biso   1.000  O
  O6       1.0000 0.35130  0.45690  0.34270  Biso   1.000  O
  O7       1.0000 0.48520  0.49410  0.42510  Biso   1.000  O
  O8       1.0000 0.61710  0.11870  0.57020  Biso   1.000  O
  O9       1.0000 0.40170  0.64910  0.42880  Biso   1.000  O
  O10      1.0000 0.86440  0.34180  0.40660  Biso   1.000  O
  O11      1.0000 0.83820  0.29230  0.58750  Biso   1.000  O
  O12      1.0000 0.86890  0.45380  0.48400  Biso   1.000  O
  O13      1.0000 0.44870  0.60400  0.34600  Biso   1.000  O
  O14      1.0000 0.86970  0.20000  0.66960  Biso   1.000  O
  O15      1.0000 0.97890  0.24270  0.47260  Biso   1.000  O
  O16      1.0000 0.78860  0.10460  0.48900  Biso   1.000  O
  O17      1.0000 0.51100  0.23330  0.51040  Biso   1.000  O
  O18      1.0000 0.68650  0.23050  0.52570  Biso   1.000  O
  O19      1.0000 0.98200  0.35120  0.54760  Biso   1.000  O
  O20      1.0000 0.57560  0.34290  0.45490  Biso   1.000  O
  O21      1.0000 0.65410  0.22770  0.41530  Biso   1.000  O
  O22      1.0000 0.59830  0.52000  0.36460  Biso   1.000  O
  O23      1.0000 0.82240  0.17880  0.41160  Biso   1.000  O
  O24      1.0000 0.00530  0.25410  0.63040  Biso   1.000  O
  O25      1.0000 0.80520  0.11220  0.58740  Biso   1.000  O
  O26      1.0000 0.36280  0.34140  0.28370  Biso   1.000  O
  O27      1.0000 0.26680  0.59960  0.35170  Biso   1.000  O
  O28      1.0000 0.67210  0.49200  0.46680  Biso   1.000  O
  O29      1.0000 0.88580  0.45950  0.58740  Biso   1.000  O
  O30      1.0000 0.69500  0.24600  0.63210  Biso   1.000  O
  O31      1.0000 0.03420  0.40800  0.46230  Biso   1.000  O
  O32      1.0000 0.30870  0.50120  0.43230  Biso   1.000  O
  O33      1.0000 0.56460  0.62550  0.29500  Biso   1.000  O
  O34      1.0000 0.59830  0.11150  0.47180  Biso   1.000  O
  O35      1.0000 0.52570  0.44230  0.25760  Biso   1.000  O
  H1       1.0000 0.50050  0.40400  0.23910  Biso   1.000  H
  C1       1.0000 0.45940  0.48190  0.27970  Biso   1.000  C
  C2       1.0000 0.38400  0.52100  0.24280  Biso   1.000  C
  H2       1.0000 0.34220  0.54630  0.25990  Biso   1.000  H
  H3       1.0000 0.40820  0.56300  0.22470  Biso   1.000  H
  H4       1.0000 0.35140  0.47970  0.21940  Biso   1.000  H
  O36      1.0000 0.61700  0.78800  0.32300  Biso   1.000  O
  O37      1.0000 0.56000  0.81200  0.30500  Biso   1.000  O
  W12      1.0000 0.43637  0.72044  0.04730  Biso   1.000  W
  W13      1.0000 0.24652  0.77917  0.10623  Biso   1.000  W
  W14      1.0000 0.41300  0.73003  0.92245  Biso   1.000  W
  W15      1.0000 0.06467  0.86768  0.02313  Biso   1.000  W
  W16      1.0000 0.09859  0.65772  0.02227  Biso   1.000  W
  W17      1.0000 0.04060  0.87825  0.88821  Biso   1.000  W
  W18      1.0000 0.19631  0.80095  0.83043  Biso   1.000  W
  W19      1.0000 0.29042  0.58987  0.96969  Biso   1.000  W
  W20      1.0000 0.07512  0.66768  0.88365  Biso   1.000  W
  W21      1.0000 0.40510  0.93735  0.07990  Biso   1.000  W
  W22      1.0000 0.62869  0.04845  0.10463  Biso   1.000  W
  Eu3      1.0000 0.19817  0.06471  0.97401  Biso   1.000  Eu
  Eu4      1.0000 0.34969  0.21390  0.24173  Biso   1.000  Eu
  As2      1.0000 0.24133  0.82037  0.97103  Biso   1.000  As
  P3       1.0000 0.47780  0.06480  0.17646  Biso   1.000  P
  P4       1.0000 0.58420  0.90790  0.18246  Biso   1.000  P
  O38      1.0000 0.31150  0.88090  0.10250  Biso   1.000  O
  O39      1.0000 0.08960  0.86310  0.82750  Biso   1.000  O
  O40      1.0000 0.17870  0.78340  0.01490  Biso   1.000  O
  O41      1.0000 0.49910  0.87440  0.14220  Biso   1.000  O
  O42      1.0000 0.06080  0.65790  0.95050  Biso   1.000  O
  O43      1.0000 0.64870  0.95690  0.15730  Biso   1.000  O
  O44      1.0000 0.51480  0.99410  0.07490  Biso   1.000  O
  O45      1.0000 0.38290  0.61870  0.92980  Biso   1.000  O
  O46      1.0000 0.59830  0.14910  0.07120  Biso   1.000  O
  O47      1.0000 0.13560  0.84180  0.09340  Biso   1.000  O
  O48      1.0000 0.16180  0.79230  0.91250  Biso   1.000  O
  O49      1.0000 0.13110  0.95380  0.01600  Biso   1.000  O
  O50      1.0000 0.55130  0.10400  0.15400  Biso   1.000  O
  O51      1.0000 0.13030  0.70000  0.83040  Biso   1.000  O
  O52      1.0000 0.02110  0.74270  0.02740  Biso   1.000  O
  O53      1.0000 0.21140  0.60460  0.01100  Biso   1.000  O
  O54      1.0000 0.48900  0.73330  0.98960  Biso   1.000  O
  O55      1.0000 0.31350  0.73050  0.97430  Biso   1.000  O
  O56      1.0000 0.01800  0.85120  0.95240  Biso   1.000  O
  O57      1.0000 0.42440  0.84290  0.04510  Biso   1.000  O
  O58      1.0000 0.34590  0.72770  0.08470  Biso   1.000  O
  O59      1.0000 0.40170  0.02000  0.13540  Biso   1.000  O
  O60      1.0000 0.17760  0.67880  0.08840  Biso   1.000  O
  O61      1.0000 0.99470  0.75410  0.86960  Biso   1.000  O
  O62      1.0000 0.19480  0.61220  0.91260  Biso   1.000  O
  O63      1.0000 0.63720  0.84140  0.21630  Biso   1.000  O
  O64      1.0000 0.73320  0.09960  0.14830  Biso   1.000  O
  O65      1.0000 0.32790  0.99200  0.03320  Biso   1.000  O
  O66      1.0000 0.11420  0.95950  0.91260  Biso   1.000  O
  O67      1.0000 0.30500  0.74600  0.86790  Biso   1.000  O
  O68      1.0000 0.96580  0.90800  0.03770  Biso   1.000  O
  O69      1.0000 0.69130  0.00120  0.06770  Biso   1.000  O
  O70      1.0000 0.43540  0.12550  0.20500  Biso   1.000  O
  O71      1.0000 0.40170  0.61150  0.02820  Biso   1.000  O
  O72      1.0000 0.47430  0.94230  0.24240  Biso   1.000  O
  H5       1.0000 0.49950  0.90400  0.26090  Biso   1.000  H
  C3       1.0000 0.54060  0.98190  0.22030  Biso   1.000  C
  C4       1.0000 0.61600  0.02100  0.25720  Biso   1.000  C
  H6       1.0000 0.65780  0.04630  0.24010  Biso   1.000  H
  H7       1.0000 0.59180  0.06300  0.27530  Biso   1.000  H
  H8       1.0000 0.64860  0.97970  0.28060  Biso   1.000  H
  O73      1.0000 0.38300  0.28800  0.17700  Biso   1.000  O
  O74      1.0000 0.44000  0.31200  0.19500  Biso   1.000  O
  W23      1.0000 0.43637  0.77956  0.54730  Biso   1.000  W
  W24      1.0000 0.24652  0.72083  0.60623  Biso   1.000  W
  W25      1.0000 0.41300  0.76997  0.42245  Biso   1.000  W
  W26      1.0000 0.06467  0.63232  0.52313  Biso   1.000  W
  W27      1.0000 0.09859  0.84228  0.52227  Biso   1.000  W
  W28      1.0000 0.04060  0.62175  0.38821  Biso   1.000  W
  W29      1.0000 0.19631  0.69905  0.33043  Biso   1.000  W
  W30      1.0000 0.29042  0.91013  0.46969  Biso   1.000  W
  W31      1.0000 0.07512  0.83232  0.38365  Biso   1.000  W
  W32      1.0000 0.40510  0.56265  0.57990  Biso   1.000  W
  W33      1.0000 0.62869  0.45155  0.60463  Biso   1.000  W
  Eu5      1.0000 0.19817  0.43529  0.47401  Biso   1.000  Eu
  Eu6      1.0000 0.34969  0.28610  0.74173  Biso   1.000  Eu
  As3      1.0000 0.24133  0.67963  0.47103  Biso   1.000  As
  P5       1.0000 0.47780  0.43520  0.67646  Biso   1.000  P
  P6       1.0000 0.58420  0.59210  0.68246  Biso   1.000  P
  O75      1.0000 0.31150  0.61910  0.60250  Biso   1.000  O
  O76      1.0000 0.08960  0.63690  0.32750  Biso   1.000  O
  O77      1.0000 0.17870  0.71660  0.51490  Biso   1.000  O
  O78      1.0000 0.49910  0.62560  0.64220  Biso   1.000  O
  O79      1.0000 0.06080  0.84210  0.45050  Biso   1.000  O
  O80      1.0000 0.64870  0.54310  0.65730  Biso   1.000  O
  O81      1.0000 0.51480  0.50590  0.57490  Biso   1.000  O
  O82      1.0000 0.38290  0.88130  0.42980  Biso   1.000  O
  O83      1.0000 0.59830  0.35090  0.57120  Biso   1.000  O
  O84      1.0000 0.13560  0.65820  0.59340  Biso   1.000  O
  O85      1.0000 0.16180  0.70770  0.41250  Biso   1.000  O
  O86      1.0000 0.13110  0.54620  0.51600  Biso   1.000  O
  O87      1.0000 0.55130  0.39600  0.65400  Biso   1.000  O
  O88      1.0000 0.13030  0.80000  0.33040  Biso   1.000  O
  O89      1.0000 0.02110  0.75730  0.52740  Biso   1.000  O
  O90      1.0000 0.21140  0.89540  0.51100  Biso   1.000  O
  O91      1.0000 0.48900  0.76670  0.48960  Biso   1.000  O
  O92      1.0000 0.31350  0.76950  0.47430  Biso   1.000  O
  O93      1.0000 0.01800  0.64880  0.45240  Biso   1.000  O
  O94      1.0000 0.42440  0.65710  0.54510  Biso   1.000  O
  O95      1.0000 0.34590  0.77230  0.58470  Biso   1.000  O
  O96      1.0000 0.40170  0.48000  0.63540  Biso   1.000  O
  O97      1.0000 0.17760  0.82120  0.58840  Biso   1.000  O
  O98      1.0000 0.99470  0.74590  0.36960  Biso   1.000  O
  O99      1.0000 0.19480  0.88780  0.41260  Biso   1.000  O
  O100     1.0000 0.63720  0.65860  0.71630  Biso   1.000  O
  O101     1.0000 0.73320  0.40040  0.64830  Biso   1.000  O
  O102     1.0000 0.32790  0.50800  0.53320  Biso   1.000  O
  O103     1.0000 0.11420  0.54050  0.41260  Biso   1.000  O
  O104     1.0000 0.30500  0.75400  0.36790  Biso   1.000  O
  O105     1.0000 0.96580  0.59200  0.53770  Biso   1.000  O
  O106     1.0000 0.69130  0.49880  0.56770  Biso   1.000  O
  O107     1.0000 0.43540  0.37450  0.70500  Biso   1.000  O
  O108     1.0000 0.40170  0.88850  0.52820  Biso   1.000  O
  O109     1.0000 0.47430  0.55770  0.74240  Biso   1.000  O
  H9       1.0000 0.49950  0.59600  0.76090  Biso   1.000  H
  C5       1.0000 0.54060  0.51810  0.72030  Biso   1.000  C
  C6       1.0000 0.61600  0.47900  0.75720  Biso   1.000  C
  H10      1.0000 0.65780  0.45370  0.74010  Biso   1.000  H
  H11      1.0000 0.59180  0.43700  0.77530  Biso   1.000  H
  H12      1.0000 0.64860  0.52030  0.78060  Biso   1.000  H
  O110     1.0000 0.38300  0.21200  0.67700  Biso   1.000  O
  O111     1.0000 0.44000  0.18800  0.69500  Biso   1.000  O
  W34      1.0000 0.56363  0.27956  0.95270  Biso   1.000  W
  W35      1.0000 0.75348  0.22083  0.89377  Biso   1.000  W
  W36      1.0000 0.58700  0.26997  0.07755  Biso   1.000  W
  W37      1.0000 0.93533  0.13232  0.97687  Biso   1.000  W
  W38      1.0000 0.90141  0.34228  0.97773  Biso   1.000  W
  W39      1.0000 0.95940  0.12175  0.11179  Biso   1.000  W
  W40      1.0000 0.80369  0.19905  0.16957  Biso   1.000  W
  W41      1.0000 0.70958  0.41013  0.03031  Biso   1.000  W
  W42      1.0000 0.92488  0.33232  0.11635  Biso   1.000  W
  W43      1.0000 0.59490  0.06265  0.92010  Biso   1.000  W
  W44      1.0000 0.37131  0.95155  0.89537  Biso   1.000  W
  Eu7      1.0000 0.80183  0.93529  0.02599  Biso   1.000  Eu
  Eu8      1.0000 0.65031  0.78610  0.75827  Biso   1.000  Eu
  As4      1.0000 0.75867  0.17963  0.02897  Biso   1.000  As
  P7       1.0000 0.52220  0.93520  0.82354  Biso   1.000  P
  P8       1.0000 0.41580  0.09210  0.81754  Biso   1.000  P
  O112     1.0000 0.68850  0.11910  0.89750  Biso   1.000  O
  O113     1.0000 0.91040  0.13690  0.17250  Biso   1.000  O
  O114     1.0000 0.82130  0.21660  0.98510  Biso   1.000  O
  O115     1.0000 0.50090  0.12560  0.85780  Biso   1.000  O
  O116     1.0000 0.93920  0.34210  0.04950  Biso   1.000  O
  O117     1.0000 0.35130  0.04310  0.84270  Biso   1.000  O
  O118     1.0000 0.48520  0.00590  0.92510  Biso   1.000  O
  O119     1.0000 0.61710  0.38130  0.07020  Biso   1.000  O
  O120     1.0000 0.40170  0.85090  0.92880  Biso   1.000  O
  O121     1.0000 0.86440  0.15820  0.90660  Biso   1.000  O
  O122     1.0000 0.83820  0.20770  0.08750  Biso   1.000  O
  O123     1.0000 0.86890  0.04620  0.98400  Biso   1.000  O
  O124     1.0000 0.44870  0.89600  0.84600  Biso   1.000  O
  O125     1.0000 0.86970  0.30000  0.16960  Biso   1.000  O
  O126     1.0000 0.97890  0.25730  0.97260  Biso   1.000  O
  O127     1.0000 0.78860  0.39540  0.98900  Biso   1.000  O
  O128     1.0000 0.51100  0.26670  0.01040  Biso   1.000  O
  O129     1.0000 0.68650  0.26950  0.02570  Biso   1.000  O
  O130     1.0000 0.98200  0.14880  0.04760  Biso   1.000  O
  O131     1.0000 0.57560  0.15710  0.95490  Biso   1.000  O
  O132     1.0000 0.65410  0.27230  0.91530  Biso   1.000  O
  O133     1.0000 0.59830  0.98000  0.86460  Biso   1.000  O
  O134     1.0000 0.82240  0.32120  0.91160  Biso   1.000  O
  O135     1.0000 0.00530  0.24590  0.13040  Biso   1.000  O
  O136     1.0000 0.80520  0.38780  0.08740  Biso   1.000  O
  O137     1.0000 0.36280  0.15860  0.78370  Biso   1.000  O
  O138     1.0000 0.26680  0.90040  0.85170  Biso   1.000  O
  O139     1.0000 0.67210  0.00800  0.96680  Biso   1.000  O
  O140     1.0000 0.88580  0.04050  0.08740  Biso   1.000  O
  O141     1.0000 0.69500  0.25400  0.13210  Biso   1.000  O
  O142     1.0000 0.03420  0.09200  0.96230  Biso   1.000  O
  O143     1.0000 0.30870  0.99880  0.93230  Biso   1.000  O
  O144     1.0000 0.56460  0.87450  0.79500  Biso   1.000  O
  O145     1.0000 0.59830  0.38850  0.97180  Biso   1.000  O
  O146     1.0000 0.52570  0.05770  0.75760  Biso   1.000  O
  H13      1.0000 0.50050  0.09600  0.73910  Biso   1.000  H
  C7       1.0000 0.45940  0.01810  0.77970  Biso   1.000  C
  C8       1.0000 0.38400  0.97900  0.74280  Biso   1.000  C
  H14      1.0000 0.34220  0.95370  0.75990  Biso   1.000  H
  H15      1.0000 0.40820  0.93700  0.72470  Biso   1.000  H
  H16      1.0000 0.35140  0.02030  0.71940  Biso   1.000  H
  O147     1.0000 0.61700  0.71200  0.82300  Biso   1.000  O
  O148     1.0000 0.56000  0.68800  0.80500  Biso   1.000  O
