data_image0
_cell_length_a       14.988
_cell_length_b       16.101
_cell_length_c       27.404
_cell_angle_alpha    90
_cell_angle_beta     105.198
_cell_angle_gamma    90

_symmetry_space_group_name_H-M    "P 1"
_symmetry_int_tables_number       1

loop_
  _symmetry_equiv_pos_as_xyz
  'x, y, z'

loop_
  _atom_site_label
  _atom_site_occupancy
  _atom_site_fract_x
  _atom_site_fract_y
  _atom_site_fract_z
  _atom_site_thermal_displace_type
  _atom_site_B_iso_or_equiv
  _atom_site_type_symbol
  W1       1.0000 0.56315  0.22137  0.45213  Biso   1.000  W
  W2       1.0000 0.75301  0.27959  0.39359  Biso   1.000  W
  W3       1.0000 0.58685  0.23087  0.57694  Biso   1.000  W
  W4       1.0000 0.93512  0.36743  0.47682  Biso   1.000  W
  W5       1.0000 0.90050  0.15810  0.47760  Biso   1.000  W
  W6       1.0000 0.95927  0.37788  0.61186  Biso   1.000  W
  W7       1.0000 0.80341  0.30110  0.66931  Biso   1.000  W
  W8       1.0000 0.70890  0.09085  0.52983  Biso   1.000  W
  W9       1.0000 0.92384  0.16787  0.61617  Biso   1.000  W
  W10      1.0000 0.59471  0.43794  0.41966  Biso   1.000  W
  W11      1.0000 0.37155  0.54824  0.39561  Biso   1.000  W
  Sm1      1.0000 0.80210  0.56513  0.52594  Biso   1.000  Sm
  Sm2      1.0000 0.65046  0.71448  0.25892  Biso   1.000  Sm
  As1      1.0000 0.75810  0.32087  0.52866  Biso   1.000  As
  P1       1.0000 0.52100  0.56430  0.32340  Biso   1.000  P
  P2       1.0000 0.41450  0.40880  0.31710  Biso   1.000  P
  O1       1.0000 0.68820  0.37940  0.39730  Biso   1.000  O
  O2       1.0000 0.91310  0.36040  0.67180  Biso   1.000  O
  O3       1.0000 0.82190  0.28320  0.48480  Biso   1.000  O
  O4       1.0000 0.50080  0.37480  0.35900  Biso   1.000  O
  O5       1.0000 0.93740  0.15750  0.54890  Biso   1.000  O
  O6       1.0000 0.35150  0.45850  0.34270  Biso   1.000  O
  O7       1.0000 0.48560  0.49470  0.42430  Biso   1.000  O
  O8       1.0000 0.61800  0.11900  0.56960  Biso   1.000  O
  O9       1.0000 0.40380  0.64760  0.42940  Biso   1.000  O
  O10      1.0000 0.86600  0.34140  0.40750  Biso   1.000  O
  O11      1.0000 0.83710  0.29240  0.58720  Biso   1.000  O
  O12      1.0000 0.86880  0.45380  0.48470  Biso   1.000  O
  O13      1.0000 0.44720  0.60160  0.34660  Biso   1.000  O
  O14      1.0000 0.87070  0.19830  0.66980  Biso   1.000  O
  O15      1.0000 0.97760  0.24480  0.47250  Biso   1.000  O
  O16      1.0000 0.78460  0.10450  0.48960  Biso   1.000  O
  O17      1.0000 0.51190  0.23350  0.50900  Biso   1.000  O
  O18      1.0000 0.68610  0.23210  0.52630  Biso   1.000  O
  O19      1.0000 0.97870  0.35350  0.54810  Biso   1.000  O
  O20      1.0000 0.57620  0.34530  0.45340  Biso   1.000  O
  O21      1.0000 0.65380  0.22850  0.41530  Biso   1.000  O
  O22      1.0000 0.59600  0.51900  0.36500  Biso   1.000  O
  O23      1.0000 0.82010  0.18060  0.41150  Biso   1.000  O
  O24      1.0000 0.00450  0.25380  0.63100  Biso   1.000  O
  O25      1.0000 0.80410  0.11150  0.58740  Biso   1.000  O
  O26      1.0000 0.35900  0.33840  0.28330  Biso   1.000  O
  O27      1.0000 0.26720  0.60070  0.35120  Biso   1.000  O
  O28      1.0000 0.67300  0.49140  0.46770  Biso   1.000  O
  O29      1.0000 0.88660  0.45980  0.58600  Biso   1.000  O
  O30      1.0000 0.69680  0.24670  0.63320  Biso   1.000  O
  O31      1.0000 0.03240  0.40820  0.46140  Biso   1.000  O
  O32      1.0000 0.31210  0.49830  0.43380  Biso   1.000  O
  O33      1.0000 0.56020  0.62880  0.29400  Biso   1.000  O
  O34      1.0000 0.59620  0.11010  0.47170  Biso   1.000  O
  O35      1.0000 0.52300  0.44300  0.25830  Biso   1.000  O
  H1       1.0000 0.49640  0.40510  0.24020  Biso   1.000  H
  C1       1.0000 0.46200  0.48200  0.28000  Biso   1.000  C
  C2       1.0000 0.38500  0.51700  0.24170  Biso   1.000  C
  H2       1.0000 0.34340  0.54430  0.25770  Biso   1.000  H
  H3       1.0000 0.40860  0.55680  0.22200  Biso   1.000  H
  H4       1.0000 0.35350  0.47360  0.22020  Biso   1.000  H
  O36      1.0000 0.61400  0.79100  0.32000  Biso   1.000  O
  O37      1.0000 0.54800  0.80900  0.30200  Biso   1.000  O
  W12      1.0000 0.43685  0.72137  0.04787  Biso   1.000  W
  W13      1.0000 0.24699  0.77959  0.10641  Biso   1.000  W
  W14      1.0000 0.41315  0.73087  0.92306  Biso   1.000  W
  W15      1.0000 0.06488  0.86743  0.02318  Biso   1.000  W
  W16      1.0000 0.09950  0.65810  0.02240  Biso   1.000  W
  W17      1.0000 0.04073  0.87788  0.88814  Biso   1.000  W
  W18      1.0000 0.19659  0.80110  0.83069  Biso   1.000  W
  W19      1.0000 0.29110  0.59085  0.97017  Biso   1.000  W
  W20      1.0000 0.07616  0.66787  0.88383  Biso   1.000  W
  W21      1.0000 0.40529  0.93794  0.08034  Biso   1.000  W
  W22      1.0000 0.62845  0.04824  0.10439  Biso   1.000  W
  Sm3      1.0000 0.19790  0.06513  0.97406  Biso   1.000  Sm
  Sm4      1.0000 0.34954  0.21448  0.24108  Biso   1.000  Sm
  As2      1.0000 0.24190  0.82087  0.97134  Biso   1.000  As
  P3       1.0000 0.47900  0.06430  0.17660  Biso   1.000  P
  P4       1.0000 0.58550  0.90880  0.18290  Biso   1.000  P
  O38      1.0000 0.31180  0.87940  0.10270  Biso   1.000  O
  O39      1.0000 0.08690  0.86040  0.82820  Biso   1.000  O
  O40      1.0000 0.17810  0.78320  0.01520  Biso   1.000  O
  O41      1.0000 0.49920  0.87480  0.14100  Biso   1.000  O
  O42      1.0000 0.06260  0.65750  0.95110  Biso   1.000  O
  O43      1.0000 0.64850  0.95850  0.15730  Biso   1.000  O
  O44      1.0000 0.51440  0.99470  0.07570  Biso   1.000  O
  O45      1.0000 0.38200  0.61900  0.93040  Biso   1.000  O
  O46      1.0000 0.59620  0.14760  0.07060  Biso   1.000  O
  O47      1.0000 0.13400  0.84140  0.09250  Biso   1.000  O
  O48      1.0000 0.16290  0.79240  0.91280  Biso   1.000  O
  O49      1.0000 0.13120  0.95380  0.01530  Biso   1.000  O
  O50      1.0000 0.55280  0.10160  0.15340  Biso   1.000  O
  O51      1.0000 0.12930  0.69830  0.83020  Biso   1.000  O
  O52      1.0000 0.02240  0.74480  0.02750  Biso   1.000  O
  O53      1.0000 0.21540  0.60450  0.01040  Biso   1.000  O
  O54      1.0000 0.48810  0.73350  0.99100  Biso   1.000  O
  O55      1.0000 0.31390  0.73210  0.97370  Biso   1.000  O
  O56      1.0000 0.02130  0.85350  0.95190  Biso   1.000  O
  O57      1.0000 0.42380  0.84530  0.04660  Biso   1.000  O
  O58      1.0000 0.34620  0.72850  0.08470  Biso   1.000  O
  O59      1.0000 0.40400  0.01900  0.13500  Biso   1.000  O
  O60      1.0000 0.17990  0.68060  0.08850  Biso   1.000  O
  O61      1.0000 0.99550  0.75380  0.86900  Biso   1.000  O
  O62      1.0000 0.19590  0.61150  0.91260  Biso   1.000  O
  O63      1.0000 0.64100  0.83840  0.21670  Biso   1.000  O
  O64      1.0000 0.73280  0.10070  0.14880  Biso   1.000  O
  O65      1.0000 0.32700  0.99140  0.03230  Biso   1.000  O
  O66      1.0000 0.11340  0.95980  0.91400  Biso   1.000  O
  O67      1.0000 0.30320  0.74670  0.86680  Biso   1.000  O
  O68      1.0000 0.96760  0.90820  0.03860  Biso   1.000  O
  O69      1.0000 0.68790  0.99830  0.06620  Biso   1.000  O
  O70      1.0000 0.43980  0.12880  0.20600  Biso   1.000  O
  O71      1.0000 0.40380  0.61010  0.02830  Biso   1.000  O
  O72      1.0000 0.47700  0.94300  0.24170  Biso   1.000  O
  H5       1.0000 0.50360  0.90510  0.25980  Biso   1.000  H
  C3       1.0000 0.53800  0.98200  0.22000  Biso   1.000  C
  C4       1.0000 0.61500  0.01700  0.25830  Biso   1.000  C
  H6       1.0000 0.65660  0.04430  0.24230  Biso   1.000  H
  H7       1.0000 0.59140  0.05680  0.27800  Biso   1.000  H
  H8       1.0000 0.64650  0.97360  0.27980  Biso   1.000  H
  O73      1.0000 0.38600  0.29100  0.18000  Biso   1.000  O
  O74      1.0000 0.45200  0.30900  0.19800  Biso   1.000  O
  W23      1.0000 0.43685  0.77863  0.54787  Biso   1.000  W
  W24      1.0000 0.24699  0.72041  0.60641  Biso   1.000  W
  W25      1.0000 0.41315  0.76913  0.42306  Biso   1.000  W
  W26      1.0000 0.06488  0.63257  0.52318  Biso   1.000  W
  W27      1.0000 0.09950  0.84190  0.52240  Biso   1.000  W
  W28      1.0000 0.04073  0.62212  0.38814  Biso   1.000  W
  W29      1.0000 0.19659  0.69890  0.33069  Biso   1.000  W
  W30      1.0000 0.29110  0.90915  0.47017  Biso   1.000  W
  W31      1.0000 0.07616  0.83213  0.38383  Biso   1.000  W
  W32      1.0000 0.40529  0.56206  0.58034  Biso   1.000  W
  W33      1.0000 0.62845  0.45176  0.60439  Biso   1.000  W
  Sm5      1.0000 0.19790  0.43487  0.47406  Biso   1.000  Sm
  Sm6      1.0000 0.34954  0.28552  0.74108  Biso   1.000  Sm
  As3      1.0000 0.24190  0.67913  0.47134  Biso   1.000  As
  P5       1.0000 0.47900  0.43570  0.67660  Biso   1.000  P
  P6       1.0000 0.58550  0.59120  0.68290  Biso   1.000  P
  O75      1.0000 0.31180  0.62060  0.60270  Biso   1.000  O
  O76      1.0000 0.08690  0.63960  0.32820  Biso   1.000  O
  O77      1.0000 0.17810  0.71680  0.51520  Biso   1.000  O
  O78      1.0000 0.49920  0.62520  0.64100  Biso   1.000  O
  O79      1.0000 0.06260  0.84250  0.45110  Biso   1.000  O
  O80      1.0000 0.64850  0.54150  0.65730  Biso   1.000  O
  O81      1.0000 0.51440  0.50530  0.57570  Biso   1.000  O
  O82      1.0000 0.38200  0.88100  0.43040  Biso   1.000  O
  O83      1.0000 0.59620  0.35240  0.57060  Biso   1.000  O
  O84      1.0000 0.13400  0.65860  0.59250  Biso   1.000  O
  O85      1.0000 0.16290  0.70760  0.41280  Biso   1.000  O
  O86      1.0000 0.13120  0.54620  0.51530  Biso   1.000  O
  O87      1.0000 0.55280  0.39840  0.65340  Biso   1.000  O
  O88      1.0000 0.12930  0.80170  0.33020  Biso   1.000  O
  O89      1.0000 0.02240  0.75520  0.52750  Biso   1.000  O
  O90      1.0000 0.21540  0.89550  0.51040  Biso   1.000  O
  O91      1.0000 0.48810  0.76650  0.49100  Biso   1.000  O
  O92      1.0000 0.31390  0.76790  0.47370  Biso   1.000  O
  O93      1.0000 0.02130  0.64650  0.45190  Biso   1.000  O
  O94      1.0000 0.42380  0.65470  0.54660  Biso   1.000  O
  O95      1.0000 0.34620  0.77150  0.58470  Biso   1.000  O
  O96      1.0000 0.40400  0.48100  0.63500  Biso   1.000  O
  O97      1.0000 0.17990  0.81940  0.58850  Biso   1.000  O
  O98      1.0000 0.99550  0.74620  0.36900  Biso   1.000  O
  O99      1.0000 0.19590  0.88850  0.41260  Biso   1.000  O
  O100     1.0000 0.64100  0.66160  0.71670  Biso   1.000  O
  O101     1.0000 0.73280  0.39930  0.64880  Biso   1.000  O
  O102     1.0000 0.32700  0.50860  0.53230  Biso   1.000  O
  O103     1.0000 0.11340  0.54020  0.41400  Biso   1.000  O
  O104     1.0000 0.30320  0.75330  0.36680  Biso   1.000  O
  O105     1.0000 0.96760  0.59180  0.53860  Biso   1.000  O
  O106     1.0000 0.68790  0.50170  0.56620  Biso   1.000  O
  O107     1.0000 0.43980  0.37120  0.70600  Biso   1.000  O
  O108     1.0000 0.40380  0.88990  0.52830  Biso   1.000  O
  O109     1.0000 0.47700  0.55700  0.74170  Biso   1.000  O
  H9       1.0000 0.50360  0.59490  0.75980  Biso   1.000  H
  C5       1.0000 0.53800  0.51800  0.72000  Biso   1.000  C
  C6       1.0000 0.61500  0.48300  0.75830  Biso   1.000  C
  H10      1.0000 0.65660  0.45570  0.74230  Biso   1.000  H
  H11      1.0000 0.59140  0.44320  0.77800  Biso   1.000  H
  H12      1.0000 0.64650  0.52640  0.77980  Biso   1.000  H
  O110     1.0000 0.38600  0.20900  0.68000  Biso   1.000  O
  O111     1.0000 0.45200  0.19100  0.69800  Biso   1.000  O
  W34      1.0000 0.56315  0.27863  0.95213  Biso   1.000  W
  W35      1.0000 0.75301  0.22041  0.89359  Biso   1.000  W
  W36      1.0000 0.58685  0.26913  0.07694  Biso   1.000  W
  W37      1.0000 0.93512  0.13257  0.97682  Biso   1.000  W
  W38      1.0000 0.90050  0.34190  0.97760  Biso   1.000  W
  W39      1.0000 0.95927  0.12212  0.11186  Biso   1.000  W
  W40      1.0000 0.80341  0.19890  0.16931  Biso   1.000  W
  W41      1.0000 0.70890  0.40915  0.02983  Biso   1.000  W
  W42      1.0000 0.92384  0.33213  0.11617  Biso   1.000  W
  W43      1.0000 0.59471  0.06206  0.91966  Biso   1.000  W
  W44      1.0000 0.37155  0.95176  0.89561  Biso   1.000  W
  Sm7      1.0000 0.80210  0.93487  0.02594  Biso   1.000  Sm
  Sm8      1.0000 0.65046  0.78552  0.75892  Biso   1.000  Sm
  As4      1.0000 0.75810  0.17913  0.02866  Biso   1.000  As
  P7       1.0000 0.52100  0.93570  0.82340  Biso   1.000  P
  P8       1.0000 0.41450  0.09120  0.81710  Biso   1.000  P
  O112     1.0000 0.68820  0.12060  0.89730  Biso   1.000  O
  O113     1.0000 0.91310  0.13960  0.17180  Biso   1.000  O
  O114     1.0000 0.82190  0.21680  0.98480  Biso   1.000  O
  O115     1.0000 0.50080  0.12520  0.85900  Biso   1.000  O
  O116     1.0000 0.93740  0.34250  0.04890  Biso   1.000  O
  O117     1.0000 0.35150  0.04150  0.84270  Biso   1.000  O
  O118     1.0000 0.48560  0.00530  0.92430  Biso   1.000  O
  O119     1.0000 0.61800  0.38100  0.06960  Biso   1.000  O
  O120     1.0000 0.40380  0.85240  0.92940  Biso   1.000  O
  O121     1.0000 0.86600  0.15860  0.90750  Biso   1.000  O
  O122     1.0000 0.83710  0.20760  0.08720  Biso   1.000  O
  O123     1.0000 0.86880  0.04620  0.98470  Biso   1.000  O
  O124     1.0000 0.44720  0.89840  0.84660  Biso   1.000  O
  O125     1.0000 0.87070  0.30170  0.16980  Biso   1.000  O
  O126     1.0000 0.97760  0.25520  0.97250  Biso   1.000  O
  O127     1.0000 0.78460  0.39550  0.98960  Biso   1.000  O
  O128     1.0000 0.51190  0.26650  0.00900  Biso   1.000  O
  O129     1.0000 0.68610  0.26790  0.02630  Biso   1.000  O
  O130     1.0000 0.97870  0.14650  0.04810  Biso   1.000  O
  O131     1.0000 0.57620  0.15470  0.95340  Biso   1.000  O
  O132     1.0000 0.65380  0.27150  0.91530  Biso   1.000  O
  O133     1.0000 0.59600  0.98100  0.86500  Biso   1.000  O
  O134     1.0000 0.82010  0.31940  0.91150  Biso   1.000  O
  O135     1.0000 0.00450  0.24620  0.13100  Biso   1.000  O
  O136     1.0000 0.80410  0.38850  0.08740  Biso   1.000  O
  O137     1.0000 0.35900  0.16160  0.78330  Biso   1.000  O
  O138     1.0000 0.26720  0.89930  0.85120  Biso   1.000  O
  O139     1.0000 0.67300  0.00860  0.96770  Biso   1.000  O
  O140     1.0000 0.88660  0.04020  0.08600  Biso   1.000  O
  O141     1.0000 0.69680  0.25330  0.13320  Biso   1.000  O
  O142     1.0000 0.03240  0.09180  0.96140  Biso   1.000  O
  O143     1.0000 0.31210  0.00170  0.93380  Biso   1.000  O
  O144     1.0000 0.56020  0.87120  0.79400  Biso   1.000  O
  O145     1.0000 0.59620  0.38990  0.97170  Biso   1.000  O
  O146     1.0000 0.52300  0.05700  0.75830  Biso   1.000  O
  H13      1.0000 0.49640  0.09490  0.74020  Biso   1.000  H
  C7       1.0000 0.46200  0.01800  0.78000  Biso   1.000  C
  C8       1.0000 0.38500  0.98300  0.74170  Biso   1.000  C
  H14      1.0000 0.34340  0.95570  0.75770  Biso   1.000  H
  H15      1.0000 0.40860  0.94320  0.72200  Biso   1.000  H
  H16      1.0000 0.35350  0.02640  0.72020  Biso   1.000  H
  O147     1.0000 0.61400  0.70900  0.82000  Biso   1.000  O
  O148     1.0000 0.54800  0.69100  0.80200  Biso   1.000  O
