data_image0
_cell_length_a       14.915
_cell_length_b       15.7739
_cell_length_c       16.032
_cell_angle_alpha    100.659
_cell_angle_beta     112.209
_cell_angle_gamma    107.228

_symmetry_space_group_name_H-M    "P 1"
_symmetry_int_tables_number       1

loop_
  _symmetry_equiv_pos_as_xyz
  'x, y, z'

loop_
  _atom_site_label
  _atom_site_occupancy
  _atom_site_fract_x
  _atom_site_fract_y
  _atom_site_fract_z
  _atom_site_thermal_displace_type
  _atom_site_B_iso_or_equiv
  _atom_site_type_symbol
  Cd1      1.0000 0.63231  0.76886  0.80324  Biso   1.000  Cd
  Cd2      1.0000 0.69141  0.57245  0.82020  Biso   1.000  Cd
  Cd3      1.0000 0.78987  0.76336  0.06296  Biso   1.000  Cd
  O1       1.0000 0.79960  0.73740  0.86810  Biso   1.000  O
  O2       1.0000 0.91790  0.80790  0.02200  Biso   1.000  O
  O3       1.0000 0.24920  0.07830  0.12050  Biso   1.000  O
  O4       1.0000 0.26630  0.13530  0.00900  Biso   1.000  O
  O5       1.0000 0.50150  0.79740  0.85140  Biso   1.000  O
  O6       1.0000 0.46170  0.74930  0.69970  Biso   1.000  O
  O7       1.0000 0.94130  0.81110  0.21450  Biso   1.000  O
  O8       1.0000 0.80070  0.81740  0.21120  Biso   1.000  O
  O9       1.0000 0.59140  0.64670  0.86060  Biso   1.000  O
  O10      1.0000 0.61720  0.68470  0.01140  Biso   1.000  O
  O11      1.0000 0.34660  0.51180  0.08940  Biso   1.000  O
  O12      1.0000 0.20920  0.38490  0.97710  Biso   1.000  O
  O13      1.0000 0.84570  0.58760  0.80650  Biso   1.000  O
  O14      1.0000 0.72820  0.44550  0.74740  Biso   1.000  O
  O15      1.0000 0.33320  0.24150  0.33080  Biso   1.000  O
  O16      1.0000 0.38810  0.37610  0.30700  Biso   1.000  O
  N1       1.0000 0.01550  0.85180  0.69760  Biso   1.000  N
  N2       1.0000 0.19350  0.45630  0.67020  Biso   1.000  N
  C1       1.0000 0.89050  0.79190  0.93440  Biso   1.000  C
  C2       1.0000 0.97250  0.84690  0.90990  Biso   1.000  C
  C3       1.0000 0.05880  0.92640  0.98076  Biso   1.000  C
  H1       1.0000 0.06800  0.94251  0.04442  Biso   1.000  H
  C4       1.0000 0.13170  0.98250  0.95843  Biso   1.000  C
  C5       1.0000 0.11820  0.95890  0.86530  Biso   1.000  C
  H2       1.0000 0.16798  0.99722  0.85002  Biso   1.000  H
  C6       1.0000 0.03190  0.87940  0.79447  Biso   1.000  C
  C7       1.0000 0.95900  0.82335  0.81680  Biso   1.000  C
  H3       1.0000 0.90004  0.76898  0.76840  Biso   1.000  H
  C8       1.0000 0.22130  0.07080  0.03380  Biso   1.000  C
  C9       1.0000 0.01220  0.75720  0.65940  Biso   1.000  C
  H4       1.0000 0.97140  0.73429  0.58883  Biso   1.000  H
  H5       1.0000 0.97430  0.71317  0.68337  Biso   1.000  H
  C10      1.0000 0.12150  0.75560  0.68690  Biso   1.000  C
  C11      1.0000 0.15620  0.74670  0.61785  Biso   1.000  C
  H6       1.0000 0.11056  0.73765  0.55363  Biso   1.000  H
  C12      1.0000 0.25780  0.75090  0.64280  Biso   1.000  C
  H7       1.0000 0.28158  0.74481  0.59564  Biso   1.000  H
  C13      1.0000 0.32460  0.76410  0.73680  Biso   1.000  C
  C14      1.0000 0.28990  0.77300  0.80580  Biso   1.000  C
  H8       1.0000 0.33554  0.78205  0.86999  Biso   1.000  H
  C15      1.0000 0.18830  0.76880  0.78080  Biso   1.000  C
  H9       1.0000 0.16452  0.77489  0.82798  Biso   1.000  H
  C16      1.0000 0.43650  0.77130  0.76410  Biso   1.000  C
  C17      1.0000 0.07400  0.92350  0.66970  Biso   1.000  C
  H10      1.0000 0.14816  0.92951  0.69544  Biso   1.000  H
  H11      1.0000 0.07492  0.98485  0.69929  Biso   1.000  H
  C18      1.0000 0.02870  0.90200  0.56310  Biso   1.000  C
  C19      1.0000 0.92200  0.88100  0.50930  Biso   1.000  C
  H12      1.0000 0.87838  0.88108  0.53984  Biso   1.000  H
  C20      1.0000 0.87900  0.86050  0.41080  Biso   1.000  C
  H13      1.0000 0.80599  0.84610  0.37396  Biso   1.000  H
  C21      1.0000 0.94270  0.86100  0.36600  Biso   1.000  C
  C22      1.0000 0.04950  0.88200  0.41990  Biso   1.000  C
  H14      1.0000 0.09309  0.88226  0.38931  Biso   1.000  H
  C23      1.0000 0.09250  0.90300  0.51840  Biso   1.000  C
  H15      1.0000 0.16548  0.91724  0.55518  Biso   1.000  H
  C24      1.0000 0.89360  0.82830  0.25910  Biso   1.000  C
  C25      1.0000 0.55920  0.64240  0.92400  Biso   1.000  C
  C26      1.0000 0.44653  0.58140  0.89180  Biso   1.000  C
  C27      1.0000 0.41750  0.55360  0.95837  Biso   1.000  C
  H16      1.0000 0.46779  0.57743  0.02405  Biso   1.000  H
  C28      1.0000 0.31470  0.49070  0.92890  Biso   1.000  C
  C29      1.0000 0.24110  0.45580  0.83280  Biso   1.000  C
  H17      1.0000 0.17090  0.41287  0.81259  Biso   1.000  H
  C30      1.0000 0.27020  0.48370  0.76616  Biso   1.000  C
  C31      1.0000 0.37290  0.54650  0.79570  Biso   1.000  C
  H18      1.0000 0.39275  0.56553  0.75014  Biso   1.000  H
  C32      1.0000 0.28740  0.46030  0.00240  Biso   1.000  C
  C33      1.0000 0.08950  0.38370  0.63550  Biso   1.000  C
  H19      1.0000 0.09710  0.33041  0.65745  Biso   1.000  H
  H20      1.0000 0.05465  0.36026  0.56474  Biso   1.000  H
  C34      1.0000 0.01910  0.41650  0.66840  Biso   1.000  C
  C35      1.0000 0.92390  0.34980  0.65270  Biso   1.000  C
  H21      1.0000 0.90433  0.28488  0.62232  Biso   1.000  H
  C36      1.0000 0.85730  0.37820  0.68150  Biso   1.000  C
  H22      1.0000 0.79228  0.33260  0.67082  Biso   1.000  H
  C37      1.0000 0.88590  0.47320  0.72600  Biso   1.000  C
  C38      1.0000 0.98110  0.53980  0.74170  Biso   1.000  C
  H23      1.0000 0.00065  0.60473  0.77209  Biso   1.000  H
  C39      1.0000 0.04770  0.51150  0.71290  Biso   1.000  C
  H24      1.0000 0.11271  0.55701  0.72359  Biso   1.000  H
  C40      1.0000 0.81570  0.50260  0.76130  Biso   1.000  C
  C41      1.0000 0.21660  0.50250  0.60550  Biso   1.000  C
  H25      1.0000 0.26534  0.56919  0.64313  Biso   1.000  H
  H26      1.0000 0.14997  0.50191  0.55860  Biso   1.000  H
  C42      1.0000 0.26600  0.45870  0.55010  Biso   1.000  C
  C43      1.0000 0.25130  0.36480  0.53320  Biso   1.000  C
  H27      1.0000 0.21954  0.32898  0.56374  Biso   1.000  H
  C44      1.0000 0.28300  0.32310  0.47140  Biso   1.000  C
  H28      1.0000 0.27297  0.25893  0.45983  Biso   1.000  H
  C45      1.0000 0.32950  0.37550  0.42670  Biso   1.000  C
  C46      1.0000 0.34420  0.46950  0.44370  Biso   1.000  C
  H29      1.0000 0.37592  0.50524  0.41310  Biso   1.000  H
  C47      1.0000 0.31240  0.51110  0.50540  Biso   1.000  C
  H30      1.0000 0.32249  0.57530  0.51701  Biso   1.000  H
  C48      1.0000 0.35160  0.32810  0.35070  Biso   1.000  C
  O17      1.0000 0.92160  0.83920  0.21710  Biso   1.000  O
  O18      1.0000 0.76750  0.79250  0.21150  Biso   1.000  O
  O19      1.0000 0.80340  0.54310  0.78060  Biso   1.000  O
  O20      1.0000 0.68990  0.39590  0.70160  Biso   1.000  O
  H31      1.0000 0.14687  0.92678  0.69066  Biso   1.000  H
  H32      1.0000 0.07855  0.98585  0.70135  Biso   1.000  H
  C49      1.0000 0.01900  0.89900  0.56230  Biso   1.000  C
  C50      1.0000 0.90990  0.87000  0.51370  Biso   1.000  C
  H33      1.0000 0.86986  0.86649  0.54802  Biso   1.000  H
  C51      1.0000 0.85940  0.84730  0.41490  Biso   1.000  C
  H34      1.0000 0.78485  0.82750  0.38164  Biso   1.000  H
  C52      1.0000 0.91800  0.85310  0.36460  Biso   1.000  C
  C53      1.0000 0.02700  0.88200  0.41320  Biso   1.000  C
  H35      1.0000 0.06707  0.88613  0.37888  Biso   1.000  H
  C54      1.0000 0.07750  0.90500  0.51200  Biso   1.000  C
  H36      1.0000 0.15209  0.92512  0.54526  Biso   1.000  H
  C55      1.0000 0.86460  0.82630  0.25790  Biso   1.000  C
  H37      1.0000 0.09900  0.33322  0.66188  Biso   1.000  H
  H38      1.0000 0.05959  0.35650  0.56528  Biso   1.000  H
  C56      1.0000 0.00730  0.40680  0.65510  Biso   1.000  C
  C57      1.0000 0.91720  0.33270  0.63880  Biso   1.000  C
  H39      1.0000 0.90625  0.26952  0.61100  Biso   1.000  H
  C58      1.0000 0.84310  0.35100  0.66320  Biso   1.000  C
  H40      1.0000 0.78149  0.30030  0.65209  Biso   1.000  H
  C59      1.0000 0.85910  0.44340  0.70390  Biso   1.000  C
  C60      1.0000 0.94910  0.51750  0.72020  Biso   1.000  C
  H41      1.0000 0.96007  0.58066  0.74801  Biso   1.000  H
  C61      1.0000 0.02330  0.49920  0.69580  Biso   1.000  C
  H42      1.0000 0.08483  0.54987  0.70693  Biso   1.000  H
  C62      1.0000 0.77830  0.46140  0.73010  Biso   1.000  C
  Cd4      1.0000 0.36769  0.23114  0.19676  Biso   1.000  Cd
  Cd5      1.0000 0.30859  0.42755  0.17980  Biso   1.000  Cd
  Cd6      1.0000 0.21013  0.23664  0.93704  Biso   1.000  Cd
  O21      1.0000 0.20040  0.26260  0.13190  Biso   1.000  O
  O22      1.0000 0.08210  0.19210  0.97800  Biso   1.000  O
  O23      1.0000 0.75080  0.92170  0.87950  Biso   1.000  O
  O24      1.0000 0.73370  0.86470  0.99100  Biso   1.000  O
  O25      1.0000 0.49850  0.20260  0.14860  Biso   1.000  O
  O26      1.0000 0.53830  0.25070  0.30030  Biso   1.000  O
  O27      1.0000 0.05870  0.18890  0.78550  Biso   1.000  O
  O28      1.0000 0.19930  0.18260  0.78880  Biso   1.000  O
  O29      1.0000 0.40860  0.35330  0.13940  Biso   1.000  O
  O30      1.0000 0.38280  0.31530  0.98860  Biso   1.000  O
  O31      1.0000 0.65340  0.48820  0.91060  Biso   1.000  O
  O32      1.0000 0.79080  0.61510  0.02290  Biso   1.000  O
  O33      1.0000 0.15430  0.41240  0.19350  Biso   1.000  O
  O34      1.0000 0.27180  0.55450  0.25260  Biso   1.000  O
  O35      1.0000 0.66680  0.75850  0.66920  Biso   1.000  O
  O36      1.0000 0.61190  0.62390  0.69300  Biso   1.000  O
  N3       1.0000 0.98450  0.14820  0.30240  Biso   1.000  N
  N4       1.0000 0.80650  0.54370  0.32980  Biso   1.000  N
  C63      1.0000 0.10950  0.20810  0.06560  Biso   1.000  C
  C64      1.0000 0.02750  0.15310  0.09010  Biso   1.000  C
  C65      1.0000 0.94120  0.07360  0.01924  Biso   1.000  C
  H43      1.0000 0.93200  0.05749  0.95558  Biso   1.000  H
  C66      1.0000 0.86830  0.01750  0.04157  Biso   1.000  C
  C67      1.0000 0.88180  0.04110  0.13470  Biso   1.000  C
  H44      1.0000 0.83202  0.00278  0.14998  Biso   1.000  H
  C68      1.0000 0.96810  0.12060  0.20553  Biso   1.000  C
  C69      1.0000 0.04100  0.17665  0.18320  Biso   1.000  C
  H45      1.0000 0.09996  0.23102  0.23160  Biso   1.000  H
  C70      1.0000 0.77870  0.92920  0.96620  Biso   1.000  C
  C71      1.0000 0.98780  0.24280  0.34060  Biso   1.000  C
  H46      1.0000 0.02860  0.26571  0.41117  Biso   1.000  H
  H47      1.0000 0.02570  0.28683  0.31663  Biso   1.000  H
  C72      1.0000 0.87850  0.24440  0.31310  Biso   1.000  C
  C73      1.0000 0.84380  0.25330  0.38215  Biso   1.000  C
  H48      1.0000 0.88944  0.26235  0.44637  Biso   1.000  H
  C74      1.0000 0.74220  0.24910  0.35720  Biso   1.000  C
  H49      1.0000 0.71842  0.25519  0.40436  Biso   1.000  H
  C75      1.0000 0.67540  0.23590  0.26320  Biso   1.000  C
  C76      1.0000 0.71010  0.22700  0.19420  Biso   1.000  C
  H50      1.0000 0.66446  0.21795  0.13001  Biso   1.000  H
  C77      1.0000 0.81170  0.23120  0.21920  Biso   1.000  C
  H51      1.0000 0.83548  0.22511  0.17202  Biso   1.000  H
  C78      1.0000 0.56350  0.22870  0.23590  Biso   1.000  C
  C79      1.0000 0.92600  0.07650  0.33030  Biso   1.000  C
  H52      1.0000 0.85184  0.07049  0.30456  Biso   1.000  H
  H53      1.0000 0.92508  0.01515  0.30071  Biso   1.000  H
  C80      1.0000 0.97130  0.09800  0.43690  Biso   1.000  C
  C81      1.0000 0.07800  0.11900  0.49070  Biso   1.000  C
  H54      1.0000 0.12162  0.11892  0.46016  Biso   1.000  H
  C82      1.0000 0.12100  0.13950  0.58920  Biso   1.000  C
  H55      1.0000 0.19401  0.15390  0.62604  Biso   1.000  H
  C83      1.0000 0.05730  0.13900  0.63400  Biso   1.000  C
  C84      1.0000 0.95050  0.11800  0.58010  Biso   1.000  C
  H56      1.0000 0.90691  0.11774  0.61069  Biso   1.000  H
  C85      1.0000 0.90750  0.09700  0.48160  Biso   1.000  C
  H57      1.0000 0.83452  0.08276  0.44482  Biso   1.000  H
  C86      1.0000 0.10640  0.17170  0.74090  Biso   1.000  C
  C87      1.0000 0.44080  0.35760  0.07600  Biso   1.000  C
  C88      1.0000 0.55347  0.41860  0.10820  Biso   1.000  C
  C89      1.0000 0.58250  0.44640  0.04163  Biso   1.000  C
  H58      1.0000 0.53221  0.42257  0.97595  Biso   1.000  H
  C90      1.0000 0.68530  0.50930  0.07110  Biso   1.000  C
  C91      1.0000 0.75890  0.54420  0.16720  Biso   1.000  C
  H59      1.0000 0.82910  0.58713  0.18741  Biso   1.000  H
  C92      1.0000 0.72980  0.51630  0.23384  Biso   1.000  C
  C93      1.0000 0.62710  0.45350  0.20430  Biso   1.000  C
  H60      1.0000 0.60725  0.43447  0.24986  Biso   1.000  H
  C94      1.0000 0.71260  0.53970  0.99760  Biso   1.000  C
  C95      1.0000 0.91050  0.61630  0.36450  Biso   1.000  C
  H61      1.0000 0.90290  0.66959  0.34255  Biso   1.000  H
  H62      1.0000 0.94535  0.63974  0.43526  Biso   1.000  H
  C96      1.0000 0.98090  0.58350  0.33160  Biso   1.000  C
  C97      1.0000 0.07610  0.65020  0.34730  Biso   1.000  C
  H63      1.0000 0.09567  0.71512  0.37768  Biso   1.000  H
  C98      1.0000 0.14270  0.62180  0.31850  Biso   1.000  C
  H64      1.0000 0.20772  0.66740  0.32918  Biso   1.000  H
  C99      1.0000 0.11410  0.52680  0.27400  Biso   1.000  C
  C100     1.0000 0.01890  0.46020  0.25830  Biso   1.000  C
  H65      1.0000 0.99935  0.39527  0.22791  Biso   1.000  H
  C101     1.0000 0.95230  0.48850  0.28710  Biso   1.000  C
  H66      1.0000 0.88729  0.44299  0.27641  Biso   1.000  H
  C102     1.0000 0.18430  0.49740  0.23870  Biso   1.000  C
  C103     1.0000 0.78340  0.49750  0.39450  Biso   1.000  C
  H67      1.0000 0.73466  0.43081  0.35687  Biso   1.000  H
  H68      1.0000 0.85003  0.49809  0.44140  Biso   1.000  H
  C104     1.0000 0.73400  0.54130  0.44990  Biso   1.000  C
  C105     1.0000 0.74870  0.63520  0.46680  Biso   1.000  C
  H69      1.0000 0.78046  0.67102  0.43626  Biso   1.000  H
  C106     1.0000 0.71700  0.67690  0.52860  Biso   1.000  C
  H70      1.0000 0.72703  0.74107  0.54017  Biso   1.000  H
  C107     1.0000 0.67050  0.62450  0.57330  Biso   1.000  C
  C108     1.0000 0.65580  0.53050  0.55630  Biso   1.000  C
  H71      1.0000 0.62408  0.49476  0.58690  Biso   1.000  H
  C109     1.0000 0.68760  0.48890  0.49460  Biso   1.000  C
  H72      1.0000 0.67751  0.42470  0.48299  Biso   1.000  H
  C110     1.0000 0.64840  0.67190  0.64930  Biso   1.000  C
  O37      1.0000 0.07840  0.16080  0.78290  Biso   1.000  O
  O38      1.0000 0.23250  0.20750  0.78850  Biso   1.000  O
  O39      1.0000 0.19660  0.45690  0.21940  Biso   1.000  O
  O40      1.0000 0.31010  0.60410  0.29840  Biso   1.000  O
  H73      1.0000 0.85313  0.07322  0.30934  Biso   1.000  H
  H74      1.0000 0.92145  0.01415  0.29865  Biso   1.000  H
  C111     1.0000 0.98100  0.10100  0.43770  Biso   1.000  C
  C112     1.0000 0.09010  0.13000  0.48630  Biso   1.000  C
  H75      1.0000 0.13014  0.13351  0.45198  Biso   1.000  H
  C113     1.0000 0.14060  0.15270  0.58510  Biso   1.000  C
  H76      1.0000 0.21515  0.17250  0.61836  Biso   1.000  H
  C114     1.0000 0.08200  0.14690  0.63540  Biso   1.000  C
  C115     1.0000 0.97300  0.11800  0.58680  Biso   1.000  C
  H77      1.0000 0.93293  0.11387  0.62112  Biso   1.000  H
  C116     1.0000 0.92250  0.09500  0.48800  Biso   1.000  C
  H78      1.0000 0.84791  0.07488  0.45474  Biso   1.000  H
  C117     1.0000 0.13540  0.17370  0.74210  Biso   1.000  C
  H79      1.0000 0.90100  0.66678  0.33812  Biso   1.000  H
  H80      1.0000 0.94041  0.64350  0.43472  Biso   1.000  H
  C118     1.0000 0.99270  0.59320  0.34490  Biso   1.000  C
  C119     1.0000 0.08280  0.66730  0.36120  Biso   1.000  C
  H81      1.0000 0.09375  0.73048  0.38900  Biso   1.000  H
  C120     1.0000 0.15690  0.64900  0.33680  Biso   1.000  C
  H82      1.0000 0.21851  0.69970  0.34791  Biso   1.000  H
  C121     1.0000 0.14090  0.55660  0.29610  Biso   1.000  C
  C122     1.0000 0.05090  0.48250  0.27980  Biso   1.000  C
  H83      1.0000 0.03993  0.41934  0.25199  Biso   1.000  H
  C123     1.0000 0.97670  0.50080  0.30420  Biso   1.000  C
  H84      1.0000 0.91517  0.45013  0.29307  Biso   1.000  H
  C124     1.0000 0.22170  0.53860  0.26990  Biso   1.000  C
