data_image0
_cell_length_a       15.0294
_cell_length_b       15.0294
_cell_length_c       19.2362
_cell_angle_alpha    90
_cell_angle_beta     90
_cell_angle_gamma    90

_symmetry_space_group_name_H-M    "P 1"
_symmetry_int_tables_number       1

loop_
  _symmetry_equiv_pos_as_xyz
  'x, y, z'

loop_
  _atom_site_label
  _atom_site_occupancy
  _atom_site_fract_x
  _atom_site_fract_y
  _atom_site_fract_z
  _atom_site_thermal_displace_type
  _atom_site_B_iso_or_equiv
  _atom_site_type_symbol
  O1       1.0000 0.94566  0.12168  0.05779  Biso   1.000  O
  C1       1.0000 0.82953  0.26451  0.06218  Biso   1.000  C
  H1       1.0000 0.85270  0.24360  0.10450  Biso   1.000  H
  C2       1.0000 0.95400  0.07790  0.21120  Biso   1.000  C
  H2       1.0000 0.90290  0.09400  0.18230  Biso   1.000  H
  H3       1.0000 0.99440  0.12900  0.21410  Biso   1.000  H
  C3       1.0000 0.91530  0.02500  0.20860  Biso   1.000  C
  O2       1.0000 0.44566  0.62168  0.55779  Biso   1.000  O
  C4       1.0000 0.32953  0.76451  0.56218  Biso   1.000  C
  H4       1.0000 0.35270  0.74360  0.60450  Biso   1.000  H
  C5       1.0000 0.45400  0.57790  0.71120  Biso   1.000  C
  H5       1.0000 0.40290  0.59400  0.68230  Biso   1.000  H
  H6       1.0000 0.49440  0.62900  0.71410  Biso   1.000  H
  C6       1.0000 0.41530  0.52500  0.70860  Biso   1.000  C
  O3       1.0000 0.05434  0.87832  0.05779  Biso   1.000  O
  C7       1.0000 0.17047  0.73549  0.06218  Biso   1.000  C
  H7       1.0000 0.14730  0.75640  0.10450  Biso   1.000  H
  C8       1.0000 0.04600  0.92210  0.21120  Biso   1.000  C
  H8       1.0000 0.09710  0.90600  0.18230  Biso   1.000  H
  H9       1.0000 0.00560  0.87100  0.21410  Biso   1.000  H
  C9       1.0000 0.08470  0.97500  0.20860  Biso   1.000  C
  O4       1.0000 0.55434  0.37832  0.55779  Biso   1.000  O
  C10      1.0000 0.67047  0.23549  0.56218  Biso   1.000  C
  H10      1.0000 0.64730  0.25640  0.60450  Biso   1.000  H
  C11      1.0000 0.54600  0.42210  0.71120  Biso   1.000  C
  H11      1.0000 0.59710  0.40600  0.68230  Biso   1.000  H
  H12      1.0000 0.50560  0.37100  0.71410  Biso   1.000  H
  C12      1.0000 0.58470  0.47500  0.70860  Biso   1.000  C
  O5       1.0000 0.87832  0.94566  0.05779  Biso   1.000  O
  C13      1.0000 0.73549  0.82953  0.06218  Biso   1.000  C
  H13      1.0000 0.75640  0.85270  0.10450  Biso   1.000  H
  C14      1.0000 0.92210  0.95400  0.21120  Biso   1.000  C
  H14      1.0000 0.90600  0.90290  0.18230  Biso   1.000  H
  H15      1.0000 0.87100  0.99440  0.21410  Biso   1.000  H
  C15      1.0000 0.97500  0.91530  0.20860  Biso   1.000  C
  O6       1.0000 0.37832  0.44566  0.55779  Biso   1.000  O
  C16      1.0000 0.23549  0.32953  0.56218  Biso   1.000  C
  H16      1.0000 0.25640  0.35270  0.60450  Biso   1.000  H
  C17      1.0000 0.42210  0.45400  0.71120  Biso   1.000  C
  H17      1.0000 0.40600  0.40290  0.68230  Biso   1.000  H
  H18      1.0000 0.37100  0.49440  0.71410  Biso   1.000  H
  C18      1.0000 0.47500  0.41530  0.70860  Biso   1.000  C
  O7       1.0000 0.12168  0.05434  0.05779  Biso   1.000  O
  C19      1.0000 0.26451  0.17047  0.06218  Biso   1.000  C
  H19      1.0000 0.24360  0.14730  0.10450  Biso   1.000  H
  C20      1.0000 0.07790  0.04600  0.21120  Biso   1.000  C
  H20      1.0000 0.09400  0.09710  0.18230  Biso   1.000  H
  H21      1.0000 0.12900  0.00560  0.21410  Biso   1.000  H
  C21      1.0000 0.02500  0.08470  0.20860  Biso   1.000  C
  O8       1.0000 0.62168  0.55434  0.55779  Biso   1.000  O
  C22      1.0000 0.76451  0.67047  0.56218  Biso   1.000  C
  H22      1.0000 0.74360  0.64730  0.60450  Biso   1.000  H
  C23      1.0000 0.57790  0.54600  0.71120  Biso   1.000  C
  H23      1.0000 0.59400  0.59710  0.68230  Biso   1.000  H
  H24      1.0000 0.62900  0.50560  0.71410  Biso   1.000  H
  C24      1.0000 0.52500  0.58470  0.70860  Biso   1.000  C
  O9       1.0000 0.05434  0.12168  0.44221  Biso   1.000  O
  C25      1.0000 0.17047  0.26451  0.43782  Biso   1.000  C
  H25      1.0000 0.14730  0.24360  0.39550  Biso   1.000  H
  C26      1.0000 0.04600  0.07790  0.28880  Biso   1.000  C
  H26      1.0000 0.09710  0.09400  0.31770  Biso   1.000  H
  H27      1.0000 0.00560  0.12900  0.28590  Biso   1.000  H
  C27      1.0000 0.08470  0.02500  0.29140  Biso   1.000  C
  O10      1.0000 0.55434  0.62168  0.94221  Biso   1.000  O
  C28      1.0000 0.67047  0.76451  0.93782  Biso   1.000  C
  H28      1.0000 0.64730  0.74360  0.89550  Biso   1.000  H
  C29      1.0000 0.54600  0.57790  0.78880  Biso   1.000  C
  H29      1.0000 0.59710  0.59400  0.81770  Biso   1.000  H
  H30      1.0000 0.50560  0.62900  0.78590  Biso   1.000  H
  C30      1.0000 0.58470  0.52500  0.79140  Biso   1.000  C
  O11      1.0000 0.94566  0.87832  0.44221  Biso   1.000  O
  C31      1.0000 0.82953  0.73549  0.43782  Biso   1.000  C
  H31      1.0000 0.85270  0.75640  0.39550  Biso   1.000  H
  C32      1.0000 0.95400  0.92210  0.28880  Biso   1.000  C
  H32      1.0000 0.90290  0.90600  0.31770  Biso   1.000  H
  H33      1.0000 0.99440  0.87100  0.28590  Biso   1.000  H
  C33      1.0000 0.91530  0.97500  0.29140  Biso   1.000  C
  O12      1.0000 0.44566  0.37832  0.94221  Biso   1.000  O
  C34      1.0000 0.32953  0.23549  0.93782  Biso   1.000  C
  H34      1.0000 0.35270  0.25640  0.89550  Biso   1.000  H
  C35      1.0000 0.45400  0.42210  0.78880  Biso   1.000  C
  H35      1.0000 0.40290  0.40600  0.81770  Biso   1.000  H
  H36      1.0000 0.49440  0.37100  0.78590  Biso   1.000  H
  C36      1.0000 0.41530  0.47500  0.79140  Biso   1.000  C
  O13      1.0000 0.12168  0.94566  0.44221  Biso   1.000  O
  C37      1.0000 0.26451  0.82953  0.43782  Biso   1.000  C
  H37      1.0000 0.24360  0.85270  0.39550  Biso   1.000  H
  C38      1.0000 0.07790  0.95400  0.28880  Biso   1.000  C
  H38      1.0000 0.09400  0.90290  0.31770  Biso   1.000  H
  H39      1.0000 0.12900  0.99440  0.28590  Biso   1.000  H
  C39      1.0000 0.02500  0.91530  0.29140  Biso   1.000  C
  O14      1.0000 0.62168  0.44566  0.94221  Biso   1.000  O
  C40      1.0000 0.76451  0.32953  0.93782  Biso   1.000  C
  H40      1.0000 0.74360  0.35270  0.89550  Biso   1.000  H
  C41      1.0000 0.57790  0.45400  0.78880  Biso   1.000  C
  H41      1.0000 0.59400  0.40290  0.81770  Biso   1.000  H
  H42      1.0000 0.62900  0.49440  0.78590  Biso   1.000  H
  C42      1.0000 0.52500  0.41530  0.79140  Biso   1.000  C
  O15      1.0000 0.87832  0.05434  0.44221  Biso   1.000  O
  C43      1.0000 0.73549  0.17047  0.43782  Biso   1.000  C
  H43      1.0000 0.75640  0.14730  0.39550  Biso   1.000  H
  C44      1.0000 0.92210  0.04600  0.28880  Biso   1.000  C
  H44      1.0000 0.90600  0.09710  0.31770  Biso   1.000  H
  H45      1.0000 0.87100  0.00560  0.28590  Biso   1.000  H
  C45      1.0000 0.97500  0.08470  0.29140  Biso   1.000  C
  O16      1.0000 0.37832  0.55434  0.94221  Biso   1.000  O
  C46      1.0000 0.23549  0.67047  0.93782  Biso   1.000  C
  H46      1.0000 0.25640  0.64730  0.89550  Biso   1.000  H
  C47      1.0000 0.42210  0.54600  0.78880  Biso   1.000  C
  H47      1.0000 0.40600  0.59710  0.81770  Biso   1.000  H
  H48      1.0000 0.37100  0.50560  0.78590  Biso   1.000  H
  C48      1.0000 0.47500  0.58470  0.79140  Biso   1.000  C
  O17      1.0000 0.05434  0.87832  0.94221  Biso   1.000  O
  C49      1.0000 0.17047  0.73549  0.93782  Biso   1.000  C
  H49      1.0000 0.14730  0.75640  0.89550  Biso   1.000  H
  C50      1.0000 0.04600  0.92210  0.78880  Biso   1.000  C
  H50      1.0000 0.09710  0.90600  0.81770  Biso   1.000  H
  H51      1.0000 0.00560  0.87100  0.78590  Biso   1.000  H
  C51      1.0000 0.08470  0.97500  0.79140  Biso   1.000  C
  O18      1.0000 0.55434  0.37832  0.44221  Biso   1.000  O
  C52      1.0000 0.67047  0.23549  0.43782  Biso   1.000  C
  H52      1.0000 0.64730  0.25640  0.39550  Biso   1.000  H
  C53      1.0000 0.54600  0.42210  0.28880  Biso   1.000  C
  H53      1.0000 0.59710  0.40600  0.31770  Biso   1.000  H
  H54      1.0000 0.50560  0.37100  0.28590  Biso   1.000  H
  C54      1.0000 0.58470  0.47500  0.29140  Biso   1.000  C
  O19      1.0000 0.94566  0.12168  0.94221  Biso   1.000  O
  C55      1.0000 0.82953  0.26451  0.93782  Biso   1.000  C
  H55      1.0000 0.85270  0.24360  0.89550  Biso   1.000  H
  C56      1.0000 0.95400  0.07790  0.78880  Biso   1.000  C
  H56      1.0000 0.90290  0.09400  0.81770  Biso   1.000  H
  H57      1.0000 0.99440  0.12900  0.78590  Biso   1.000  H
  C57      1.0000 0.91530  0.02500  0.79140  Biso   1.000  C
  O20      1.0000 0.44566  0.62168  0.44221  Biso   1.000  O
  C58      1.0000 0.32953  0.76451  0.43782  Biso   1.000  C
  H58      1.0000 0.35270  0.74360  0.39550  Biso   1.000  H
  C59      1.0000 0.45400  0.57790  0.28880  Biso   1.000  C
  H59      1.0000 0.40290  0.59400  0.31770  Biso   1.000  H
  H60      1.0000 0.49440  0.62900  0.28590  Biso   1.000  H
  C60      1.0000 0.41530  0.52500  0.29140  Biso   1.000  C
  O21      1.0000 0.12168  0.05434  0.94221  Biso   1.000  O
  C61      1.0000 0.26451  0.17047  0.93782  Biso   1.000  C
  H61      1.0000 0.24360  0.14730  0.89550  Biso   1.000  H
  C62      1.0000 0.07790  0.04600  0.78880  Biso   1.000  C
  H62      1.0000 0.09400  0.09710  0.81770  Biso   1.000  H
  H63      1.0000 0.12900  0.00560  0.78590  Biso   1.000  H
  C63      1.0000 0.02500  0.08470  0.79140  Biso   1.000  C
  O22      1.0000 0.62168  0.55434  0.44221  Biso   1.000  O
  C64      1.0000 0.76451  0.67047  0.43782  Biso   1.000  C
  H64      1.0000 0.74360  0.64730  0.39550  Biso   1.000  H
  C65      1.0000 0.57790  0.54600  0.28880  Biso   1.000  C
  H65      1.0000 0.59400  0.59710  0.31770  Biso   1.000  H
  H66      1.0000 0.62900  0.50560  0.28590  Biso   1.000  H
  C66      1.0000 0.52500  0.58470  0.29140  Biso   1.000  C
  O23      1.0000 0.87832  0.94566  0.94221  Biso   1.000  O
  C67      1.0000 0.73549  0.82953  0.93782  Biso   1.000  C
  H67      1.0000 0.75640  0.85270  0.89550  Biso   1.000  H
  C68      1.0000 0.92210  0.95400  0.78880  Biso   1.000  C
  H68      1.0000 0.90600  0.90290  0.81770  Biso   1.000  H
  H69      1.0000 0.87100  0.99440  0.78590  Biso   1.000  H
  C69      1.0000 0.97500  0.91530  0.79140  Biso   1.000  C
  O24      1.0000 0.37832  0.44566  0.44221  Biso   1.000  O
  C70      1.0000 0.23549  0.32953  0.43782  Biso   1.000  C
  H70      1.0000 0.25640  0.35270  0.39550  Biso   1.000  H
  C71      1.0000 0.42210  0.45400  0.28880  Biso   1.000  C
  H71      1.0000 0.40600  0.40290  0.31770  Biso   1.000  H
  H72      1.0000 0.37100  0.49440  0.28590  Biso   1.000  H
  C72      1.0000 0.47500  0.41530  0.29140  Biso   1.000  C
  O25      1.0000 0.94566  0.87832  0.55779  Biso   1.000  O
  C73      1.0000 0.82953  0.73549  0.56218  Biso   1.000  C
  H73      1.0000 0.85270  0.75640  0.60450  Biso   1.000  H
  C74      1.0000 0.95400  0.92210  0.71120  Biso   1.000  C
  H74      1.0000 0.90290  0.90600  0.68230  Biso   1.000  H
  H75      1.0000 0.99440  0.87100  0.71410  Biso   1.000  H
  C75      1.0000 0.91530  0.97500  0.70860  Biso   1.000  C
  O26      1.0000 0.44566  0.37832  0.05779  Biso   1.000  O
  C76      1.0000 0.32953  0.23549  0.06218  Biso   1.000  C
  H76      1.0000 0.35270  0.25640  0.10450  Biso   1.000  H
  C77      1.0000 0.45400  0.42210  0.21120  Biso   1.000  C
  H77      1.0000 0.40290  0.40600  0.18230  Biso   1.000  H
  H78      1.0000 0.49440  0.37100  0.21410  Biso   1.000  H
  C78      1.0000 0.41530  0.47500  0.20860  Biso   1.000  C
  O27      1.0000 0.05434  0.12168  0.55779  Biso   1.000  O
  C79      1.0000 0.17047  0.26451  0.56218  Biso   1.000  C
  H79      1.0000 0.14730  0.24360  0.60450  Biso   1.000  H
  C80      1.0000 0.04600  0.07790  0.71120  Biso   1.000  C
  H80      1.0000 0.09710  0.09400  0.68230  Biso   1.000  H
  H81      1.0000 0.00560  0.12900  0.71410  Biso   1.000  H
  C81      1.0000 0.08470  0.02500  0.70860  Biso   1.000  C
  O28      1.0000 0.55434  0.62168  0.05779  Biso   1.000  O
  C82      1.0000 0.67047  0.76451  0.06218  Biso   1.000  C
  H82      1.0000 0.64730  0.74360  0.10450  Biso   1.000  H
  C83      1.0000 0.54600  0.57790  0.21120  Biso   1.000  C
  H83      1.0000 0.59710  0.59400  0.18230  Biso   1.000  H
  H84      1.0000 0.50560  0.62900  0.21410  Biso   1.000  H
  C84      1.0000 0.58470  0.52500  0.20860  Biso   1.000  C
  O29      1.0000 0.87832  0.05434  0.55779  Biso   1.000  O
  C85      1.0000 0.73549  0.17047  0.56218  Biso   1.000  C
  H85      1.0000 0.75640  0.14730  0.60450  Biso   1.000  H
  C86      1.0000 0.92210  0.04600  0.71120  Biso   1.000  C
  H86      1.0000 0.90600  0.09710  0.68230  Biso   1.000  H
  H87      1.0000 0.87100  0.00560  0.71410  Biso   1.000  H
  C87      1.0000 0.97500  0.08470  0.70860  Biso   1.000  C
  O30      1.0000 0.37832  0.55434  0.05779  Biso   1.000  O
  C88      1.0000 0.23549  0.67047  0.06218  Biso   1.000  C
  H88      1.0000 0.25640  0.64730  0.10450  Biso   1.000  H
  C89      1.0000 0.42210  0.54600  0.21120  Biso   1.000  C
  H89      1.0000 0.40600  0.59710  0.18230  Biso   1.000  H
  H90      1.0000 0.37100  0.50560  0.21410  Biso   1.000  H
  C90      1.0000 0.47500  0.58470  0.20860  Biso   1.000  C
  O31      1.0000 0.12168  0.94566  0.55779  Biso   1.000  O
  C91      1.0000 0.26451  0.82953  0.56218  Biso   1.000  C
  H91      1.0000 0.24360  0.85270  0.60450  Biso   1.000  H
  C92      1.0000 0.07790  0.95400  0.71120  Biso   1.000  C
  H92      1.0000 0.09400  0.90290  0.68230  Biso   1.000  H
  H93      1.0000 0.12900  0.99440  0.71410  Biso   1.000  H
  C93      1.0000 0.02500  0.91530  0.70860  Biso   1.000  C
  O32      1.0000 0.62168  0.44566  0.05779  Biso   1.000  O
  C94      1.0000 0.76451  0.32953  0.06218  Biso   1.000  C
  H94      1.0000 0.74360  0.35270  0.10450  Biso   1.000  H
  C95      1.0000 0.57790  0.45400  0.21120  Biso   1.000  C
  H95      1.0000 0.59400  0.40290  0.18230  Biso   1.000  H
  H96      1.0000 0.62900  0.49440  0.21410  Biso   1.000  H
  C96      1.0000 0.52500  0.41530  0.20860  Biso   1.000  C
  Zn1      1.0000 0.00000  0.00000  0.07664  Biso   1.000  Zn
  N1       1.0000 0.00000  0.00000  0.18296  Biso   1.000  N
  Zn2      1.0000 0.50000  0.50000  0.57664  Biso   1.000  Zn
  N2       1.0000 0.50000  0.50000  0.68296  Biso   1.000  N
  Zn3      1.0000 0.00000  0.00000  0.42336  Biso   1.000  Zn
  N3       1.0000 0.00000  0.00000  0.31704  Biso   1.000  N
  Zn4      1.0000 0.50000  0.50000  0.92336  Biso   1.000  Zn
  N4       1.0000 0.50000  0.50000  0.81704  Biso   1.000  N
  Zn5      1.0000 0.00000  0.00000  0.92336  Biso   1.000  Zn
  N5       1.0000 0.00000  0.00000  0.81704  Biso   1.000  N
  Zn6      1.0000 0.50000  0.50000  0.42336  Biso   1.000  Zn
  N6       1.0000 0.50000  0.50000  0.31704  Biso   1.000  N
  Zn7      1.0000 0.00000  0.00000  0.57664  Biso   1.000  Zn
  N7       1.0000 0.00000  0.00000  0.68296  Biso   1.000  N
  Zn8      1.0000 0.50000  0.50000  0.07664  Biso   1.000  Zn
  N8       1.0000 0.50000  0.50000  0.18296  Biso   1.000  N
  C97      1.0000 0.92270  0.15180  0.00000  Biso   1.000  C
  C98      1.0000 0.86070  0.23000  0.00000  Biso   1.000  C
  C99      1.0000 0.42270  0.65180  0.50000  Biso   1.000  C
  C100     1.0000 0.36070  0.73000  0.50000  Biso   1.000  C
  C101     1.0000 0.07730  0.84820  0.00000  Biso   1.000  C
  C102     1.0000 0.13930  0.77000  0.00000  Biso   1.000  C
  C103     1.0000 0.57730  0.34820  0.50000  Biso   1.000  C
  C104     1.0000 0.63930  0.27000  0.50000  Biso   1.000  C
  C105     1.0000 0.84820  0.92270  0.00000  Biso   1.000  C
  C106     1.0000 0.77000  0.86070  0.00000  Biso   1.000  C
  C107     1.0000 0.34820  0.42270  0.50000  Biso   1.000  C
  C108     1.0000 0.27000  0.36070  0.50000  Biso   1.000  C
  C109     1.0000 0.15180  0.07730  0.00000  Biso   1.000  C
  C110     1.0000 0.23000  0.13930  0.00000  Biso   1.000  C
  C111     1.0000 0.65180  0.57730  0.50000  Biso   1.000  C
  C112     1.0000 0.73000  0.63930  0.50000  Biso   1.000  C
  C113     1.0000 0.07730  0.15180  0.50000  Biso   1.000  C
  C114     1.0000 0.13930  0.23000  0.50000  Biso   1.000  C
  C115     1.0000 0.57730  0.65180  0.00000  Biso   1.000  C
  C116     1.0000 0.63930  0.73000  0.00000  Biso   1.000  C
  C117     1.0000 0.92270  0.84820  0.50000  Biso   1.000  C
  C118     1.0000 0.86070  0.77000  0.50000  Biso   1.000  C
  C119     1.0000 0.42270  0.34820  0.00000  Biso   1.000  C
  C120     1.0000 0.36070  0.27000  0.00000  Biso   1.000  C
  C121     1.0000 0.15180  0.92270  0.50000  Biso   1.000  C
  C122     1.0000 0.23000  0.86070  0.50000  Biso   1.000  C
  C123     1.0000 0.65180  0.42270  0.00000  Biso   1.000  C
  C124     1.0000 0.73000  0.36070  0.00000  Biso   1.000  C
  C125     1.0000 0.84820  0.07730  0.50000  Biso   1.000  C
  C126     1.0000 0.77000  0.13930  0.50000  Biso   1.000  C
  C127     1.0000 0.34820  0.57730  0.00000  Biso   1.000  C
  C128     1.0000 0.27000  0.63930  0.00000  Biso   1.000  C
