data_image0
_cell_length_a       14.9756
_cell_length_b       14.9756
_cell_length_c       19.2026
_cell_angle_alpha    90
_cell_angle_beta     90
_cell_angle_gamma    90

_symmetry_space_group_name_H-M    "P 1"
_symmetry_int_tables_number       1

loop_
  _symmetry_equiv_pos_as_xyz
  'x, y, z'

loop_
  _atom_site_label
  _atom_site_occupancy
  _atom_site_fract_x
  _atom_site_fract_y
  _atom_site_fract_z
  _atom_site_thermal_displace_type
  _atom_site_B_iso_or_equiv
  _atom_site_type_symbol
  O1       1.0000 0.13309  0.18466  0.31601  Biso   1.000  O
  O2       1.0000 0.12249  0.20994  0.20157  Biso   1.000  O
  C1       1.0000 0.09727  0.17448  0.25739  Biso   1.000  C
  C2       1.0000 0.01896  0.11238  0.25395  Biso   1.000  C
  C3       1.0000 0.98180  0.07770  0.31446  Biso   1.000  C
  H1       1.0000 0.00150  0.09840  0.35860  Biso   1.000  H
  C4       1.0000 0.98703  0.08400  0.18955  Biso   1.000  C
  H2       1.0000 0.00980  0.11000  0.14810  Biso   1.000  H
  C5       1.0000 0.19640  0.17590  0.46840  Biso   1.000  C
  H3       1.0000 0.22050  0.11880  0.45050  Biso   1.000  H
  H4       1.0000 0.13420  0.18200  0.45180  Biso   1.000  H
  C6       1.0000 0.16130  0.23300  0.46890  Biso   1.000  C
  H5       1.0000 0.14030  0.17420  0.45280  Biso   1.000  H
  C7       1.0000 0.19740  0.17460  0.54700  Biso   1.000  C
  H6       1.0000 0.22340  0.11750  0.56330  Biso   1.000  H
  H7       1.0000 0.13530  0.17820  0.56460  Biso   1.000  H
  C8       1.0000 0.26400  0.16130  0.54860  Biso   1.000  C
  H8       1.0000 0.21560  0.12160  0.56490  Biso   1.000  H
  O3       1.0000 0.36691  0.31534  0.31601  Biso   1.000  O
  O4       1.0000 0.37751  0.29006  0.20157  Biso   1.000  O
  C9       1.0000 0.40273  0.32552  0.25739  Biso   1.000  C
  C10      1.0000 0.48104  0.38762  0.25395  Biso   1.000  C
  C11      1.0000 0.51820  0.42230  0.31446  Biso   1.000  C
  H9       1.0000 0.49850  0.40160  0.35860  Biso   1.000  H
  C12      1.0000 0.51297  0.41600  0.18955  Biso   1.000  C
  H10      1.0000 0.49020  0.39000  0.14810  Biso   1.000  H
  C13      1.0000 0.30360  0.32410  0.46840  Biso   1.000  C
  H11      1.0000 0.27950  0.38120  0.45050  Biso   1.000  H
  H12      1.0000 0.36580  0.31800  0.45180  Biso   1.000  H
  C14      1.0000 0.33870  0.26700  0.46890  Biso   1.000  C
  H13      1.0000 0.35970  0.32580  0.45280  Biso   1.000  H
  C15      1.0000 0.30260  0.32540  0.54700  Biso   1.000  C
  H14      1.0000 0.27660  0.38250  0.56330  Biso   1.000  H
  H15      1.0000 0.36470  0.32180  0.56460  Biso   1.000  H
  C16      1.0000 0.23600  0.33870  0.54860  Biso   1.000  C
  H16      1.0000 0.28440  0.37840  0.56490  Biso   1.000  H
  O5       1.0000 0.31534  0.13309  0.31601  Biso   1.000  O
  O6       1.0000 0.29006  0.12249  0.20157  Biso   1.000  O
  C17      1.0000 0.32552  0.09727  0.25739  Biso   1.000  C
  C18      1.0000 0.38762  0.01896  0.25395  Biso   1.000  C
  C19      1.0000 0.42230  0.98180  0.31446  Biso   1.000  C
  H17      1.0000 0.40160  0.00150  0.35860  Biso   1.000  H
  C20      1.0000 0.41600  0.98703  0.18955  Biso   1.000  C
  H18      1.0000 0.39000  0.00980  0.14810  Biso   1.000  H
  C21      1.0000 0.32410  0.19640  0.46840  Biso   1.000  C
  H19      1.0000 0.38120  0.22050  0.45050  Biso   1.000  H
  H20      1.0000 0.31800  0.13420  0.45180  Biso   1.000  H
  C22      1.0000 0.26700  0.16130  0.46890  Biso   1.000  C
  H21      1.0000 0.32580  0.14030  0.45280  Biso   1.000  H
  C23      1.0000 0.32540  0.19740  0.54700  Biso   1.000  C
  H22      1.0000 0.38250  0.22340  0.56330  Biso   1.000  H
  H23      1.0000 0.32180  0.13530  0.56460  Biso   1.000  H
  C24      1.0000 0.33870  0.26400  0.54860  Biso   1.000  C
  H24      1.0000 0.37840  0.21560  0.56490  Biso   1.000  H
  O7       1.0000 0.18466  0.36691  0.31601  Biso   1.000  O
  O8       1.0000 0.20994  0.37751  0.20157  Biso   1.000  O
  C25      1.0000 0.17448  0.40273  0.25739  Biso   1.000  C
  C26      1.0000 0.11238  0.48104  0.25395  Biso   1.000  C
  C27      1.0000 0.07770  0.51820  0.31446  Biso   1.000  C
  H25      1.0000 0.09840  0.49850  0.35860  Biso   1.000  H
  C28      1.0000 0.08400  0.51297  0.18955  Biso   1.000  C
  H26      1.0000 0.11000  0.49020  0.14810  Biso   1.000  H
  C29      1.0000 0.17590  0.30360  0.46840  Biso   1.000  C
  H27      1.0000 0.11880  0.27950  0.45050  Biso   1.000  H
  H28      1.0000 0.18200  0.36580  0.45180  Biso   1.000  H
  C30      1.0000 0.23300  0.33870  0.46890  Biso   1.000  C
  H29      1.0000 0.17420  0.35970  0.45280  Biso   1.000  H
  C31      1.0000 0.17460  0.30260  0.54700  Biso   1.000  C
  H30      1.0000 0.11750  0.27660  0.56330  Biso   1.000  H
  H31      1.0000 0.17820  0.36470  0.56460  Biso   1.000  H
  C32      1.0000 0.16130  0.23600  0.54860  Biso   1.000  C
  H32      1.0000 0.12160  0.28440  0.56490  Biso   1.000  H
  O9       1.0000 0.86691  0.68466  0.18399  Biso   1.000  O
  O10      1.0000 0.87751  0.70994  0.29843  Biso   1.000  O
  C33      1.0000 0.90273  0.67448  0.24261  Biso   1.000  C
  C34      1.0000 0.98104  0.61238  0.24605  Biso   1.000  C
  C35      1.0000 0.01820  0.57770  0.18554  Biso   1.000  C
  H33      1.0000 0.99850  0.59840  0.14140  Biso   1.000  H
  C36      1.0000 0.01297  0.58400  0.31045  Biso   1.000  C
  H34      1.0000 0.99020  0.61000  0.35190  Biso   1.000  H
  C37      1.0000 0.80360  0.67590  0.03160  Biso   1.000  C
  H35      1.0000 0.77950  0.61880  0.04950  Biso   1.000  H
  H36      1.0000 0.86580  0.68200  0.04820  Biso   1.000  H
  C38      1.0000 0.83870  0.73300  0.03110  Biso   1.000  C
  H37      1.0000 0.85970  0.67420  0.04720  Biso   1.000  H
  C39      1.0000 0.80260  0.67460  0.95300  Biso   1.000  C
  H38      1.0000 0.77660  0.61750  0.93670  Biso   1.000  H
  H39      1.0000 0.86470  0.67820  0.93540  Biso   1.000  H
  C40      1.0000 0.73600  0.66130  0.95140  Biso   1.000  C
  H40      1.0000 0.78440  0.62160  0.93510  Biso   1.000  H
  O11      1.0000 0.63309  0.81534  0.18399  Biso   1.000  O
  O12      1.0000 0.62249  0.79006  0.29843  Biso   1.000  O
  C41      1.0000 0.59727  0.82552  0.24261  Biso   1.000  C
  C42      1.0000 0.51896  0.88762  0.24605  Biso   1.000  C
  C43      1.0000 0.48180  0.92230  0.18554  Biso   1.000  C
  H41      1.0000 0.50150  0.90160  0.14140  Biso   1.000  H
  C44      1.0000 0.48703  0.91600  0.31045  Biso   1.000  C
  H42      1.0000 0.50980  0.89000  0.35190  Biso   1.000  H
  C45      1.0000 0.69640  0.82410  0.03160  Biso   1.000  C
  H43      1.0000 0.72050  0.88120  0.04950  Biso   1.000  H
  H44      1.0000 0.63420  0.81800  0.04820  Biso   1.000  H
  C46      1.0000 0.66130  0.76700  0.03110  Biso   1.000  C
  H45      1.0000 0.64030  0.82580  0.04720  Biso   1.000  H
  C47      1.0000 0.69740  0.82540  0.95300  Biso   1.000  C
  H46      1.0000 0.72340  0.88250  0.93670  Biso   1.000  H
  H47      1.0000 0.63530  0.82180  0.93540  Biso   1.000  H
  C48      1.0000 0.76400  0.83870  0.95140  Biso   1.000  C
  H48      1.0000 0.71560  0.87840  0.93510  Biso   1.000  H
  O13      1.0000 0.68466  0.63309  0.18399  Biso   1.000  O
  O14      1.0000 0.70994  0.62249  0.29843  Biso   1.000  O
  C49      1.0000 0.67448  0.59727  0.24261  Biso   1.000  C
  C50      1.0000 0.61238  0.51896  0.24605  Biso   1.000  C
  C51      1.0000 0.57770  0.48180  0.18554  Biso   1.000  C
  H49      1.0000 0.59840  0.50150  0.14140  Biso   1.000  H
  C52      1.0000 0.58400  0.48703  0.31045  Biso   1.000  C
  H50      1.0000 0.61000  0.50980  0.35190  Biso   1.000  H
  C53      1.0000 0.67590  0.69640  0.03160  Biso   1.000  C
  H51      1.0000 0.61880  0.72050  0.04950  Biso   1.000  H
  H52      1.0000 0.68200  0.63420  0.04820  Biso   1.000  H
  C54      1.0000 0.73300  0.66130  0.03110  Biso   1.000  C
  H53      1.0000 0.67420  0.64030  0.04720  Biso   1.000  H
  C55      1.0000 0.67460  0.69740  0.95300  Biso   1.000  C
  H54      1.0000 0.61750  0.72340  0.93670  Biso   1.000  H
  H55      1.0000 0.67820  0.63530  0.93540  Biso   1.000  H
  C56      1.0000 0.66130  0.76400  0.95140  Biso   1.000  C
  H56      1.0000 0.62160  0.71560  0.93510  Biso   1.000  H
  O15      1.0000 0.81534  0.86691  0.18399  Biso   1.000  O
  O16      1.0000 0.79006  0.87751  0.29843  Biso   1.000  O
  C57      1.0000 0.82552  0.90273  0.24261  Biso   1.000  C
  C58      1.0000 0.88762  0.98104  0.24605  Biso   1.000  C
  C59      1.0000 0.92230  0.01820  0.18554  Biso   1.000  C
  H57      1.0000 0.90160  0.99850  0.14140  Biso   1.000  H
  C60      1.0000 0.91600  0.01297  0.31045  Biso   1.000  C
  H58      1.0000 0.89000  0.99020  0.35190  Biso   1.000  H
  C61      1.0000 0.82410  0.80360  0.03160  Biso   1.000  C
  H59      1.0000 0.88120  0.77950  0.04950  Biso   1.000  H
  H60      1.0000 0.81800  0.86580  0.04820  Biso   1.000  H
  C62      1.0000 0.76700  0.83870  0.03110  Biso   1.000  C
  H61      1.0000 0.82580  0.85970  0.04720  Biso   1.000  H
  C63      1.0000 0.82540  0.80260  0.95300  Biso   1.000  C
  H62      1.0000 0.88250  0.77660  0.93670  Biso   1.000  H
  H63      1.0000 0.82180  0.86470  0.93540  Biso   1.000  H
  C64      1.0000 0.83870  0.73600  0.95140  Biso   1.000  C
  H64      1.0000 0.87840  0.78440  0.93510  Biso   1.000  H
  O17      1.0000 0.86691  0.81534  0.68399  Biso   1.000  O
  O18      1.0000 0.87751  0.79006  0.79843  Biso   1.000  O
  C65      1.0000 0.90273  0.82552  0.74261  Biso   1.000  C
  C66      1.0000 0.98104  0.88762  0.74605  Biso   1.000  C
  C67      1.0000 0.01820  0.92230  0.68554  Biso   1.000  C
  H65      1.0000 0.99850  0.90160  0.64140  Biso   1.000  H
  C68      1.0000 0.01297  0.91600  0.81045  Biso   1.000  C
  H66      1.0000 0.99020  0.89000  0.85190  Biso   1.000  H
  C69      1.0000 0.80360  0.82410  0.53160  Biso   1.000  C
  H67      1.0000 0.77950  0.88120  0.54950  Biso   1.000  H
  H68      1.0000 0.86580  0.81800  0.54820  Biso   1.000  H
  C70      1.0000 0.83870  0.76700  0.53110  Biso   1.000  C
  H69      1.0000 0.85970  0.82580  0.54720  Biso   1.000  H
  C71      1.0000 0.80260  0.82540  0.45300  Biso   1.000  C
  H70      1.0000 0.77660  0.88250  0.43670  Biso   1.000  H
  H71      1.0000 0.86470  0.82180  0.43540  Biso   1.000  H
  C72      1.0000 0.73600  0.83870  0.45140  Biso   1.000  C
  H72      1.0000 0.78440  0.87840  0.43510  Biso   1.000  H
  O19      1.0000 0.63309  0.68466  0.68399  Biso   1.000  O
  O20      1.0000 0.62249  0.70994  0.79843  Biso   1.000  O
  C73      1.0000 0.59727  0.67448  0.74261  Biso   1.000  C
  C74      1.0000 0.51896  0.61238  0.74605  Biso   1.000  C
  C75      1.0000 0.48180  0.57770  0.68554  Biso   1.000  C
  H73      1.0000 0.50150  0.59840  0.64140  Biso   1.000  H
  C76      1.0000 0.48703  0.58400  0.81045  Biso   1.000  C
  H74      1.0000 0.50980  0.61000  0.85190  Biso   1.000  H
  C77      1.0000 0.69640  0.67590  0.53160  Biso   1.000  C
  H75      1.0000 0.72050  0.61880  0.54950  Biso   1.000  H
  H76      1.0000 0.63420  0.68200  0.54820  Biso   1.000  H
  C78      1.0000 0.66130  0.73300  0.53110  Biso   1.000  C
  H77      1.0000 0.64030  0.67420  0.54720  Biso   1.000  H
  C79      1.0000 0.69740  0.67460  0.45300  Biso   1.000  C
  H78      1.0000 0.72340  0.61750  0.43670  Biso   1.000  H
  H79      1.0000 0.63530  0.67820  0.43540  Biso   1.000  H
  C80      1.0000 0.76400  0.66130  0.45140  Biso   1.000  C
  H80      1.0000 0.71560  0.62160  0.43510  Biso   1.000  H
  O21      1.0000 0.68466  0.86691  0.68399  Biso   1.000  O
  O22      1.0000 0.70994  0.87751  0.79843  Biso   1.000  O
  C81      1.0000 0.67448  0.90273  0.74261  Biso   1.000  C
  C82      1.0000 0.61238  0.98104  0.74605  Biso   1.000  C
  C83      1.0000 0.57770  0.01820  0.68554  Biso   1.000  C
  H81      1.0000 0.59840  0.99850  0.64140  Biso   1.000  H
  C84      1.0000 0.58400  0.01297  0.81045  Biso   1.000  C
  H82      1.0000 0.61000  0.99020  0.85190  Biso   1.000  H
  C85      1.0000 0.67590  0.80360  0.53160  Biso   1.000  C
  H83      1.0000 0.61880  0.77950  0.54950  Biso   1.000  H
  H84      1.0000 0.68200  0.86580  0.54820  Biso   1.000  H
  C86      1.0000 0.73300  0.83870  0.53110  Biso   1.000  C
  H85      1.0000 0.67420  0.85970  0.54720  Biso   1.000  H
  C87      1.0000 0.67460  0.80260  0.45300  Biso   1.000  C
  H86      1.0000 0.61750  0.77660  0.43670  Biso   1.000  H
  H87      1.0000 0.67820  0.86470  0.43540  Biso   1.000  H
  C88      1.0000 0.66130  0.73600  0.45140  Biso   1.000  C
  H88      1.0000 0.62160  0.78440  0.43510  Biso   1.000  H
  O23      1.0000 0.81534  0.63309  0.68399  Biso   1.000  O
  O24      1.0000 0.79006  0.62249  0.79843  Biso   1.000  O
  C89      1.0000 0.82552  0.59727  0.74261  Biso   1.000  C
  C90      1.0000 0.88762  0.51896  0.74605  Biso   1.000  C
  C91      1.0000 0.92230  0.48180  0.68554  Biso   1.000  C
  H89      1.0000 0.90160  0.50150  0.64140  Biso   1.000  H
  C92      1.0000 0.91600  0.48703  0.81045  Biso   1.000  C
  H90      1.0000 0.89000  0.50980  0.85190  Biso   1.000  H
  C93      1.0000 0.82410  0.69640  0.53160  Biso   1.000  C
  H91      1.0000 0.88120  0.72050  0.54950  Biso   1.000  H
  H92      1.0000 0.81800  0.63420  0.54820  Biso   1.000  H
  C94      1.0000 0.76700  0.66130  0.53110  Biso   1.000  C
  H93      1.0000 0.82580  0.64030  0.54720  Biso   1.000  H
  C95      1.0000 0.82540  0.69740  0.45300  Biso   1.000  C
  H94      1.0000 0.88250  0.72340  0.43670  Biso   1.000  H
  H95      1.0000 0.82180  0.63530  0.43540  Biso   1.000  H
  C96      1.0000 0.83870  0.76400  0.45140  Biso   1.000  C
  H96      1.0000 0.87840  0.71560  0.43510  Biso   1.000  H
  O25      1.0000 0.13309  0.31534  0.81601  Biso   1.000  O
  O26      1.0000 0.12249  0.29006  0.70157  Biso   1.000  O
  C97      1.0000 0.09727  0.32552  0.75739  Biso   1.000  C
  C98      1.0000 0.01896  0.38762  0.75395  Biso   1.000  C
  C99      1.0000 0.98180  0.42230  0.81446  Biso   1.000  C
  H97      1.0000 0.00150  0.40160  0.85860  Biso   1.000  H
  C100     1.0000 0.98703  0.41600  0.68955  Biso   1.000  C
  H98      1.0000 0.00980  0.39000  0.64810  Biso   1.000  H
  C101     1.0000 0.19640  0.32410  0.96840  Biso   1.000  C
  H99      1.0000 0.22050  0.38120  0.95050  Biso   1.000  H
  H100     1.0000 0.13420  0.31800  0.95180  Biso   1.000  H
  C102     1.0000 0.16130  0.26700  0.96890  Biso   1.000  C
  H101     1.0000 0.14030  0.32580  0.95280  Biso   1.000  H
  C103     1.0000 0.19740  0.32540  0.04700  Biso   1.000  C
  H102     1.0000 0.22340  0.38250  0.06330  Biso   1.000  H
  H103     1.0000 0.13530  0.32180  0.06460  Biso   1.000  H
  C104     1.0000 0.26400  0.33870  0.04860  Biso   1.000  C
  H104     1.0000 0.21560  0.37840  0.06490  Biso   1.000  H
  O27      1.0000 0.36691  0.18466  0.81601  Biso   1.000  O
  O28      1.0000 0.37751  0.20994  0.70157  Biso   1.000  O
  C105     1.0000 0.40273  0.17448  0.75739  Biso   1.000  C
  C106     1.0000 0.48104  0.11238  0.75395  Biso   1.000  C
  C107     1.0000 0.51820  0.07770  0.81446  Biso   1.000  C
  H105     1.0000 0.49850  0.09840  0.85860  Biso   1.000  H
  C108     1.0000 0.51297  0.08400  0.68955  Biso   1.000  C
  H106     1.0000 0.49020  0.11000  0.64810  Biso   1.000  H
  C109     1.0000 0.30360  0.17590  0.96840  Biso   1.000  C
  H107     1.0000 0.27950  0.11880  0.95050  Biso   1.000  H
  H108     1.0000 0.36580  0.18200  0.95180  Biso   1.000  H
  C110     1.0000 0.33870  0.23300  0.96890  Biso   1.000  C
  H109     1.0000 0.35970  0.17420  0.95280  Biso   1.000  H
  C111     1.0000 0.30260  0.17460  0.04700  Biso   1.000  C
  H110     1.0000 0.27660  0.11750  0.06330  Biso   1.000  H
  H111     1.0000 0.36470  0.17820  0.06460  Biso   1.000  H
  C112     1.0000 0.23600  0.16130  0.04860  Biso   1.000  C
  H112     1.0000 0.28440  0.12160  0.06490  Biso   1.000  H
  O29      1.0000 0.31534  0.36691  0.81601  Biso   1.000  O
  O30      1.0000 0.29006  0.37751  0.70157  Biso   1.000  O
  C113     1.0000 0.32552  0.40273  0.75739  Biso   1.000  C
  C114     1.0000 0.38762  0.48104  0.75395  Biso   1.000  C
  C115     1.0000 0.42230  0.51820  0.81446  Biso   1.000  C
  H113     1.0000 0.40160  0.49850  0.85860  Biso   1.000  H
  C116     1.0000 0.41600  0.51297  0.68955  Biso   1.000  C
  H114     1.0000 0.39000  0.49020  0.64810  Biso   1.000  H
  C117     1.0000 0.32410  0.30360  0.96840  Biso   1.000  C
  H115     1.0000 0.38120  0.27950  0.95050  Biso   1.000  H
  H116     1.0000 0.31800  0.36580  0.95180  Biso   1.000  H
  C118     1.0000 0.26700  0.33870  0.96890  Biso   1.000  C
  H117     1.0000 0.32580  0.35970  0.95280  Biso   1.000  H
  C119     1.0000 0.32540  0.30260  0.04700  Biso   1.000  C
  H118     1.0000 0.38250  0.27660  0.06330  Biso   1.000  H
  H119     1.0000 0.32180  0.36470  0.06460  Biso   1.000  H
  C120     1.0000 0.33870  0.23600  0.04860  Biso   1.000  C
  H120     1.0000 0.37840  0.28440  0.06490  Biso   1.000  H
  O31      1.0000 0.18466  0.13309  0.81601  Biso   1.000  O
  O32      1.0000 0.20994  0.12249  0.70157  Biso   1.000  O
  C121     1.0000 0.17448  0.09727  0.75739  Biso   1.000  C
  C122     1.0000 0.11238  0.01896  0.75395  Biso   1.000  C
  C123     1.0000 0.07770  0.98180  0.81446  Biso   1.000  C
  H121     1.0000 0.09840  0.00150  0.85860  Biso   1.000  H
  C124     1.0000 0.08400  0.98703  0.68955  Biso   1.000  C
  H122     1.0000 0.11000  0.00980  0.64810  Biso   1.000  H
  C125     1.0000 0.17590  0.19640  0.96840  Biso   1.000  C
  H123     1.0000 0.11880  0.22050  0.95050  Biso   1.000  H
  H124     1.0000 0.18200  0.13420  0.95180  Biso   1.000  H
  C126     1.0000 0.23300  0.16130  0.96890  Biso   1.000  C
  H125     1.0000 0.17420  0.14030  0.95280  Biso   1.000  H
  C127     1.0000 0.17460  0.19740  0.04700  Biso   1.000  C
  H126     1.0000 0.11750  0.22340  0.06330  Biso   1.000  H
  H127     1.0000 0.17820  0.13530  0.06460  Biso   1.000  H
  C128     1.0000 0.16130  0.26400  0.04860  Biso   1.000  C
  H128     1.0000 0.12160  0.21560  0.06490  Biso   1.000  H
  Zn1      1.0000 0.25000  0.25000  0.33481  Biso   1.000  Zn
  Zn2      1.0000 0.25000  0.25000  0.18158  Biso   1.000  Zn
  N1       1.0000 0.25000  0.25000  0.44150  Biso   1.000  N
  N2       1.0000 0.25000  0.25000  0.57520  Biso   1.000  N
  Zn3      1.0000 0.75000  0.75000  0.16519  Biso   1.000  Zn
  Zn4      1.0000 0.75000  0.75000  0.31842  Biso   1.000  Zn
  N3       1.0000 0.75000  0.75000  0.05850  Biso   1.000  N
  N4       1.0000 0.75000  0.75000  0.92480  Biso   1.000  N
  Zn5      1.0000 0.75000  0.75000  0.66519  Biso   1.000  Zn
  Zn6      1.0000 0.75000  0.75000  0.81842  Biso   1.000  Zn
  N5       1.0000 0.75000  0.75000  0.55850  Biso   1.000  N
  N6       1.0000 0.75000  0.75000  0.42480  Biso   1.000  N
  Zn7      1.0000 0.25000  0.25000  0.83481  Biso   1.000  Zn
  Zn8      1.0000 0.25000  0.25000  0.68158  Biso   1.000  Zn
  N7       1.0000 0.25000  0.25000  0.94150  Biso   1.000  N
  N8       1.0000 0.25000  0.25000  0.07520  Biso   1.000  N
