data_image0
_cell_length_a       14.892
_cell_length_b       14.892
_cell_length_c       19.1557
_cell_angle_alpha    90
_cell_angle_beta     90
_cell_angle_gamma    90

_symmetry_space_group_name_H-M    "P 1"
_symmetry_int_tables_number       1

loop_
  _symmetry_equiv_pos_as_xyz
  'x, y, z'

loop_
  _atom_site_label
  _atom_site_occupancy
  _atom_site_fract_x
  _atom_site_fract_y
  _atom_site_fract_z
  _atom_site_thermal_displace_type
  _atom_site_B_iso_or_equiv
  _atom_site_type_symbol
  O1       1.0000 0.13298  0.18302  0.31971  Biso   1.000  O
  O2       1.0000 0.11980  0.21753  0.20582  Biso   1.000  O
  C1       1.0000 0.09540  0.17740  0.26092  Biso   1.000  C
  C2       1.0000 0.01647  0.11520  0.25550  Biso   1.000  C
  C3       1.0000 0.97810  0.07890  0.31551  Biso   1.000  C
  H1       1.0000 0.99740  0.09860  0.36020  Biso   1.000  H
  C4       1.0000 0.98610  0.08820  0.19005  Biso   1.000  C
  H2       1.0000 0.00990  0.11530  0.14910  Biso   1.000  H
  C5       1.0000 0.20030  0.17230  0.47130  Biso   1.000  C
  H3       1.0000 0.22920  0.11640  0.45470  Biso   1.000  H
  H4       1.0000 0.13810  0.17380  0.45310  Biso   1.000  H
  C6       1.0000 0.16400  0.23200  0.47340  Biso   1.000  C
  H5       1.0000 0.14460  0.17130  0.45850  Biso   1.000  H
  H6       1.0000 0.12040  0.27580  0.45450  Biso   1.000  H
  C7       1.0000 0.19800  0.17310  0.55090  Biso   1.000  C
  H7       1.0000 0.22440  0.11640  0.56880  Biso   1.000  H
  H8       1.0000 0.13550  0.17700  0.56720  Biso   1.000  H
  C8       1.0000 0.26300  0.16260  0.55180  Biso   1.000  C
  H9       1.0000 0.31990  0.13750  0.57080  Biso   1.000  H
  H10      1.0000 0.21330  0.12330  0.56670  Biso   1.000  H
  O3       1.0000 0.36702  0.31698  0.31971  Biso   1.000  O
  O4       1.0000 0.38020  0.28247  0.20582  Biso   1.000  O
  C9       1.0000 0.40460  0.32260  0.26092  Biso   1.000  C
  C10      1.0000 0.48353  0.38480  0.25550  Biso   1.000  C
  C11      1.0000 0.52190  0.42110  0.31551  Biso   1.000  C
  H11      1.0000 0.50260  0.40140  0.36020  Biso   1.000  H
  C12      1.0000 0.51390  0.41180  0.19005  Biso   1.000  C
  H12      1.0000 0.49010  0.38470  0.14910  Biso   1.000  H
  C13      1.0000 0.29970  0.32770  0.47130  Biso   1.000  C
  H13      1.0000 0.27080  0.38360  0.45470  Biso   1.000  H
  H14      1.0000 0.36190  0.32620  0.45310  Biso   1.000  H
  C14      1.0000 0.33600  0.26800  0.47340  Biso   1.000  C
  H15      1.0000 0.35540  0.32870  0.45850  Biso   1.000  H
  H16      1.0000 0.37960  0.22420  0.45450  Biso   1.000  H
  C15      1.0000 0.30200  0.32690  0.55090  Biso   1.000  C
  H17      1.0000 0.27560  0.38360  0.56880  Biso   1.000  H
  H18      1.0000 0.36450  0.32300  0.56720  Biso   1.000  H
  C16      1.0000 0.23700  0.33740  0.55180  Biso   1.000  C
  H19      1.0000 0.18010  0.36250  0.57080  Biso   1.000  H
  H20      1.0000 0.28670  0.37670  0.56670  Biso   1.000  H
  O5       1.0000 0.31698  0.13298  0.31971  Biso   1.000  O
  O6       1.0000 0.28247  0.11980  0.20582  Biso   1.000  O
  C17      1.0000 0.32260  0.09540  0.26092  Biso   1.000  C
  C18      1.0000 0.38480  0.01647  0.25550  Biso   1.000  C
  C19      1.0000 0.42110  0.97810  0.31551  Biso   1.000  C
  H21      1.0000 0.40140  0.99740  0.36020  Biso   1.000  H
  C20      1.0000 0.41180  0.98610  0.19005  Biso   1.000  C
  H22      1.0000 0.38470  0.00990  0.14910  Biso   1.000  H
  C21      1.0000 0.32770  0.20030  0.47130  Biso   1.000  C
  H23      1.0000 0.38360  0.22920  0.45470  Biso   1.000  H
  H24      1.0000 0.32620  0.13810  0.45310  Biso   1.000  H
  C22      1.0000 0.26800  0.16400  0.47340  Biso   1.000  C
  H25      1.0000 0.32870  0.14460  0.45850  Biso   1.000  H
  H26      1.0000 0.22420  0.12040  0.45450  Biso   1.000  H
  C23      1.0000 0.32690  0.19800  0.55090  Biso   1.000  C
  H27      1.0000 0.38360  0.22440  0.56880  Biso   1.000  H
  H28      1.0000 0.32300  0.13550  0.56720  Biso   1.000  H
  C24      1.0000 0.33740  0.26300  0.55180  Biso   1.000  C
  H29      1.0000 0.36250  0.31990  0.57080  Biso   1.000  H
  H30      1.0000 0.37670  0.21330  0.56670  Biso   1.000  H
  O7       1.0000 0.18302  0.36702  0.31971  Biso   1.000  O
  O8       1.0000 0.21753  0.38020  0.20582  Biso   1.000  O
  C25      1.0000 0.17740  0.40460  0.26092  Biso   1.000  C
  C26      1.0000 0.11520  0.48353  0.25550  Biso   1.000  C
  C27      1.0000 0.07890  0.52190  0.31551  Biso   1.000  C
  H31      1.0000 0.09860  0.50260  0.36020  Biso   1.000  H
  C28      1.0000 0.08820  0.51390  0.19005  Biso   1.000  C
  H32      1.0000 0.11530  0.49010  0.14910  Biso   1.000  H
  C29      1.0000 0.17230  0.29970  0.47130  Biso   1.000  C
  H33      1.0000 0.11640  0.27080  0.45470  Biso   1.000  H
  H34      1.0000 0.17380  0.36190  0.45310  Biso   1.000  H
  C30      1.0000 0.23200  0.33600  0.47340  Biso   1.000  C
  H35      1.0000 0.17130  0.35540  0.45850  Biso   1.000  H
  H36      1.0000 0.27580  0.37960  0.45450  Biso   1.000  H
  C31      1.0000 0.17310  0.30200  0.55090  Biso   1.000  C
  H37      1.0000 0.11640  0.27560  0.56880  Biso   1.000  H
  H38      1.0000 0.17700  0.36450  0.56720  Biso   1.000  H
  C32      1.0000 0.16260  0.23700  0.55180  Biso   1.000  C
  H39      1.0000 0.13750  0.18010  0.57080  Biso   1.000  H
  H40      1.0000 0.12330  0.28670  0.56670  Biso   1.000  H
  O9       1.0000 0.86702  0.68302  0.18029  Biso   1.000  O
  O10      1.0000 0.88020  0.71753  0.29418  Biso   1.000  O
  C33      1.0000 0.90460  0.67740  0.23908  Biso   1.000  C
  C34      1.0000 0.98353  0.61520  0.24450  Biso   1.000  C
  C35      1.0000 0.02190  0.57890  0.18449  Biso   1.000  C
  H41      1.0000 0.00260  0.59860  0.13980  Biso   1.000  H
  C36      1.0000 0.01390  0.58820  0.30995  Biso   1.000  C
  H42      1.0000 0.99010  0.61530  0.35090  Biso   1.000  H
  C37      1.0000 0.79970  0.67230  0.02870  Biso   1.000  C
  H43      1.0000 0.77080  0.61640  0.04530  Biso   1.000  H
  H44      1.0000 0.86190  0.67380  0.04690  Biso   1.000  H
  C38      1.0000 0.83600  0.73200  0.02660  Biso   1.000  C
  H45      1.0000 0.85540  0.67130  0.04150  Biso   1.000  H
  H46      1.0000 0.87960  0.77580  0.04550  Biso   1.000  H
  C39      1.0000 0.80200  0.67310  0.94910  Biso   1.000  C
  H47      1.0000 0.77560  0.61640  0.93120  Biso   1.000  H
  H48      1.0000 0.86450  0.67700  0.93280  Biso   1.000  H
  C40      1.0000 0.73700  0.66260  0.94820  Biso   1.000  C
  H49      1.0000 0.68010  0.63750  0.92920  Biso   1.000  H
  H50      1.0000 0.78670  0.62330  0.93330  Biso   1.000  H
  O11      1.0000 0.63298  0.81698  0.18029  Biso   1.000  O
  O12      1.0000 0.61980  0.78247  0.29418  Biso   1.000  O
  C41      1.0000 0.59540  0.82260  0.23908  Biso   1.000  C
  C42      1.0000 0.51647  0.88480  0.24450  Biso   1.000  C
  C43      1.0000 0.47810  0.92110  0.18449  Biso   1.000  C
  H51      1.0000 0.49740  0.90140  0.13980  Biso   1.000  H
  C44      1.0000 0.48610  0.91180  0.30995  Biso   1.000  C
  H52      1.0000 0.50990  0.88470  0.35090  Biso   1.000  H
  C45      1.0000 0.70030  0.82770  0.02870  Biso   1.000  C
  H53      1.0000 0.72920  0.88360  0.04530  Biso   1.000  H
  H54      1.0000 0.63810  0.82620  0.04690  Biso   1.000  H
  C46      1.0000 0.66400  0.76800  0.02660  Biso   1.000  C
  H55      1.0000 0.64460  0.82870  0.04150  Biso   1.000  H
  H56      1.0000 0.62040  0.72420  0.04550  Biso   1.000  H
  C47      1.0000 0.69800  0.82690  0.94910  Biso   1.000  C
  H57      1.0000 0.72440  0.88360  0.93120  Biso   1.000  H
  H58      1.0000 0.63550  0.82300  0.93280  Biso   1.000  H
  C48      1.0000 0.76300  0.83740  0.94820  Biso   1.000  C
  H59      1.0000 0.81990  0.86250  0.92920  Biso   1.000  H
  H60      1.0000 0.71330  0.87670  0.93330  Biso   1.000  H
  O13      1.0000 0.68302  0.63298  0.18029  Biso   1.000  O
  O14      1.0000 0.71753  0.61980  0.29418  Biso   1.000  O
  C49      1.0000 0.67740  0.59540  0.23908  Biso   1.000  C
  C50      1.0000 0.61520  0.51647  0.24450  Biso   1.000  C
  C51      1.0000 0.57890  0.47810  0.18449  Biso   1.000  C
  H61      1.0000 0.59860  0.49740  0.13980  Biso   1.000  H
  C52      1.0000 0.58820  0.48610  0.30995  Biso   1.000  C
  H62      1.0000 0.61530  0.50990  0.35090  Biso   1.000  H
  C53      1.0000 0.67230  0.70030  0.02870  Biso   1.000  C
  H63      1.0000 0.61640  0.72920  0.04530  Biso   1.000  H
  H64      1.0000 0.67380  0.63810  0.04690  Biso   1.000  H
  C54      1.0000 0.73200  0.66400  0.02660  Biso   1.000  C
  H65      1.0000 0.67130  0.64460  0.04150  Biso   1.000  H
  H66      1.0000 0.77580  0.62040  0.04550  Biso   1.000  H
  C55      1.0000 0.67310  0.69800  0.94910  Biso   1.000  C
  H67      1.0000 0.61640  0.72440  0.93120  Biso   1.000  H
  H68      1.0000 0.67700  0.63550  0.93280  Biso   1.000  H
  C56      1.0000 0.66260  0.76300  0.94820  Biso   1.000  C
  H69      1.0000 0.63750  0.81990  0.92920  Biso   1.000  H
  H70      1.0000 0.62330  0.71330  0.93330  Biso   1.000  H
  O15      1.0000 0.81698  0.86702  0.18029  Biso   1.000  O
  O16      1.0000 0.78247  0.88020  0.29418  Biso   1.000  O
  C57      1.0000 0.82260  0.90460  0.23908  Biso   1.000  C
  C58      1.0000 0.88480  0.98353  0.24450  Biso   1.000  C
  C59      1.0000 0.92110  0.02190  0.18449  Biso   1.000  C
  H71      1.0000 0.90140  0.00260  0.13980  Biso   1.000  H
  C60      1.0000 0.91180  0.01390  0.30995  Biso   1.000  C
  H72      1.0000 0.88470  0.99010  0.35090  Biso   1.000  H
  C61      1.0000 0.82770  0.79970  0.02870  Biso   1.000  C
  H73      1.0000 0.88360  0.77080  0.04530  Biso   1.000  H
  H74      1.0000 0.82620  0.86190  0.04690  Biso   1.000  H
  C62      1.0000 0.76800  0.83600  0.02660  Biso   1.000  C
  H75      1.0000 0.82870  0.85540  0.04150  Biso   1.000  H
  H76      1.0000 0.72420  0.87960  0.04550  Biso   1.000  H
  C63      1.0000 0.82690  0.80200  0.94910  Biso   1.000  C
  H77      1.0000 0.88360  0.77560  0.93120  Biso   1.000  H
  H78      1.0000 0.82300  0.86450  0.93280  Biso   1.000  H
  C64      1.0000 0.83740  0.73700  0.94820  Biso   1.000  C
  H79      1.0000 0.86250  0.68010  0.92920  Biso   1.000  H
  H80      1.0000 0.87670  0.78670  0.93330  Biso   1.000  H
  O17      1.0000 0.86702  0.81698  0.68029  Biso   1.000  O
  O18      1.0000 0.88020  0.78247  0.79418  Biso   1.000  O
  C65      1.0000 0.90460  0.82260  0.73908  Biso   1.000  C
  C66      1.0000 0.98353  0.88480  0.74450  Biso   1.000  C
  C67      1.0000 0.02190  0.92110  0.68449  Biso   1.000  C
  H81      1.0000 0.00260  0.90140  0.63980  Biso   1.000  H
  C68      1.0000 0.01390  0.91180  0.80995  Biso   1.000  C
  H82      1.0000 0.99010  0.88470  0.85090  Biso   1.000  H
  C69      1.0000 0.79970  0.82770  0.52870  Biso   1.000  C
  H83      1.0000 0.77080  0.88360  0.54530  Biso   1.000  H
  H84      1.0000 0.86190  0.82620  0.54690  Biso   1.000  H
  C70      1.0000 0.83600  0.76800  0.52660  Biso   1.000  C
  H85      1.0000 0.85540  0.82870  0.54150  Biso   1.000  H
  H86      1.0000 0.87960  0.72420  0.54550  Biso   1.000  H
  C71      1.0000 0.80200  0.82690  0.44910  Biso   1.000  C
  H87      1.0000 0.77560  0.88360  0.43120  Biso   1.000  H
  H88      1.0000 0.86450  0.82300  0.43280  Biso   1.000  H
  C72      1.0000 0.73700  0.83740  0.44820  Biso   1.000  C
  H89      1.0000 0.68010  0.86250  0.42920  Biso   1.000  H
  H90      1.0000 0.78670  0.87670  0.43330  Biso   1.000  H
  O19      1.0000 0.63298  0.68302  0.68029  Biso   1.000  O
  O20      1.0000 0.61980  0.71753  0.79418  Biso   1.000  O
  C73      1.0000 0.59540  0.67740  0.73908  Biso   1.000  C
  C74      1.0000 0.51647  0.61520  0.74450  Biso   1.000  C
  C75      1.0000 0.47810  0.57890  0.68449  Biso   1.000  C
  H91      1.0000 0.49740  0.59860  0.63980  Biso   1.000  H
  C76      1.0000 0.48610  0.58820  0.80995  Biso   1.000  C
  H92      1.0000 0.50990  0.61530  0.85090  Biso   1.000  H
  C77      1.0000 0.70030  0.67230  0.52870  Biso   1.000  C
  H93      1.0000 0.72920  0.61640  0.54530  Biso   1.000  H
  H94      1.0000 0.63810  0.67380  0.54690  Biso   1.000  H
  C78      1.0000 0.66400  0.73200  0.52660  Biso   1.000  C
  H95      1.0000 0.64460  0.67130  0.54150  Biso   1.000  H
  H96      1.0000 0.62040  0.77580  0.54550  Biso   1.000  H
  C79      1.0000 0.69800  0.67310  0.44910  Biso   1.000  C
  H97      1.0000 0.72440  0.61640  0.43120  Biso   1.000  H
  H98      1.0000 0.63550  0.67700  0.43280  Biso   1.000  H
  C80      1.0000 0.76300  0.66260  0.44820  Biso   1.000  C
  H99      1.0000 0.81990  0.63750  0.42920  Biso   1.000  H
  H100     1.0000 0.71330  0.62330  0.43330  Biso   1.000  H
  O21      1.0000 0.68302  0.86702  0.68029  Biso   1.000  O
  O22      1.0000 0.71753  0.88020  0.79418  Biso   1.000  O
  C81      1.0000 0.67740  0.90460  0.73908  Biso   1.000  C
  C82      1.0000 0.61520  0.98353  0.74450  Biso   1.000  C
  C83      1.0000 0.57890  0.02190  0.68449  Biso   1.000  C
  H101     1.0000 0.59860  0.00260  0.63980  Biso   1.000  H
  C84      1.0000 0.58820  0.01390  0.80995  Biso   1.000  C
  H102     1.0000 0.61530  0.99010  0.85090  Biso   1.000  H
  C85      1.0000 0.67230  0.79970  0.52870  Biso   1.000  C
  H103     1.0000 0.61640  0.77080  0.54530  Biso   1.000  H
  H104     1.0000 0.67380  0.86190  0.54690  Biso   1.000  H
  C86      1.0000 0.73200  0.83600  0.52660  Biso   1.000  C
  H105     1.0000 0.67130  0.85540  0.54150  Biso   1.000  H
  H106     1.0000 0.77580  0.87960  0.54550  Biso   1.000  H
  C87      1.0000 0.67310  0.80200  0.44910  Biso   1.000  C
  H107     1.0000 0.61640  0.77560  0.43120  Biso   1.000  H
  H108     1.0000 0.67700  0.86450  0.43280  Biso   1.000  H
  C88      1.0000 0.66260  0.73700  0.44820  Biso   1.000  C
  H109     1.0000 0.63750  0.68010  0.42920  Biso   1.000  H
  H110     1.0000 0.62330  0.78670  0.43330  Biso   1.000  H
  O23      1.0000 0.81698  0.63298  0.68029  Biso   1.000  O
  O24      1.0000 0.78247  0.61980  0.79418  Biso   1.000  O
  C89      1.0000 0.82260  0.59540  0.73908  Biso   1.000  C
  C90      1.0000 0.88480  0.51647  0.74450  Biso   1.000  C
  C91      1.0000 0.92110  0.47810  0.68449  Biso   1.000  C
  H111     1.0000 0.90140  0.49740  0.63980  Biso   1.000  H
  C92      1.0000 0.91180  0.48610  0.80995  Biso   1.000  C
  H112     1.0000 0.88470  0.50990  0.85090  Biso   1.000  H
  C93      1.0000 0.82770  0.70030  0.52870  Biso   1.000  C
  H113     1.0000 0.88360  0.72920  0.54530  Biso   1.000  H
  H114     1.0000 0.82620  0.63810  0.54690  Biso   1.000  H
  C94      1.0000 0.76800  0.66400  0.52660  Biso   1.000  C
  H115     1.0000 0.82870  0.64460  0.54150  Biso   1.000  H
  H116     1.0000 0.72420  0.62040  0.54550  Biso   1.000  H
  C95      1.0000 0.82690  0.69800  0.44910  Biso   1.000  C
  H117     1.0000 0.88360  0.72440  0.43120  Biso   1.000  H
  H118     1.0000 0.82300  0.63550  0.43280  Biso   1.000  H
  C96      1.0000 0.83740  0.76300  0.44820  Biso   1.000  C
  H119     1.0000 0.86250  0.81990  0.42920  Biso   1.000  H
  H120     1.0000 0.87670  0.71330  0.43330  Biso   1.000  H
  O25      1.0000 0.13298  0.31698  0.81971  Biso   1.000  O
  O26      1.0000 0.11980  0.28247  0.70582  Biso   1.000  O
  C97      1.0000 0.09540  0.32260  0.76092  Biso   1.000  C
  C98      1.0000 0.01647  0.38480  0.75550  Biso   1.000  C
  C99      1.0000 0.97810  0.42110  0.81551  Biso   1.000  C
  H121     1.0000 0.99740  0.40140  0.86020  Biso   1.000  H
  C100     1.0000 0.98610  0.41180  0.69005  Biso   1.000  C
  H122     1.0000 0.00990  0.38470  0.64910  Biso   1.000  H
  C101     1.0000 0.20030  0.32770  0.97130  Biso   1.000  C
  H123     1.0000 0.22920  0.38360  0.95470  Biso   1.000  H
  H124     1.0000 0.13810  0.32620  0.95310  Biso   1.000  H
  C102     1.0000 0.16400  0.26800  0.97340  Biso   1.000  C
  H125     1.0000 0.14460  0.32870  0.95850  Biso   1.000  H
  H126     1.0000 0.12040  0.22420  0.95450  Biso   1.000  H
  C103     1.0000 0.19800  0.32690  0.05090  Biso   1.000  C
  H127     1.0000 0.22440  0.38360  0.06880  Biso   1.000  H
  H128     1.0000 0.13550  0.32300  0.06720  Biso   1.000  H
  C104     1.0000 0.26300  0.33740  0.05180  Biso   1.000  C
  H129     1.0000 0.31990  0.36250  0.07080  Biso   1.000  H
  H130     1.0000 0.21330  0.37670  0.06670  Biso   1.000  H
  O27      1.0000 0.36702  0.18302  0.81971  Biso   1.000  O
  O28      1.0000 0.38020  0.21753  0.70582  Biso   1.000  O
  C105     1.0000 0.40460  0.17740  0.76092  Biso   1.000  C
  C106     1.0000 0.48353  0.11520  0.75550  Biso   1.000  C
  C107     1.0000 0.52190  0.07890  0.81551  Biso   1.000  C
  H131     1.0000 0.50260  0.09860  0.86020  Biso   1.000  H
  C108     1.0000 0.51390  0.08820  0.69005  Biso   1.000  C
  H132     1.0000 0.49010  0.11530  0.64910  Biso   1.000  H
  C109     1.0000 0.29970  0.17230  0.97130  Biso   1.000  C
  H133     1.0000 0.27080  0.11640  0.95470  Biso   1.000  H
  H134     1.0000 0.36190  0.17380  0.95310  Biso   1.000  H
  C110     1.0000 0.33600  0.23200  0.97340  Biso   1.000  C
  H135     1.0000 0.35540  0.17130  0.95850  Biso   1.000  H
  H136     1.0000 0.37960  0.27580  0.95450  Biso   1.000  H
  C111     1.0000 0.30200  0.17310  0.05090  Biso   1.000  C
  H137     1.0000 0.27560  0.11640  0.06880  Biso   1.000  H
  H138     1.0000 0.36450  0.17700  0.06720  Biso   1.000  H
  C112     1.0000 0.23700  0.16260  0.05180  Biso   1.000  C
  H139     1.0000 0.18010  0.13750  0.07080  Biso   1.000  H
  H140     1.0000 0.28670  0.12330  0.06670  Biso   1.000  H
  O29      1.0000 0.31698  0.36702  0.81971  Biso   1.000  O
  O30      1.0000 0.28247  0.38020  0.70582  Biso   1.000  O
  C113     1.0000 0.32260  0.40460  0.76092  Biso   1.000  C
  C114     1.0000 0.38480  0.48353  0.75550  Biso   1.000  C
  C115     1.0000 0.42110  0.52190  0.81551  Biso   1.000  C
  H141     1.0000 0.40140  0.50260  0.86020  Biso   1.000  H
  C116     1.0000 0.41180  0.51390  0.69005  Biso   1.000  C
  H142     1.0000 0.38470  0.49010  0.64910  Biso   1.000  H
  C117     1.0000 0.32770  0.29970  0.97130  Biso   1.000  C
  H143     1.0000 0.38360  0.27080  0.95470  Biso   1.000  H
  H144     1.0000 0.32620  0.36190  0.95310  Biso   1.000  H
  C118     1.0000 0.26800  0.33600  0.97340  Biso   1.000  C
  H145     1.0000 0.32870  0.35540  0.95850  Biso   1.000  H
  H146     1.0000 0.22420  0.37960  0.95450  Biso   1.000  H
  C119     1.0000 0.32690  0.30200  0.05090  Biso   1.000  C
  H147     1.0000 0.38360  0.27560  0.06880  Biso   1.000  H
  H148     1.0000 0.32300  0.36450  0.06720  Biso   1.000  H
  C120     1.0000 0.33740  0.23700  0.05180  Biso   1.000  C
  H149     1.0000 0.36250  0.18010  0.07080  Biso   1.000  H
  H150     1.0000 0.37670  0.28670  0.06670  Biso   1.000  H
  O31      1.0000 0.18302  0.13298  0.81971  Biso   1.000  O
  O32      1.0000 0.21753  0.11980  0.70582  Biso   1.000  O
  C121     1.0000 0.17740  0.09540  0.76092  Biso   1.000  C
  C122     1.0000 0.11520  0.01647  0.75550  Biso   1.000  C
  C123     1.0000 0.07890  0.97810  0.81551  Biso   1.000  C
  H151     1.0000 0.09860  0.99740  0.86020  Biso   1.000  H
  C124     1.0000 0.08820  0.98610  0.69005  Biso   1.000  C
  H152     1.0000 0.11530  0.00990  0.64910  Biso   1.000  H
  C125     1.0000 0.17230  0.20030  0.97130  Biso   1.000  C
  H153     1.0000 0.11640  0.22920  0.95470  Biso   1.000  H
  H154     1.0000 0.17380  0.13810  0.95310  Biso   1.000  H
  C126     1.0000 0.23200  0.16400  0.97340  Biso   1.000  C
  H155     1.0000 0.17130  0.14460  0.95850  Biso   1.000  H
  H156     1.0000 0.27580  0.12040  0.95450  Biso   1.000  H
  C127     1.0000 0.17310  0.19800  0.05090  Biso   1.000  C
  H157     1.0000 0.11640  0.22440  0.06880  Biso   1.000  H
  H158     1.0000 0.17700  0.13550  0.06720  Biso   1.000  H
  C128     1.0000 0.16260  0.26300  0.05180  Biso   1.000  C
  H159     1.0000 0.13750  0.31990  0.07080  Biso   1.000  H
  H160     1.0000 0.12330  0.21330  0.06670  Biso   1.000  H
  Zn1      1.0000 0.25000  0.25000  0.33862  Biso   1.000  Zn
  Zn2      1.0000 0.25000  0.25000  0.18556  Biso   1.000  Zn
  N1       1.0000 0.25000  0.25000  0.44530  Biso   1.000  N
  N2       1.0000 0.25000  0.25000  0.57890  Biso   1.000  N
  Zn3      1.0000 0.75000  0.75000  0.16138  Biso   1.000  Zn
  Zn4      1.0000 0.75000  0.75000  0.31444  Biso   1.000  Zn
  N3       1.0000 0.75000  0.75000  0.05470  Biso   1.000  N
  N4       1.0000 0.75000  0.75000  0.92110  Biso   1.000  N
  Zn5      1.0000 0.75000  0.75000  0.66138  Biso   1.000  Zn
  Zn6      1.0000 0.75000  0.75000  0.81444  Biso   1.000  Zn
  N5       1.0000 0.75000  0.75000  0.55470  Biso   1.000  N
  N6       1.0000 0.75000  0.75000  0.42110  Biso   1.000  N
  Zn7      1.0000 0.25000  0.25000  0.83862  Biso   1.000  Zn
  Zn8      1.0000 0.25000  0.25000  0.68556  Biso   1.000  Zn
  N7       1.0000 0.25000  0.25000  0.94530  Biso   1.000  N
  N8       1.0000 0.25000  0.25000  0.07890  Biso   1.000  N
