data_image0
_cell_length_a       14.9235
_cell_length_b       14.9235
_cell_length_c       19.1457
_cell_angle_alpha    90
_cell_angle_beta     90
_cell_angle_gamma    90

_symmetry_space_group_name_H-M    "P 1"
_symmetry_int_tables_number       1

loop_
  _symmetry_equiv_pos_as_xyz
  'x, y, z'

loop_
  _atom_site_label
  _atom_site_occupancy
  _atom_site_fract_x
  _atom_site_fract_y
  _atom_site_fract_z
  _atom_site_thermal_displace_type
  _atom_site_B_iso_or_equiv
  _atom_site_type_symbol
  O1       1.0000 0.21519  0.12061  0.29458  Biso   1.000  O
  O2       1.0000 0.18166  0.13409  0.18096  Biso   1.000  O
  C1       1.0000 0.30580  0.17430  0.02870  Biso   1.000  C
  H1       1.0000 0.36800  0.18070  0.04590  Biso   1.000  H
  H2       1.0000 0.28160  0.11680  0.04630  Biso   1.000  H
  C2       1.0000 0.30550  0.17390  0.94900  Biso   1.000  C
  H3       1.0000 0.28080  0.11630  0.93200  Biso   1.000  H
  H4       1.0000 0.36770  0.17940  0.93160  Biso   1.000  H
  C3       1.0000 0.33500  0.21300  0.94770  Biso   1.000  C
  H5       1.0000 0.34290  0.15110  0.93030  Biso   1.000  H
  H6       1.0000 0.24960  0.11430  0.93040  Biso   1.000  H
  C4       1.0000 0.28750  0.33560  0.02720  Biso   1.000  C
  H7       1.0000 0.24870  0.11340  0.04430  Biso   1.000  H
  H8       1.0000 0.34350  0.15040  0.04410  Biso   1.000  H
  C5       1.0000 0.15720  0.23880  0.02850  Biso   1.000  C
  H9       1.0000 0.31820  0.13190  0.04620  Biso   1.000  H
  H10      1.0000 0.38080  0.21150  0.04560  Biso   1.000  H
  C6       1.0000 0.26200  0.15670  0.94880  Biso   1.000  C
  H11      1.0000 0.38210  0.21310  0.93150  Biso   1.000  H
  H12      1.0000 0.31950  0.13180  0.93200  Biso   1.000  H
  C7       1.0000 0.17580  0.09650  0.23948  Biso   1.000  C
  C8       1.0000 0.11330  0.01800  0.24459  Biso   1.000  C
  C9       1.0000 0.07730  0.97970  0.18435  Biso   1.000  C
  H13      1.0000 0.09700  0.99890  0.13960  Biso   1.000  H
  C10      1.0000 0.08620  0.98720  0.30993  Biso   1.000  C
  H14      1.0000 0.11330  0.01080  0.35090  Biso   1.000  H
  O3       1.0000 0.28481  0.37939  0.29458  Biso   1.000  O
  O4       1.0000 0.31834  0.36591  0.18096  Biso   1.000  O
  C11      1.0000 0.19420  0.32570  0.02870  Biso   1.000  C
  H15      1.0000 0.13200  0.31930  0.04590  Biso   1.000  H
  H16      1.0000 0.21840  0.38320  0.04630  Biso   1.000  H
  C12      1.0000 0.19450  0.32610  0.94900  Biso   1.000  C
  H17      1.0000 0.21920  0.38370  0.93200  Biso   1.000  H
  H18      1.0000 0.13230  0.32060  0.93160  Biso   1.000  H
  C13      1.0000 0.16500  0.28700  0.94770  Biso   1.000  C
  H19      1.0000 0.15710  0.34890  0.93030  Biso   1.000  H
  H20      1.0000 0.25040  0.38570  0.93040  Biso   1.000  H
  C14      1.0000 0.21250  0.16440  0.02720  Biso   1.000  C
  H21      1.0000 0.25130  0.38660  0.04430  Biso   1.000  H
  H22      1.0000 0.15650  0.34960  0.04410  Biso   1.000  H
  C15      1.0000 0.34280  0.26120  0.02850  Biso   1.000  C
  H23      1.0000 0.18180  0.36810  0.04620  Biso   1.000  H
  H24      1.0000 0.11920  0.28850  0.04560  Biso   1.000  H
  C16      1.0000 0.23800  0.34330  0.94880  Biso   1.000  C
  H25      1.0000 0.11790  0.28690  0.93150  Biso   1.000  H
  H26      1.0000 0.18050  0.36820  0.93200  Biso   1.000  H
  C17      1.0000 0.32420  0.40350  0.23948  Biso   1.000  C
  C18      1.0000 0.38670  0.48200  0.24459  Biso   1.000  C
  C19      1.0000 0.42270  0.52030  0.18435  Biso   1.000  C
  H27      1.0000 0.40300  0.50110  0.13960  Biso   1.000  H
  C20      1.0000 0.41380  0.51280  0.30993  Biso   1.000  C
  H28      1.0000 0.38670  0.48920  0.35090  Biso   1.000  H
  O5       1.0000 0.37939  0.21519  0.29458  Biso   1.000  O
  O6       1.0000 0.36591  0.18166  0.18096  Biso   1.000  O
  C21      1.0000 0.32570  0.30580  0.02870  Biso   1.000  C
  H29      1.0000 0.31930  0.36800  0.04590  Biso   1.000  H
  H30      1.0000 0.38320  0.28160  0.04630  Biso   1.000  H
  C22      1.0000 0.32610  0.30550  0.94900  Biso   1.000  C
  H31      1.0000 0.38370  0.28080  0.93200  Biso   1.000  H
  H32      1.0000 0.32060  0.36770  0.93160  Biso   1.000  H
  C23      1.0000 0.28700  0.33500  0.94770  Biso   1.000  C
  H33      1.0000 0.34890  0.34290  0.93030  Biso   1.000  H
  H34      1.0000 0.38570  0.24960  0.93040  Biso   1.000  H
  C24      1.0000 0.16440  0.28750  0.02720  Biso   1.000  C
  H35      1.0000 0.38660  0.24870  0.04430  Biso   1.000  H
  H36      1.0000 0.34960  0.34350  0.04410  Biso   1.000  H
  C25      1.0000 0.26120  0.15720  0.02850  Biso   1.000  C
  H37      1.0000 0.36810  0.31820  0.04620  Biso   1.000  H
  H38      1.0000 0.28850  0.38080  0.04560  Biso   1.000  H
  C26      1.0000 0.34330  0.26200  0.94880  Biso   1.000  C
  H39      1.0000 0.28690  0.38210  0.93150  Biso   1.000  H
  H40      1.0000 0.36820  0.31950  0.93200  Biso   1.000  H
  C27      1.0000 0.40350  0.17580  0.23948  Biso   1.000  C
  C28      1.0000 0.48200  0.11330  0.24459  Biso   1.000  C
  C29      1.0000 0.52030  0.07730  0.18435  Biso   1.000  C
  H41      1.0000 0.50110  0.09700  0.13960  Biso   1.000  H
  C30      1.0000 0.51280  0.08620  0.30993  Biso   1.000  C
  H42      1.0000 0.48920  0.11330  0.35090  Biso   1.000  H
  O7       1.0000 0.12061  0.28481  0.29458  Biso   1.000  O
  O8       1.0000 0.13409  0.31834  0.18096  Biso   1.000  O
  C31      1.0000 0.17430  0.19420  0.02870  Biso   1.000  C
  H43      1.0000 0.18070  0.13200  0.04590  Biso   1.000  H
  H44      1.0000 0.11680  0.21840  0.04630  Biso   1.000  H
  C32      1.0000 0.17390  0.19450  0.94900  Biso   1.000  C
  H45      1.0000 0.11630  0.21920  0.93200  Biso   1.000  H
  H46      1.0000 0.17940  0.13230  0.93160  Biso   1.000  H
  C33      1.0000 0.21300  0.16500  0.94770  Biso   1.000  C
  H47      1.0000 0.15110  0.15710  0.93030  Biso   1.000  H
  H48      1.0000 0.11430  0.25040  0.93040  Biso   1.000  H
  C34      1.0000 0.33560  0.21250  0.02720  Biso   1.000  C
  H49      1.0000 0.11340  0.25130  0.04430  Biso   1.000  H
  H50      1.0000 0.15040  0.15650  0.04410  Biso   1.000  H
  C35      1.0000 0.23880  0.34280  0.02850  Biso   1.000  C
  H51      1.0000 0.13190  0.18180  0.04620  Biso   1.000  H
  H52      1.0000 0.21150  0.11920  0.04560  Biso   1.000  H
  C36      1.0000 0.15670  0.23800  0.94880  Biso   1.000  C
  H53      1.0000 0.21310  0.11790  0.93150  Biso   1.000  H
  H54      1.0000 0.13180  0.18050  0.93200  Biso   1.000  H
  C37      1.0000 0.09650  0.32420  0.23948  Biso   1.000  C
  C38      1.0000 0.01800  0.38670  0.24459  Biso   1.000  C
  C39      1.0000 0.97970  0.42270  0.18435  Biso   1.000  C
  H55      1.0000 0.99890  0.40300  0.13960  Biso   1.000  H
  C40      1.0000 0.98720  0.41380  0.30993  Biso   1.000  C
  H56      1.0000 0.01080  0.38670  0.35090  Biso   1.000  H
  O9       1.0000 0.78481  0.62061  0.20542  Biso   1.000  O
  O10      1.0000 0.81834  0.63409  0.31904  Biso   1.000  O
  C41      1.0000 0.69420  0.67430  0.47130  Biso   1.000  C
  H57      1.0000 0.63200  0.68070  0.45410  Biso   1.000  H
  H58      1.0000 0.71840  0.61680  0.45370  Biso   1.000  H
  C42      1.0000 0.69450  0.67390  0.55100  Biso   1.000  C
  H59      1.0000 0.71920  0.61630  0.56800  Biso   1.000  H
  H60      1.0000 0.63230  0.67940  0.56840  Biso   1.000  H
  C43      1.0000 0.66500  0.71300  0.55230  Biso   1.000  C
  H61      1.0000 0.65710  0.65110  0.56970  Biso   1.000  H
  H62      1.0000 0.75040  0.61430  0.56960  Biso   1.000  H
  C44      1.0000 0.71250  0.83560  0.47280  Biso   1.000  C
  H63      1.0000 0.75130  0.61340  0.45570  Biso   1.000  H
  H64      1.0000 0.65650  0.65040  0.45590  Biso   1.000  H
  C45      1.0000 0.84280  0.73880  0.47150  Biso   1.000  C
  H65      1.0000 0.68180  0.63190  0.45380  Biso   1.000  H
  H66      1.0000 0.61920  0.71150  0.45440  Biso   1.000  H
  C46      1.0000 0.73800  0.65670  0.55120  Biso   1.000  C
  H67      1.0000 0.61790  0.71310  0.56850  Biso   1.000  H
  H68      1.0000 0.68050  0.63180  0.56800  Biso   1.000  H
  C47      1.0000 0.82420  0.59650  0.26052  Biso   1.000  C
  C48      1.0000 0.88670  0.51800  0.25541  Biso   1.000  C
  C49      1.0000 0.92270  0.47970  0.31565  Biso   1.000  C
  H69      1.0000 0.90300  0.49890  0.36040  Biso   1.000  H
  C50      1.0000 0.91380  0.48720  0.19007  Biso   1.000  C
  H70      1.0000 0.88670  0.51080  0.14910  Biso   1.000  H
  O11      1.0000 0.71519  0.87939  0.20542  Biso   1.000  O
  O12      1.0000 0.68166  0.86591  0.31904  Biso   1.000  O
  C51      1.0000 0.80580  0.82570  0.47130  Biso   1.000  C
  H71      1.0000 0.86800  0.81930  0.45410  Biso   1.000  H
  H72      1.0000 0.78160  0.88320  0.45370  Biso   1.000  H
  C52      1.0000 0.80550  0.82610  0.55100  Biso   1.000  C
  H73      1.0000 0.78080  0.88370  0.56800  Biso   1.000  H
  H74      1.0000 0.86770  0.82060  0.56840  Biso   1.000  H
  C53      1.0000 0.83500  0.78700  0.55230  Biso   1.000  C
  H75      1.0000 0.84290  0.84890  0.56970  Biso   1.000  H
  H76      1.0000 0.74960  0.88570  0.56960  Biso   1.000  H
  C54      1.0000 0.78750  0.66440  0.47280  Biso   1.000  C
  H77      1.0000 0.74870  0.88660  0.45570  Biso   1.000  H
  H78      1.0000 0.84350  0.84960  0.45590  Biso   1.000  H
  C55      1.0000 0.65720  0.76120  0.47150  Biso   1.000  C
  H79      1.0000 0.81820  0.86810  0.45380  Biso   1.000  H
  H80      1.0000 0.88080  0.78850  0.45440  Biso   1.000  H
  C56      1.0000 0.76200  0.84330  0.55120  Biso   1.000  C
  H81      1.0000 0.88210  0.78690  0.56850  Biso   1.000  H
  H82      1.0000 0.81950  0.86820  0.56800  Biso   1.000  H
  C57      1.0000 0.67580  0.90350  0.26052  Biso   1.000  C
  C58      1.0000 0.61330  0.98200  0.25541  Biso   1.000  C
  C59      1.0000 0.57730  0.02030  0.31565  Biso   1.000  C
  H83      1.0000 0.59700  0.00110  0.36040  Biso   1.000  H
  C60      1.0000 0.58620  0.01280  0.19007  Biso   1.000  C
  H84      1.0000 0.61330  0.98920  0.14910  Biso   1.000  H
  O13      1.0000 0.62061  0.71519  0.20542  Biso   1.000  O
  O14      1.0000 0.63409  0.68166  0.31904  Biso   1.000  O
  C61      1.0000 0.67430  0.80580  0.47130  Biso   1.000  C
  H85      1.0000 0.68070  0.86800  0.45410  Biso   1.000  H
  H86      1.0000 0.61680  0.78160  0.45370  Biso   1.000  H
  C62      1.0000 0.67390  0.80550  0.55100  Biso   1.000  C
  H87      1.0000 0.61630  0.78080  0.56800  Biso   1.000  H
  H88      1.0000 0.67940  0.86770  0.56840  Biso   1.000  H
  C63      1.0000 0.71300  0.83500  0.55230  Biso   1.000  C
  H89      1.0000 0.65110  0.84290  0.56970  Biso   1.000  H
  H90      1.0000 0.61430  0.74960  0.56960  Biso   1.000  H
  C64      1.0000 0.83560  0.78750  0.47280  Biso   1.000  C
  H91      1.0000 0.61340  0.74870  0.45570  Biso   1.000  H
  H92      1.0000 0.65040  0.84350  0.45590  Biso   1.000  H
  C65      1.0000 0.73880  0.65720  0.47150  Biso   1.000  C
  H93      1.0000 0.63190  0.81820  0.45380  Biso   1.000  H
  H94      1.0000 0.71150  0.88080  0.45440  Biso   1.000  H
  C66      1.0000 0.65670  0.76200  0.55120  Biso   1.000  C
  H95      1.0000 0.71310  0.88210  0.56850  Biso   1.000  H
  H96      1.0000 0.63180  0.81950  0.56800  Biso   1.000  H
  C67      1.0000 0.59650  0.67580  0.26052  Biso   1.000  C
  C68      1.0000 0.51800  0.61330  0.25541  Biso   1.000  C
  C69      1.0000 0.47970  0.57730  0.31565  Biso   1.000  C
  H97      1.0000 0.49890  0.59700  0.36040  Biso   1.000  H
  C70      1.0000 0.48720  0.58620  0.19007  Biso   1.000  C
  H98      1.0000 0.51080  0.61330  0.14910  Biso   1.000  H
  O15      1.0000 0.87939  0.78481  0.20542  Biso   1.000  O
  O16      1.0000 0.86591  0.81834  0.31904  Biso   1.000  O
  C71      1.0000 0.82570  0.69420  0.47130  Biso   1.000  C
  H99      1.0000 0.81930  0.63200  0.45410  Biso   1.000  H
  H100     1.0000 0.88320  0.71840  0.45370  Biso   1.000  H
  C72      1.0000 0.82610  0.69450  0.55100  Biso   1.000  C
  H101     1.0000 0.88370  0.71920  0.56800  Biso   1.000  H
  H102     1.0000 0.82060  0.63230  0.56840  Biso   1.000  H
  C73      1.0000 0.78700  0.66500  0.55230  Biso   1.000  C
  H103     1.0000 0.84890  0.65710  0.56970  Biso   1.000  H
  H104     1.0000 0.88570  0.75040  0.56960  Biso   1.000  H
  C74      1.0000 0.66440  0.71250  0.47280  Biso   1.000  C
  H105     1.0000 0.88660  0.75130  0.45570  Biso   1.000  H
  H106     1.0000 0.84960  0.65650  0.45590  Biso   1.000  H
  C75      1.0000 0.76120  0.84280  0.47150  Biso   1.000  C
  H107     1.0000 0.86810  0.68180  0.45380  Biso   1.000  H
  H108     1.0000 0.78850  0.61920  0.45440  Biso   1.000  H
  C76      1.0000 0.84330  0.73800  0.55120  Biso   1.000  C
  H109     1.0000 0.78690  0.61790  0.56850  Biso   1.000  H
  H110     1.0000 0.86820  0.68050  0.56800  Biso   1.000  H
  C77      1.0000 0.90350  0.82420  0.26052  Biso   1.000  C
  C78      1.0000 0.98200  0.88670  0.25541  Biso   1.000  C
  C79      1.0000 0.02030  0.92270  0.31565  Biso   1.000  C
  H111     1.0000 0.00110  0.90300  0.36040  Biso   1.000  H
  C80      1.0000 0.01280  0.91380  0.19007  Biso   1.000  C
  H112     1.0000 0.98920  0.88670  0.14910  Biso   1.000  H
  O17      1.0000 0.78481  0.87939  0.70542  Biso   1.000  O
  O18      1.0000 0.81834  0.86591  0.81904  Biso   1.000  O
  C81      1.0000 0.69420  0.82570  0.97130  Biso   1.000  C
  H113     1.0000 0.63200  0.81930  0.95410  Biso   1.000  H
  H114     1.0000 0.71840  0.88320  0.95370  Biso   1.000  H
  C82      1.0000 0.69450  0.82610  0.05100  Biso   1.000  C
  H115     1.0000 0.71920  0.88370  0.06800  Biso   1.000  H
  H116     1.0000 0.63230  0.82060  0.06840  Biso   1.000  H
  C83      1.0000 0.66500  0.78700  0.05230  Biso   1.000  C
  H117     1.0000 0.65710  0.84890  0.06970  Biso   1.000  H
  H118     1.0000 0.75040  0.88570  0.06960  Biso   1.000  H
  C84      1.0000 0.71250  0.66440  0.97280  Biso   1.000  C
  H119     1.0000 0.75130  0.88660  0.95570  Biso   1.000  H
  H120     1.0000 0.65650  0.84960  0.95590  Biso   1.000  H
  C85      1.0000 0.84280  0.76120  0.97150  Biso   1.000  C
  H121     1.0000 0.68180  0.86810  0.95380  Biso   1.000  H
  H122     1.0000 0.61920  0.78850  0.95440  Biso   1.000  H
  C86      1.0000 0.73800  0.84330  0.05120  Biso   1.000  C
  H123     1.0000 0.61790  0.78690  0.06850  Biso   1.000  H
  H124     1.0000 0.68050  0.86820  0.06800  Biso   1.000  H
  C87      1.0000 0.82420  0.90350  0.76052  Biso   1.000  C
  C88      1.0000 0.88670  0.98200  0.75541  Biso   1.000  C
  C89      1.0000 0.92270  0.02030  0.81565  Biso   1.000  C
  H125     1.0000 0.90300  0.00110  0.86040  Biso   1.000  H
  C90      1.0000 0.91380  0.01280  0.69007  Biso   1.000  C
  H126     1.0000 0.88670  0.98920  0.64910  Biso   1.000  H
  O19      1.0000 0.71519  0.62061  0.70542  Biso   1.000  O
  O20      1.0000 0.68166  0.63409  0.81904  Biso   1.000  O
  C91      1.0000 0.80580  0.67430  0.97130  Biso   1.000  C
  H127     1.0000 0.86800  0.68070  0.95410  Biso   1.000  H
  H128     1.0000 0.78160  0.61680  0.95370  Biso   1.000  H
  C92      1.0000 0.80550  0.67390  0.05100  Biso   1.000  C
  H129     1.0000 0.78080  0.61630  0.06800  Biso   1.000  H
  H130     1.0000 0.86770  0.67940  0.06840  Biso   1.000  H
  C93      1.0000 0.83500  0.71300  0.05230  Biso   1.000  C
  H131     1.0000 0.84290  0.65110  0.06970  Biso   1.000  H
  H132     1.0000 0.74960  0.61430  0.06960  Biso   1.000  H
  C94      1.0000 0.78750  0.83560  0.97280  Biso   1.000  C
  H133     1.0000 0.74870  0.61340  0.95570  Biso   1.000  H
  H134     1.0000 0.84350  0.65040  0.95590  Biso   1.000  H
  C95      1.0000 0.65720  0.73880  0.97150  Biso   1.000  C
  H135     1.0000 0.81820  0.63190  0.95380  Biso   1.000  H
  H136     1.0000 0.88080  0.71150  0.95440  Biso   1.000  H
  C96      1.0000 0.76200  0.65670  0.05120  Biso   1.000  C
  H137     1.0000 0.88210  0.71310  0.06850  Biso   1.000  H
  H138     1.0000 0.81950  0.63180  0.06800  Biso   1.000  H
  C97      1.0000 0.67580  0.59650  0.76052  Biso   1.000  C
  C98      1.0000 0.61330  0.51800  0.75541  Biso   1.000  C
  C99      1.0000 0.57730  0.47970  0.81565  Biso   1.000  C
  H139     1.0000 0.59700  0.49890  0.86040  Biso   1.000  H
  C100     1.0000 0.58620  0.48720  0.69007  Biso   1.000  C
  H140     1.0000 0.61330  0.51080  0.64910  Biso   1.000  H
  O21      1.0000 0.62061  0.78481  0.70542  Biso   1.000  O
  O22      1.0000 0.63409  0.81834  0.81904  Biso   1.000  O
  C101     1.0000 0.67430  0.69420  0.97130  Biso   1.000  C
  H141     1.0000 0.68070  0.63200  0.95410  Biso   1.000  H
  H142     1.0000 0.61680  0.71840  0.95370  Biso   1.000  H
  C102     1.0000 0.67390  0.69450  0.05100  Biso   1.000  C
  H143     1.0000 0.61630  0.71920  0.06800  Biso   1.000  H
  H144     1.0000 0.67940  0.63230  0.06840  Biso   1.000  H
  C103     1.0000 0.71300  0.66500  0.05230  Biso   1.000  C
  H145     1.0000 0.65110  0.65710  0.06970  Biso   1.000  H
  H146     1.0000 0.61430  0.75040  0.06960  Biso   1.000  H
  C104     1.0000 0.83560  0.71250  0.97280  Biso   1.000  C
  H147     1.0000 0.61340  0.75130  0.95570  Biso   1.000  H
  H148     1.0000 0.65040  0.65650  0.95590  Biso   1.000  H
  C105     1.0000 0.73880  0.84280  0.97150  Biso   1.000  C
  H149     1.0000 0.63190  0.68180  0.95380  Biso   1.000  H
  H150     1.0000 0.71150  0.61920  0.95440  Biso   1.000  H
  C106     1.0000 0.65670  0.73800  0.05120  Biso   1.000  C
  H151     1.0000 0.71310  0.61790  0.06850  Biso   1.000  H
  H152     1.0000 0.63180  0.68050  0.06800  Biso   1.000  H
  C107     1.0000 0.59650  0.82420  0.76052  Biso   1.000  C
  C108     1.0000 0.51800  0.88670  0.75541  Biso   1.000  C
  C109     1.0000 0.47970  0.92270  0.81565  Biso   1.000  C
  H153     1.0000 0.49890  0.90300  0.86040  Biso   1.000  H
  C110     1.0000 0.48720  0.91380  0.69007  Biso   1.000  C
  H154     1.0000 0.51080  0.88670  0.64910  Biso   1.000  H
  O23      1.0000 0.87939  0.71519  0.70542  Biso   1.000  O
  O24      1.0000 0.86591  0.68166  0.81904  Biso   1.000  O
  C111     1.0000 0.82570  0.80580  0.97130  Biso   1.000  C
  H155     1.0000 0.81930  0.86800  0.95410  Biso   1.000  H
  H156     1.0000 0.88320  0.78160  0.95370  Biso   1.000  H
  C112     1.0000 0.82610  0.80550  0.05100  Biso   1.000  C
  H157     1.0000 0.88370  0.78080  0.06800  Biso   1.000  H
  H158     1.0000 0.82060  0.86770  0.06840  Biso   1.000  H
  C113     1.0000 0.78700  0.83500  0.05230  Biso   1.000  C
  H159     1.0000 0.84890  0.84290  0.06970  Biso   1.000  H
  H160     1.0000 0.88570  0.74960  0.06960  Biso   1.000  H
  C114     1.0000 0.66440  0.78750  0.97280  Biso   1.000  C
  H161     1.0000 0.88660  0.74870  0.95570  Biso   1.000  H
  H162     1.0000 0.84960  0.84350  0.95590  Biso   1.000  H
  C115     1.0000 0.76120  0.65720  0.97150  Biso   1.000  C
  H163     1.0000 0.86810  0.81820  0.95380  Biso   1.000  H
  H164     1.0000 0.78850  0.88080  0.95440  Biso   1.000  H
  C116     1.0000 0.84330  0.76200  0.05120  Biso   1.000  C
  H165     1.0000 0.78690  0.88210  0.06850  Biso   1.000  H
  H166     1.0000 0.86820  0.81950  0.06800  Biso   1.000  H
  C117     1.0000 0.90350  0.67580  0.76052  Biso   1.000  C
  C118     1.0000 0.98200  0.61330  0.75541  Biso   1.000  C
  C119     1.0000 0.02030  0.57730  0.81565  Biso   1.000  C
  H167     1.0000 0.00110  0.59700  0.86040  Biso   1.000  H
  C120     1.0000 0.01280  0.58620  0.69007  Biso   1.000  C
  H168     1.0000 0.98920  0.61330  0.64910  Biso   1.000  H
  O25      1.0000 0.21519  0.37939  0.79458  Biso   1.000  O
  O26      1.0000 0.18166  0.36591  0.68096  Biso   1.000  O
  C121     1.0000 0.30580  0.32570  0.52870  Biso   1.000  C
  H169     1.0000 0.36800  0.31930  0.54590  Biso   1.000  H
  H170     1.0000 0.28160  0.38320  0.54630  Biso   1.000  H
  C122     1.0000 0.30550  0.32610  0.44900  Biso   1.000  C
  H171     1.0000 0.28080  0.38370  0.43200  Biso   1.000  H
  H172     1.0000 0.36770  0.32060  0.43160  Biso   1.000  H
  C123     1.0000 0.33500  0.28700  0.44770  Biso   1.000  C
  H173     1.0000 0.34290  0.34890  0.43030  Biso   1.000  H
  H174     1.0000 0.24960  0.38570  0.43040  Biso   1.000  H
  C124     1.0000 0.28750  0.16440  0.52720  Biso   1.000  C
  H175     1.0000 0.24870  0.38660  0.54430  Biso   1.000  H
  H176     1.0000 0.34350  0.34960  0.54410  Biso   1.000  H
  C125     1.0000 0.15720  0.26120  0.52850  Biso   1.000  C
  H177     1.0000 0.31820  0.36810  0.54620  Biso   1.000  H
  H178     1.0000 0.38080  0.28850  0.54560  Biso   1.000  H
  C126     1.0000 0.26200  0.34330  0.44880  Biso   1.000  C
  H179     1.0000 0.38210  0.28690  0.43150  Biso   1.000  H
  H180     1.0000 0.31950  0.36820  0.43200  Biso   1.000  H
  C127     1.0000 0.17580  0.40350  0.73948  Biso   1.000  C
  C128     1.0000 0.11330  0.48200  0.74459  Biso   1.000  C
  C129     1.0000 0.07730  0.52030  0.68435  Biso   1.000  C
  H181     1.0000 0.09700  0.50110  0.63960  Biso   1.000  H
  C130     1.0000 0.08620  0.51280  0.80993  Biso   1.000  C
  H182     1.0000 0.11330  0.48920  0.85090  Biso   1.000  H
  O27      1.0000 0.28481  0.12061  0.79458  Biso   1.000  O
  O28      1.0000 0.31834  0.13409  0.68096  Biso   1.000  O
  C131     1.0000 0.19420  0.17430  0.52870  Biso   1.000  C
  H183     1.0000 0.13200  0.18070  0.54590  Biso   1.000  H
  H184     1.0000 0.21840  0.11680  0.54630  Biso   1.000  H
  C132     1.0000 0.19450  0.17390  0.44900  Biso   1.000  C
  H185     1.0000 0.21920  0.11630  0.43200  Biso   1.000  H
  H186     1.0000 0.13230  0.17940  0.43160  Biso   1.000  H
  C133     1.0000 0.16500  0.21300  0.44770  Biso   1.000  C
  H187     1.0000 0.15710  0.15110  0.43030  Biso   1.000  H
  H188     1.0000 0.25040  0.11430  0.43040  Biso   1.000  H
  C134     1.0000 0.21250  0.33560  0.52720  Biso   1.000  C
  H189     1.0000 0.25130  0.11340  0.54430  Biso   1.000  H
  H190     1.0000 0.15650  0.15040  0.54410  Biso   1.000  H
  C135     1.0000 0.34280  0.23880  0.52850  Biso   1.000  C
  H191     1.0000 0.18180  0.13190  0.54620  Biso   1.000  H
  H192     1.0000 0.11920  0.21150  0.54560  Biso   1.000  H
  C136     1.0000 0.23800  0.15670  0.44880  Biso   1.000  C
  H193     1.0000 0.11790  0.21310  0.43150  Biso   1.000  H
  H194     1.0000 0.18050  0.13180  0.43200  Biso   1.000  H
  C137     1.0000 0.32420  0.09650  0.73948  Biso   1.000  C
  C138     1.0000 0.38670  0.01800  0.74459  Biso   1.000  C
  C139     1.0000 0.42270  0.97970  0.68435  Biso   1.000  C
  H195     1.0000 0.40300  0.99890  0.63960  Biso   1.000  H
  C140     1.0000 0.41380  0.98720  0.80993  Biso   1.000  C
  H196     1.0000 0.38670  0.01080  0.85090  Biso   1.000  H
  O29      1.0000 0.37939  0.28481  0.79458  Biso   1.000  O
  O30      1.0000 0.36591  0.31834  0.68096  Biso   1.000  O
  C141     1.0000 0.32570  0.19420  0.52870  Biso   1.000  C
  H197     1.0000 0.31930  0.13200  0.54590  Biso   1.000  H
  H198     1.0000 0.38320  0.21840  0.54630  Biso   1.000  H
  C142     1.0000 0.32610  0.19450  0.44900  Biso   1.000  C
  H199     1.0000 0.38370  0.21920  0.43200  Biso   1.000  H
  H200     1.0000 0.32060  0.13230  0.43160  Biso   1.000  H
  C143     1.0000 0.28700  0.16500  0.44770  Biso   1.000  C
  H201     1.0000 0.34890  0.15710  0.43030  Biso   1.000  H
  H202     1.0000 0.38570  0.25040  0.43040  Biso   1.000  H
  C144     1.0000 0.16440  0.21250  0.52720  Biso   1.000  C
  H203     1.0000 0.38660  0.25130  0.54430  Biso   1.000  H
  H204     1.0000 0.34960  0.15650  0.54410  Biso   1.000  H
  C145     1.0000 0.26120  0.34280  0.52850  Biso   1.000  C
  H205     1.0000 0.36810  0.18180  0.54620  Biso   1.000  H
  H206     1.0000 0.28850  0.11920  0.54560  Biso   1.000  H
  C146     1.0000 0.34330  0.23800  0.44880  Biso   1.000  C
  H207     1.0000 0.28690  0.11790  0.43150  Biso   1.000  H
  H208     1.0000 0.36820  0.18050  0.43200  Biso   1.000  H
  C147     1.0000 0.40350  0.32420  0.73948  Biso   1.000  C
  C148     1.0000 0.48200  0.38670  0.74459  Biso   1.000  C
  C149     1.0000 0.52030  0.42270  0.68435  Biso   1.000  C
  H209     1.0000 0.50110  0.40300  0.63960  Biso   1.000  H
  C150     1.0000 0.51280  0.41380  0.80993  Biso   1.000  C
  H210     1.0000 0.48920  0.38670  0.85090  Biso   1.000  H
  O31      1.0000 0.12061  0.21519  0.79458  Biso   1.000  O
  O32      1.0000 0.13409  0.18166  0.68096  Biso   1.000  O
  C151     1.0000 0.17430  0.30580  0.52870  Biso   1.000  C
  H211     1.0000 0.18070  0.36800  0.54590  Biso   1.000  H
  H212     1.0000 0.11680  0.28160  0.54630  Biso   1.000  H
  C152     1.0000 0.17390  0.30550  0.44900  Biso   1.000  C
  H213     1.0000 0.11630  0.28080  0.43200  Biso   1.000  H
  H214     1.0000 0.17940  0.36770  0.43160  Biso   1.000  H
  C153     1.0000 0.21300  0.33500  0.44770  Biso   1.000  C
  H215     1.0000 0.15110  0.34290  0.43030  Biso   1.000  H
  H216     1.0000 0.11430  0.24960  0.43040  Biso   1.000  H
  C154     1.0000 0.33560  0.28750  0.52720  Biso   1.000  C
  H217     1.0000 0.11340  0.24870  0.54430  Biso   1.000  H
  H218     1.0000 0.15040  0.34350  0.54410  Biso   1.000  H
  C155     1.0000 0.23880  0.15720  0.52850  Biso   1.000  C
  H219     1.0000 0.13190  0.31820  0.54620  Biso   1.000  H
  H220     1.0000 0.21150  0.38080  0.54560  Biso   1.000  H
  C156     1.0000 0.15670  0.26200  0.44880  Biso   1.000  C
  H221     1.0000 0.21310  0.38210  0.43150  Biso   1.000  H
  H222     1.0000 0.13180  0.31950  0.43200  Biso   1.000  H
  C157     1.0000 0.09650  0.17580  0.73948  Biso   1.000  C
  C158     1.0000 0.01800  0.11330  0.74459  Biso   1.000  C
  C159     1.0000 0.97970  0.07730  0.68435  Biso   1.000  C
  H223     1.0000 0.99890  0.09700  0.63960  Biso   1.000  H
  C160     1.0000 0.98720  0.08620  0.80993  Biso   1.000  C
  H224     1.0000 0.01080  0.11330  0.85090  Biso   1.000  H
  Cu1      1.0000 0.25000  0.25000  0.16183  Biso   1.000  Cu
  Cu2      1.0000 0.25000  0.25000  0.31476  Biso   1.000  Cu
  N1       1.0000 0.25000  0.25000  0.05540  Biso   1.000  N
  N2       1.0000 0.25000  0.25000  0.92070  Biso   1.000  N
  Cu3      1.0000 0.75000  0.75000  0.33817  Biso   1.000  Cu
  Cu4      1.0000 0.75000  0.75000  0.18524  Biso   1.000  Cu
  N3       1.0000 0.75000  0.75000  0.44460  Biso   1.000  N
  N4       1.0000 0.75000  0.75000  0.57930  Biso   1.000  N
  Cu5      1.0000 0.75000  0.75000  0.83817  Biso   1.000  Cu
  Cu6      1.0000 0.75000  0.75000  0.68524  Biso   1.000  Cu
  N5       1.0000 0.75000  0.75000  0.94460  Biso   1.000  N
  N6       1.0000 0.75000  0.75000  0.07930  Biso   1.000  N
  Cu7      1.0000 0.25000  0.25000  0.66183  Biso   1.000  Cu
  Cu8      1.0000 0.25000  0.25000  0.81476  Biso   1.000  Cu
  N7       1.0000 0.25000  0.25000  0.55540  Biso   1.000  N
  N8       1.0000 0.25000  0.25000  0.42070  Biso   1.000  N
