data_image0
_cell_length_a       14.9344
_cell_length_b       14.9344
_cell_length_c       19.1332
_cell_angle_alpha    90
_cell_angle_beta     90
_cell_angle_gamma    90

_symmetry_space_group_name_H-M    "P 1"
_symmetry_int_tables_number       1

loop_
  _symmetry_equiv_pos_as_xyz
  'x, y, z'

loop_
  _atom_site_label
  _atom_site_occupancy
  _atom_site_fract_x
  _atom_site_fract_y
  _atom_site_fract_z
  _atom_site_thermal_displace_type
  _atom_site_B_iso_or_equiv
  _atom_site_type_symbol
  O1       1.0000 0.21583  0.12053  0.29456  Biso   1.000  O
  O2       1.0000 0.18176  0.13385  0.18088  Biso   1.000  O
  C1       1.0000 0.30740  0.17560  0.02840  Biso   1.000  C
  H1       1.0000 0.36930  0.18330  0.04580  Biso   1.000  H
  H2       1.0000 0.28430  0.11770  0.04610  Biso   1.000  H
  C2       1.0000 0.30750  0.17480  0.94900  Biso   1.000  C
  H3       1.0000 0.28420  0.11670  0.93190  Biso   1.000  H
  H4       1.0000 0.36960  0.18190  0.93160  Biso   1.000  H
  C3       1.0000 0.33530  0.21400  0.94800  Biso   1.000  C
  H5       1.0000 0.34380  0.15220  0.93050  Biso   1.000  H
  H6       1.0000 0.25100  0.11450  0.93070  Biso   1.000  H
  C4       1.0000 0.28630  0.33560  0.02700  Biso   1.000  C
  H7       1.0000 0.25040  0.11380  0.04420  Biso   1.000  H
  H8       1.0000 0.34420  0.15170  0.04410  Biso   1.000  H
  C5       1.0000 0.15800  0.23600  0.02790  Biso   1.000  C
  H9       1.0000 0.32200  0.13470  0.04520  Biso   1.000  H
  H10      1.0000 0.38160  0.21590  0.04550  Biso   1.000  H
  C6       1.0000 0.26380  0.15750  0.94890  Biso   1.000  C
  H11      1.0000 0.38210  0.21530  0.93190  Biso   1.000  H
  H12      1.0000 0.32150  0.13360  0.93160  Biso   1.000  H
  C7       1.0000 0.17570  0.09630  0.23950  Biso   1.000  C
  C8       1.0000 0.11360  0.01800  0.24460  Biso   1.000  C
  C9       1.0000 0.07740  0.97960  0.18450  Biso   1.000  C
  H13      1.0000 0.09730  0.99870  0.13970  Biso   1.000  H
  C10      1.0000 0.08610  0.98730  0.31010  Biso   1.000  C
  H14      1.0000 0.11280  0.01110  0.35120  Biso   1.000  H
  O3       1.0000 0.28417  0.37947  0.29456  Biso   1.000  O
  O4       1.0000 0.31824  0.36615  0.18088  Biso   1.000  O
  C11      1.0000 0.19260  0.32440  0.02840  Biso   1.000  C
  H15      1.0000 0.13070  0.31670  0.04580  Biso   1.000  H
  H16      1.0000 0.21570  0.38230  0.04610  Biso   1.000  H
  C12      1.0000 0.19250  0.32520  0.94900  Biso   1.000  C
  H17      1.0000 0.21580  0.38330  0.93190  Biso   1.000  H
  H18      1.0000 0.13040  0.31810  0.93160  Biso   1.000  H
  C13      1.0000 0.16470  0.28600  0.94800  Biso   1.000  C
  H19      1.0000 0.15620  0.34780  0.93050  Biso   1.000  H
  H20      1.0000 0.24900  0.38550  0.93070  Biso   1.000  H
  C14      1.0000 0.21370  0.16440  0.02700  Biso   1.000  C
  H21      1.0000 0.24960  0.38620  0.04420  Biso   1.000  H
  H22      1.0000 0.15580  0.34830  0.04410  Biso   1.000  H
  C15      1.0000 0.34200  0.26400  0.02790  Biso   1.000  C
  H23      1.0000 0.17800  0.36530  0.04520  Biso   1.000  H
  H24      1.0000 0.11840  0.28410  0.04550  Biso   1.000  H
  C16      1.0000 0.23620  0.34250  0.94890  Biso   1.000  C
  H25      1.0000 0.11790  0.28470  0.93190  Biso   1.000  H
  H26      1.0000 0.17850  0.36640  0.93160  Biso   1.000  H
  C17      1.0000 0.32430  0.40370  0.23950  Biso   1.000  C
  C18      1.0000 0.38640  0.48200  0.24460  Biso   1.000  C
  C19      1.0000 0.42260  0.52040  0.18450  Biso   1.000  C
  H27      1.0000 0.40270  0.50130  0.13970  Biso   1.000  H
  C20      1.0000 0.41390  0.51270  0.31010  Biso   1.000  C
  H28      1.0000 0.38720  0.48890  0.35120  Biso   1.000  H
  O5       1.0000 0.37947  0.21583  0.29456  Biso   1.000  O
  O6       1.0000 0.36615  0.18176  0.18088  Biso   1.000  O
  C21      1.0000 0.32440  0.30740  0.02840  Biso   1.000  C
  H29      1.0000 0.31670  0.36930  0.04580  Biso   1.000  H
  H30      1.0000 0.38230  0.28430  0.04610  Biso   1.000  H
  C22      1.0000 0.32520  0.30750  0.94900  Biso   1.000  C
  H31      1.0000 0.38330  0.28420  0.93190  Biso   1.000  H
  H32      1.0000 0.31810  0.36960  0.93160  Biso   1.000  H
  C23      1.0000 0.28600  0.33530  0.94800  Biso   1.000  C
  H33      1.0000 0.34780  0.34380  0.93050  Biso   1.000  H
  H34      1.0000 0.38550  0.25100  0.93070  Biso   1.000  H
  C24      1.0000 0.16440  0.28630  0.02700  Biso   1.000  C
  H35      1.0000 0.38620  0.25040  0.04420  Biso   1.000  H
  H36      1.0000 0.34830  0.34420  0.04410  Biso   1.000  H
  C25      1.0000 0.26400  0.15800  0.02790  Biso   1.000  C
  H37      1.0000 0.36530  0.32200  0.04520  Biso   1.000  H
  H38      1.0000 0.28410  0.38160  0.04550  Biso   1.000  H
  C26      1.0000 0.34250  0.26380  0.94890  Biso   1.000  C
  H39      1.0000 0.28470  0.38210  0.93190  Biso   1.000  H
  H40      1.0000 0.36640  0.32150  0.93160  Biso   1.000  H
  C27      1.0000 0.40370  0.17570  0.23950  Biso   1.000  C
  C28      1.0000 0.48200  0.11360  0.24460  Biso   1.000  C
  C29      1.0000 0.52040  0.07740  0.18450  Biso   1.000  C
  H41      1.0000 0.50130  0.09730  0.13970  Biso   1.000  H
  C30      1.0000 0.51270  0.08610  0.31010  Biso   1.000  C
  H42      1.0000 0.48890  0.11280  0.35120  Biso   1.000  H
  O7       1.0000 0.12053  0.28417  0.29456  Biso   1.000  O
  O8       1.0000 0.13385  0.31824  0.18088  Biso   1.000  O
  C31      1.0000 0.17560  0.19260  0.02840  Biso   1.000  C
  H43      1.0000 0.18330  0.13070  0.04580  Biso   1.000  H
  H44      1.0000 0.11770  0.21570  0.04610  Biso   1.000  H
  C32      1.0000 0.17480  0.19250  0.94900  Biso   1.000  C
  H45      1.0000 0.11670  0.21580  0.93190  Biso   1.000  H
  H46      1.0000 0.18190  0.13040  0.93160  Biso   1.000  H
  C33      1.0000 0.21400  0.16470  0.94800  Biso   1.000  C
  H47      1.0000 0.15220  0.15620  0.93050  Biso   1.000  H
  H48      1.0000 0.11450  0.24900  0.93070  Biso   1.000  H
  C34      1.0000 0.33560  0.21370  0.02700  Biso   1.000  C
  H49      1.0000 0.11380  0.24960  0.04420  Biso   1.000  H
  H50      1.0000 0.15170  0.15580  0.04410  Biso   1.000  H
  C35      1.0000 0.23600  0.34200  0.02790  Biso   1.000  C
  H51      1.0000 0.13470  0.17800  0.04520  Biso   1.000  H
  H52      1.0000 0.21590  0.11840  0.04550  Biso   1.000  H
  C36      1.0000 0.15750  0.23620  0.94890  Biso   1.000  C
  H53      1.0000 0.21530  0.11790  0.93190  Biso   1.000  H
  H54      1.0000 0.13360  0.17850  0.93160  Biso   1.000  H
  C37      1.0000 0.09630  0.32430  0.23950  Biso   1.000  C
  C38      1.0000 0.01800  0.38640  0.24460  Biso   1.000  C
  C39      1.0000 0.97960  0.42260  0.18450  Biso   1.000  C
  H55      1.0000 0.99870  0.40270  0.13970  Biso   1.000  H
  C40      1.0000 0.98730  0.41390  0.31010  Biso   1.000  C
  H56      1.0000 0.01110  0.38720  0.35120  Biso   1.000  H
  O9       1.0000 0.78417  0.62053  0.20544  Biso   1.000  O
  O10      1.0000 0.81824  0.63385  0.31912  Biso   1.000  O
  C41      1.0000 0.69260  0.67560  0.47160  Biso   1.000  C
  H57      1.0000 0.63070  0.68330  0.45420  Biso   1.000  H
  H58      1.0000 0.71570  0.61770  0.45390  Biso   1.000  H
  C42      1.0000 0.69250  0.67480  0.55100  Biso   1.000  C
  H59      1.0000 0.71580  0.61670  0.56810  Biso   1.000  H
  H60      1.0000 0.63040  0.68190  0.56840  Biso   1.000  H
  C43      1.0000 0.66470  0.71400  0.55200  Biso   1.000  C
  H61      1.0000 0.65620  0.65220  0.56950  Biso   1.000  H
  H62      1.0000 0.74900  0.61450  0.56930  Biso   1.000  H
  C44      1.0000 0.71370  0.83560  0.47300  Biso   1.000  C
  H63      1.0000 0.74960  0.61380  0.45580  Biso   1.000  H
  H64      1.0000 0.65580  0.65170  0.45590  Biso   1.000  H
  C45      1.0000 0.84200  0.73600  0.47210  Biso   1.000  C
  H65      1.0000 0.67800  0.63470  0.45480  Biso   1.000  H
  H66      1.0000 0.61840  0.71590  0.45450  Biso   1.000  H
  C46      1.0000 0.73620  0.65750  0.55110  Biso   1.000  C
  H67      1.0000 0.61790  0.71530  0.56810  Biso   1.000  H
  H68      1.0000 0.67850  0.63360  0.56840  Biso   1.000  H
  C47      1.0000 0.82430  0.59630  0.26050  Biso   1.000  C
  C48      1.0000 0.88640  0.51800  0.25540  Biso   1.000  C
  C49      1.0000 0.92260  0.47960  0.31550  Biso   1.000  C
  H69      1.0000 0.90270  0.49870  0.36030  Biso   1.000  H
  C50      1.0000 0.91390  0.48730  0.18990  Biso   1.000  C
  H70      1.0000 0.88720  0.51110  0.14880  Biso   1.000  H
  O11      1.0000 0.71583  0.87947  0.20544  Biso   1.000  O
  O12      1.0000 0.68176  0.86615  0.31912  Biso   1.000  O
  C51      1.0000 0.80740  0.82440  0.47160  Biso   1.000  C
  H71      1.0000 0.86930  0.81670  0.45420  Biso   1.000  H
  H72      1.0000 0.78430  0.88230  0.45390  Biso   1.000  H
  C52      1.0000 0.80750  0.82520  0.55100  Biso   1.000  C
  H73      1.0000 0.78420  0.88330  0.56810  Biso   1.000  H
  H74      1.0000 0.86960  0.81810  0.56840  Biso   1.000  H
  C53      1.0000 0.83530  0.78600  0.55200  Biso   1.000  C
  H75      1.0000 0.84380  0.84780  0.56950  Biso   1.000  H
  H76      1.0000 0.75100  0.88550  0.56930  Biso   1.000  H
  C54      1.0000 0.78630  0.66440  0.47300  Biso   1.000  C
  H77      1.0000 0.75040  0.88620  0.45580  Biso   1.000  H
  H78      1.0000 0.84420  0.84830  0.45590  Biso   1.000  H
  C55      1.0000 0.65800  0.76400  0.47210  Biso   1.000  C
  H79      1.0000 0.82200  0.86530  0.45480  Biso   1.000  H
  H80      1.0000 0.88160  0.78410  0.45450  Biso   1.000  H
  C56      1.0000 0.76380  0.84250  0.55110  Biso   1.000  C
  H81      1.0000 0.88210  0.78470  0.56810  Biso   1.000  H
  H82      1.0000 0.82150  0.86640  0.56840  Biso   1.000  H
  C57      1.0000 0.67570  0.90370  0.26050  Biso   1.000  C
  C58      1.0000 0.61360  0.98200  0.25540  Biso   1.000  C
  C59      1.0000 0.57740  0.02040  0.31550  Biso   1.000  C
  H83      1.0000 0.59730  0.00130  0.36030  Biso   1.000  H
  C60      1.0000 0.58610  0.01270  0.18990  Biso   1.000  C
  H84      1.0000 0.61280  0.98890  0.14880  Biso   1.000  H
  O13      1.0000 0.62053  0.71583  0.20544  Biso   1.000  O
  O14      1.0000 0.63385  0.68176  0.31912  Biso   1.000  O
  C61      1.0000 0.67560  0.80740  0.47160  Biso   1.000  C
  H85      1.0000 0.68330  0.86930  0.45420  Biso   1.000  H
  H86      1.0000 0.61770  0.78430  0.45390  Biso   1.000  H
  C62      1.0000 0.67480  0.80750  0.55100  Biso   1.000  C
  H87      1.0000 0.61670  0.78420  0.56810  Biso   1.000  H
  H88      1.0000 0.68190  0.86960  0.56840  Biso   1.000  H
  C63      1.0000 0.71400  0.83530  0.55200  Biso   1.000  C
  H89      1.0000 0.65220  0.84380  0.56950  Biso   1.000  H
  H90      1.0000 0.61450  0.75100  0.56930  Biso   1.000  H
  C64      1.0000 0.83560  0.78630  0.47300  Biso   1.000  C
  H91      1.0000 0.61380  0.75040  0.45580  Biso   1.000  H
  H92      1.0000 0.65170  0.84420  0.45590  Biso   1.000  H
  C65      1.0000 0.73600  0.65800  0.47210  Biso   1.000  C
  H93      1.0000 0.63470  0.82200  0.45480  Biso   1.000  H
  H94      1.0000 0.71590  0.88160  0.45450  Biso   1.000  H
  C66      1.0000 0.65750  0.76380  0.55110  Biso   1.000  C
  H95      1.0000 0.71530  0.88210  0.56810  Biso   1.000  H
  H96      1.0000 0.63360  0.82150  0.56840  Biso   1.000  H
  C67      1.0000 0.59630  0.67570  0.26050  Biso   1.000  C
  C68      1.0000 0.51800  0.61360  0.25540  Biso   1.000  C
  C69      1.0000 0.47960  0.57740  0.31550  Biso   1.000  C
  H97      1.0000 0.49870  0.59730  0.36030  Biso   1.000  H
  C70      1.0000 0.48730  0.58610  0.18990  Biso   1.000  C
  H98      1.0000 0.51110  0.61280  0.14880  Biso   1.000  H
  O15      1.0000 0.87947  0.78417  0.20544  Biso   1.000  O
  O16      1.0000 0.86615  0.81824  0.31912  Biso   1.000  O
  C71      1.0000 0.82440  0.69260  0.47160  Biso   1.000  C
  H99      1.0000 0.81670  0.63070  0.45420  Biso   1.000  H
  H100     1.0000 0.88230  0.71570  0.45390  Biso   1.000  H
  C72      1.0000 0.82520  0.69250  0.55100  Biso   1.000  C
  H101     1.0000 0.88330  0.71580  0.56810  Biso   1.000  H
  H102     1.0000 0.81810  0.63040  0.56840  Biso   1.000  H
  C73      1.0000 0.78600  0.66470  0.55200  Biso   1.000  C
  H103     1.0000 0.84780  0.65620  0.56950  Biso   1.000  H
  H104     1.0000 0.88550  0.74900  0.56930  Biso   1.000  H
  C74      1.0000 0.66440  0.71370  0.47300  Biso   1.000  C
  H105     1.0000 0.88620  0.74960  0.45580  Biso   1.000  H
  H106     1.0000 0.84830  0.65580  0.45590  Biso   1.000  H
  C75      1.0000 0.76400  0.84200  0.47210  Biso   1.000  C
  H107     1.0000 0.86530  0.67800  0.45480  Biso   1.000  H
  H108     1.0000 0.78410  0.61840  0.45450  Biso   1.000  H
  C76      1.0000 0.84250  0.73620  0.55110  Biso   1.000  C
  H109     1.0000 0.78470  0.61790  0.56810  Biso   1.000  H
  H110     1.0000 0.86640  0.67850  0.56840  Biso   1.000  H
  C77      1.0000 0.90370  0.82430  0.26050  Biso   1.000  C
  C78      1.0000 0.98200  0.88640  0.25540  Biso   1.000  C
  C79      1.0000 0.02040  0.92260  0.31550  Biso   1.000  C
  H111     1.0000 0.00130  0.90270  0.36030  Biso   1.000  H
  C80      1.0000 0.01270  0.91390  0.18990  Biso   1.000  C
  H112     1.0000 0.98890  0.88720  0.14880  Biso   1.000  H
  O17      1.0000 0.78417  0.87947  0.70544  Biso   1.000  O
  O18      1.0000 0.81824  0.86615  0.81912  Biso   1.000  O
  C81      1.0000 0.69260  0.82440  0.97160  Biso   1.000  C
  H113     1.0000 0.63070  0.81670  0.95420  Biso   1.000  H
  H114     1.0000 0.71570  0.88230  0.95390  Biso   1.000  H
  C82      1.0000 0.69250  0.82520  0.05100  Biso   1.000  C
  H115     1.0000 0.71580  0.88330  0.06810  Biso   1.000  H
  H116     1.0000 0.63040  0.81810  0.06840  Biso   1.000  H
  C83      1.0000 0.66470  0.78600  0.05200  Biso   1.000  C
  H117     1.0000 0.65620  0.84780  0.06950  Biso   1.000  H
  H118     1.0000 0.74900  0.88550  0.06930  Biso   1.000  H
  C84      1.0000 0.71370  0.66440  0.97300  Biso   1.000  C
  H119     1.0000 0.74960  0.88620  0.95580  Biso   1.000  H
  H120     1.0000 0.65580  0.84830  0.95590  Biso   1.000  H
  C85      1.0000 0.84200  0.76400  0.97210  Biso   1.000  C
  H121     1.0000 0.67800  0.86530  0.95480  Biso   1.000  H
  H122     1.0000 0.61840  0.78410  0.95450  Biso   1.000  H
  C86      1.0000 0.73620  0.84250  0.05110  Biso   1.000  C
  H123     1.0000 0.61790  0.78470  0.06810  Biso   1.000  H
  H124     1.0000 0.67850  0.86640  0.06840  Biso   1.000  H
  C87      1.0000 0.82430  0.90370  0.76050  Biso   1.000  C
  C88      1.0000 0.88640  0.98200  0.75540  Biso   1.000  C
  C89      1.0000 0.92260  0.02040  0.81550  Biso   1.000  C
  H125     1.0000 0.90270  0.00130  0.86030  Biso   1.000  H
  C90      1.0000 0.91390  0.01270  0.68990  Biso   1.000  C
  H126     1.0000 0.88720  0.98890  0.64880  Biso   1.000  H
  O19      1.0000 0.71583  0.62053  0.70544  Biso   1.000  O
  O20      1.0000 0.68176  0.63385  0.81912  Biso   1.000  O
  C91      1.0000 0.80740  0.67560  0.97160  Biso   1.000  C
  H127     1.0000 0.86930  0.68330  0.95420  Biso   1.000  H
  H128     1.0000 0.78430  0.61770  0.95390  Biso   1.000  H
  C92      1.0000 0.80750  0.67480  0.05100  Biso   1.000  C
  H129     1.0000 0.78420  0.61670  0.06810  Biso   1.000  H
  H130     1.0000 0.86960  0.68190  0.06840  Biso   1.000  H
  C93      1.0000 0.83530  0.71400  0.05200  Biso   1.000  C
  H131     1.0000 0.84380  0.65220  0.06950  Biso   1.000  H
  H132     1.0000 0.75100  0.61450  0.06930  Biso   1.000  H
  C94      1.0000 0.78630  0.83560  0.97300  Biso   1.000  C
  H133     1.0000 0.75040  0.61380  0.95580  Biso   1.000  H
  H134     1.0000 0.84420  0.65170  0.95590  Biso   1.000  H
  C95      1.0000 0.65800  0.73600  0.97210  Biso   1.000  C
  H135     1.0000 0.82200  0.63470  0.95480  Biso   1.000  H
  H136     1.0000 0.88160  0.71590  0.95450  Biso   1.000  H
  C96      1.0000 0.76380  0.65750  0.05110  Biso   1.000  C
  H137     1.0000 0.88210  0.71530  0.06810  Biso   1.000  H
  H138     1.0000 0.82150  0.63360  0.06840  Biso   1.000  H
  C97      1.0000 0.67570  0.59630  0.76050  Biso   1.000  C
  C98      1.0000 0.61360  0.51800  0.75540  Biso   1.000  C
  C99      1.0000 0.57740  0.47960  0.81550  Biso   1.000  C
  H139     1.0000 0.59730  0.49870  0.86030  Biso   1.000  H
  C100     1.0000 0.58610  0.48730  0.68990  Biso   1.000  C
  H140     1.0000 0.61280  0.51110  0.64880  Biso   1.000  H
  O21      1.0000 0.62053  0.78417  0.70544  Biso   1.000  O
  O22      1.0000 0.63385  0.81824  0.81912  Biso   1.000  O
  C101     1.0000 0.67560  0.69260  0.97160  Biso   1.000  C
  H141     1.0000 0.68330  0.63070  0.95420  Biso   1.000  H
  H142     1.0000 0.61770  0.71570  0.95390  Biso   1.000  H
  C102     1.0000 0.67480  0.69250  0.05100  Biso   1.000  C
  H143     1.0000 0.61670  0.71580  0.06810  Biso   1.000  H
  H144     1.0000 0.68190  0.63040  0.06840  Biso   1.000  H
  C103     1.0000 0.71400  0.66470  0.05200  Biso   1.000  C
  H145     1.0000 0.65220  0.65620  0.06950  Biso   1.000  H
  H146     1.0000 0.61450  0.74900  0.06930  Biso   1.000  H
  C104     1.0000 0.83560  0.71370  0.97300  Biso   1.000  C
  H147     1.0000 0.61380  0.74960  0.95580  Biso   1.000  H
  H148     1.0000 0.65170  0.65580  0.95590  Biso   1.000  H
  C105     1.0000 0.73600  0.84200  0.97210  Biso   1.000  C
  H149     1.0000 0.63470  0.67800  0.95480  Biso   1.000  H
  H150     1.0000 0.71590  0.61840  0.95450  Biso   1.000  H
  C106     1.0000 0.65750  0.73620  0.05110  Biso   1.000  C
  H151     1.0000 0.71530  0.61790  0.06810  Biso   1.000  H
  H152     1.0000 0.63360  0.67850  0.06840  Biso   1.000  H
  C107     1.0000 0.59630  0.82430  0.76050  Biso   1.000  C
  C108     1.0000 0.51800  0.88640  0.75540  Biso   1.000  C
  C109     1.0000 0.47960  0.92260  0.81550  Biso   1.000  C
  H153     1.0000 0.49870  0.90270  0.86030  Biso   1.000  H
  C110     1.0000 0.48730  0.91390  0.68990  Biso   1.000  C
  H154     1.0000 0.51110  0.88720  0.64880  Biso   1.000  H
  O23      1.0000 0.87947  0.71583  0.70544  Biso   1.000  O
  O24      1.0000 0.86615  0.68176  0.81912  Biso   1.000  O
  C111     1.0000 0.82440  0.80740  0.97160  Biso   1.000  C
  H155     1.0000 0.81670  0.86930  0.95420  Biso   1.000  H
  H156     1.0000 0.88230  0.78430  0.95390  Biso   1.000  H
  C112     1.0000 0.82520  0.80750  0.05100  Biso   1.000  C
  H157     1.0000 0.88330  0.78420  0.06810  Biso   1.000  H
  H158     1.0000 0.81810  0.86960  0.06840  Biso   1.000  H
  C113     1.0000 0.78600  0.83530  0.05200  Biso   1.000  C
  H159     1.0000 0.84780  0.84380  0.06950  Biso   1.000  H
  H160     1.0000 0.88550  0.75100  0.06930  Biso   1.000  H
  C114     1.0000 0.66440  0.78630  0.97300  Biso   1.000  C
  H161     1.0000 0.88620  0.75040  0.95580  Biso   1.000  H
  H162     1.0000 0.84830  0.84420  0.95590  Biso   1.000  H
  C115     1.0000 0.76400  0.65800  0.97210  Biso   1.000  C
  H163     1.0000 0.86530  0.82200  0.95480  Biso   1.000  H
  H164     1.0000 0.78410  0.88160  0.95450  Biso   1.000  H
  C116     1.0000 0.84250  0.76380  0.05110  Biso   1.000  C
  H165     1.0000 0.78470  0.88210  0.06810  Biso   1.000  H
  H166     1.0000 0.86640  0.82150  0.06840  Biso   1.000  H
  C117     1.0000 0.90370  0.67570  0.76050  Biso   1.000  C
  C118     1.0000 0.98200  0.61360  0.75540  Biso   1.000  C
  C119     1.0000 0.02040  0.57740  0.81550  Biso   1.000  C
  H167     1.0000 0.00130  0.59730  0.86030  Biso   1.000  H
  C120     1.0000 0.01270  0.58610  0.68990  Biso   1.000  C
  H168     1.0000 0.98890  0.61280  0.64880  Biso   1.000  H
  O25      1.0000 0.21583  0.37947  0.79456  Biso   1.000  O
  O26      1.0000 0.18176  0.36615  0.68088  Biso   1.000  O
  C121     1.0000 0.30740  0.32440  0.52840  Biso   1.000  C
  H169     1.0000 0.36930  0.31670  0.54580  Biso   1.000  H
  H170     1.0000 0.28430  0.38230  0.54610  Biso   1.000  H
  C122     1.0000 0.30750  0.32520  0.44900  Biso   1.000  C
  H171     1.0000 0.28420  0.38330  0.43190  Biso   1.000  H
  H172     1.0000 0.36960  0.31810  0.43160  Biso   1.000  H
  C123     1.0000 0.33530  0.28600  0.44800  Biso   1.000  C
  H173     1.0000 0.34380  0.34780  0.43050  Biso   1.000  H
  H174     1.0000 0.25100  0.38550  0.43070  Biso   1.000  H
  C124     1.0000 0.28630  0.16440  0.52700  Biso   1.000  C
  H175     1.0000 0.25040  0.38620  0.54420  Biso   1.000  H
  H176     1.0000 0.34420  0.34830  0.54410  Biso   1.000  H
  C125     1.0000 0.15800  0.26400  0.52790  Biso   1.000  C
  H177     1.0000 0.32200  0.36530  0.54520  Biso   1.000  H
  H178     1.0000 0.38160  0.28410  0.54550  Biso   1.000  H
  C126     1.0000 0.26380  0.34250  0.44890  Biso   1.000  C
  H179     1.0000 0.38210  0.28470  0.43190  Biso   1.000  H
  H180     1.0000 0.32150  0.36640  0.43160  Biso   1.000  H
  C127     1.0000 0.17570  0.40370  0.73950  Biso   1.000  C
  C128     1.0000 0.11360  0.48200  0.74460  Biso   1.000  C
  C129     1.0000 0.07740  0.52040  0.68450  Biso   1.000  C
  H181     1.0000 0.09730  0.50130  0.63970  Biso   1.000  H
  C130     1.0000 0.08610  0.51270  0.81010  Biso   1.000  C
  H182     1.0000 0.11280  0.48890  0.85120  Biso   1.000  H
  O27      1.0000 0.28417  0.12053  0.79456  Biso   1.000  O
  O28      1.0000 0.31824  0.13385  0.68088  Biso   1.000  O
  C131     1.0000 0.19260  0.17560  0.52840  Biso   1.000  C
  H183     1.0000 0.13070  0.18330  0.54580  Biso   1.000  H
  H184     1.0000 0.21570  0.11770  0.54610  Biso   1.000  H
  C132     1.0000 0.19250  0.17480  0.44900  Biso   1.000  C
  H185     1.0000 0.21580  0.11670  0.43190  Biso   1.000  H
  H186     1.0000 0.13040  0.18190  0.43160  Biso   1.000  H
  C133     1.0000 0.16470  0.21400  0.44800  Biso   1.000  C
  H187     1.0000 0.15620  0.15220  0.43050  Biso   1.000  H
  H188     1.0000 0.24900  0.11450  0.43070  Biso   1.000  H
  C134     1.0000 0.21370  0.33560  0.52700  Biso   1.000  C
  H189     1.0000 0.24960  0.11380  0.54420  Biso   1.000  H
  H190     1.0000 0.15580  0.15170  0.54410  Biso   1.000  H
  C135     1.0000 0.34200  0.23600  0.52790  Biso   1.000  C
  H191     1.0000 0.17800  0.13470  0.54520  Biso   1.000  H
  H192     1.0000 0.11840  0.21590  0.54550  Biso   1.000  H
  C136     1.0000 0.23620  0.15750  0.44890  Biso   1.000  C
  H193     1.0000 0.11790  0.21530  0.43190  Biso   1.000  H
  H194     1.0000 0.17850  0.13360  0.43160  Biso   1.000  H
  C137     1.0000 0.32430  0.09630  0.73950  Biso   1.000  C
  C138     1.0000 0.38640  0.01800  0.74460  Biso   1.000  C
  C139     1.0000 0.42260  0.97960  0.68450  Biso   1.000  C
  H195     1.0000 0.40270  0.99870  0.63970  Biso   1.000  H
  C140     1.0000 0.41390  0.98730  0.81010  Biso   1.000  C
  H196     1.0000 0.38720  0.01110  0.85120  Biso   1.000  H
  O29      1.0000 0.37947  0.28417  0.79456  Biso   1.000  O
  O30      1.0000 0.36615  0.31824  0.68088  Biso   1.000  O
  C141     1.0000 0.32440  0.19260  0.52840  Biso   1.000  C
  H197     1.0000 0.31670  0.13070  0.54580  Biso   1.000  H
  H198     1.0000 0.38230  0.21570  0.54610  Biso   1.000  H
  C142     1.0000 0.32520  0.19250  0.44900  Biso   1.000  C
  H199     1.0000 0.38330  0.21580  0.43190  Biso   1.000  H
  H200     1.0000 0.31810  0.13040  0.43160  Biso   1.000  H
  C143     1.0000 0.28600  0.16470  0.44800  Biso   1.000  C
  H201     1.0000 0.34780  0.15620  0.43050  Biso   1.000  H
  H202     1.0000 0.38550  0.24900  0.43070  Biso   1.000  H
  C144     1.0000 0.16440  0.21370  0.52700  Biso   1.000  C
  H203     1.0000 0.38620  0.24960  0.54420  Biso   1.000  H
  H204     1.0000 0.34830  0.15580  0.54410  Biso   1.000  H
  C145     1.0000 0.26400  0.34200  0.52790  Biso   1.000  C
  H205     1.0000 0.36530  0.17800  0.54520  Biso   1.000  H
  H206     1.0000 0.28410  0.11840  0.54550  Biso   1.000  H
  C146     1.0000 0.34250  0.23620  0.44890  Biso   1.000  C
  H207     1.0000 0.28470  0.11790  0.43190  Biso   1.000  H
  H208     1.0000 0.36640  0.17850  0.43160  Biso   1.000  H
  C147     1.0000 0.40370  0.32430  0.73950  Biso   1.000  C
  C148     1.0000 0.48200  0.38640  0.74460  Biso   1.000  C
  C149     1.0000 0.52040  0.42260  0.68450  Biso   1.000  C
  H209     1.0000 0.50130  0.40270  0.63970  Biso   1.000  H
  C150     1.0000 0.51270  0.41390  0.81010  Biso   1.000  C
  H210     1.0000 0.48890  0.38720  0.85120  Biso   1.000  H
  O31      1.0000 0.12053  0.21583  0.79456  Biso   1.000  O
  O32      1.0000 0.13385  0.18176  0.68088  Biso   1.000  O
  C151     1.0000 0.17560  0.30740  0.52840  Biso   1.000  C
  H211     1.0000 0.18330  0.36930  0.54580  Biso   1.000  H
  H212     1.0000 0.11770  0.28430  0.54610  Biso   1.000  H
  C152     1.0000 0.17480  0.30750  0.44900  Biso   1.000  C
  H213     1.0000 0.11670  0.28420  0.43190  Biso   1.000  H
  H214     1.0000 0.18190  0.36960  0.43160  Biso   1.000  H
  C153     1.0000 0.21400  0.33530  0.44800  Biso   1.000  C
  H215     1.0000 0.15220  0.34380  0.43050  Biso   1.000  H
  H216     1.0000 0.11450  0.25100  0.43070  Biso   1.000  H
  C154     1.0000 0.33560  0.28630  0.52700  Biso   1.000  C
  H217     1.0000 0.11380  0.25040  0.54420  Biso   1.000  H
  H218     1.0000 0.15170  0.34420  0.54410  Biso   1.000  H
  C155     1.0000 0.23600  0.15800  0.52790  Biso   1.000  C
  H219     1.0000 0.13470  0.32200  0.54520  Biso   1.000  H
  H220     1.0000 0.21590  0.38160  0.54550  Biso   1.000  H
  C156     1.0000 0.15750  0.26380  0.44890  Biso   1.000  C
  H221     1.0000 0.21530  0.38210  0.43190  Biso   1.000  H
  H222     1.0000 0.13360  0.32150  0.43160  Biso   1.000  H
  C157     1.0000 0.09630  0.17570  0.73950  Biso   1.000  C
  C158     1.0000 0.01800  0.11360  0.74460  Biso   1.000  C
  C159     1.0000 0.97960  0.07740  0.68450  Biso   1.000  C
  H223     1.0000 0.99870  0.09730  0.63970  Biso   1.000  H
  C160     1.0000 0.98730  0.08610  0.81010  Biso   1.000  C
  H224     1.0000 0.01110  0.11280  0.85120  Biso   1.000  H
  Cu1      1.0000 0.25000  0.25000  0.16175  Biso   1.000  Cu
  Cu2      1.0000 0.25000  0.25000  0.31481  Biso   1.000  Cu
  N1       1.0000 0.25000  0.25000  0.05480  Biso   1.000  N
  N2       1.0000 0.25000  0.25000  0.92130  Biso   1.000  N
  Zn1      1.0000 0.25000  0.25000  0.81481  Biso   1.000  Zn
  Cu3      1.0000 0.75000  0.75000  0.33825  Biso   1.000  Cu
  Cu4      1.0000 0.75000  0.75000  0.18519  Biso   1.000  Cu
  N3       1.0000 0.75000  0.75000  0.44520  Biso   1.000  N
  N4       1.0000 0.75000  0.75000  0.57870  Biso   1.000  N
  Zn2      1.0000 0.75000  0.75000  0.68519  Biso   1.000  Zn
  Cu5      1.0000 0.75000  0.75000  0.83825  Biso   1.000  Cu
  N5       1.0000 0.75000  0.75000  0.94520  Biso   1.000  N
  N6       1.0000 0.75000  0.75000  0.07870  Biso   1.000  N
  Cu6      1.0000 0.25000  0.25000  0.66175  Biso   1.000  Cu
  N7       1.0000 0.25000  0.25000  0.55480  Biso   1.000  N
  N8       1.0000 0.25000  0.25000  0.42130  Biso   1.000  N
