data_image0
_cell_length_a       14.9367
_cell_length_b       14.9367
_cell_length_c       19.1785
_cell_angle_alpha    90
_cell_angle_beta     90
_cell_angle_gamma    90

_symmetry_space_group_name_H-M    "P 1"
_symmetry_int_tables_number       1

loop_
  _symmetry_equiv_pos_as_xyz
  'x, y, z'

loop_
  _atom_site_label
  _atom_site_occupancy
  _atom_site_fract_x
  _atom_site_fract_y
  _atom_site_fract_z
  _atom_site_thermal_displace_type
  _atom_site_B_iso_or_equiv
  _atom_site_type_symbol
  O1       1.0000 0.13351  0.18320  0.31823  Biso   1.000  O
  O2       1.0000 0.12093  0.21415  0.20425  Biso   1.000  O
  C1       1.0000 0.09639  0.17571  0.25946  Biso   1.000  C
  C2       1.0000 0.01788  0.11347  0.25498  Biso   1.000  C
  C3       1.0000 0.97980  0.07780  0.31518  Biso   1.000  C
  H1       1.0000 0.99900  0.09800  0.35970  Biso   1.000  H
  C4       1.0000 0.98700  0.08590  0.18990  Biso   1.000  C
  H2       1.0000 0.01060  0.11240  0.14880  Biso   1.000  H
  C5       1.0000 0.19600  0.17610  0.47040  Biso   1.000  C
  H3       1.0000 0.22080  0.11860  0.45320  Biso   1.000  H
  H4       1.0000 0.13400  0.18160  0.45300  Biso   1.000  H
  C6       1.0000 0.16180  0.23500  0.47110  Biso   1.000  C
  H5       1.0000 0.14020  0.17530  0.45530  Biso   1.000  H
  C7       1.0000 0.19600  0.17630  0.54990  Biso   1.000  C
  H6       1.0000 0.22020  0.11880  0.56720  Biso   1.000  H
  H7       1.0000 0.13380  0.18220  0.56700  Biso   1.000  H
  C8       1.0000 0.26200  0.16110  0.55000  Biso   1.000  C
  H8       1.0000 0.21240  0.12240  0.56580  Biso   1.000  H
  O3       1.0000 0.36649  0.31680  0.31823  Biso   1.000  O
  O4       1.0000 0.37907  0.28585  0.20425  Biso   1.000  O
  C9       1.0000 0.40361  0.32429  0.25946  Biso   1.000  C
  C10      1.0000 0.48212  0.38653  0.25498  Biso   1.000  C
  C11      1.0000 0.52020  0.42220  0.31518  Biso   1.000  C
  H9       1.0000 0.50100  0.40200  0.35970  Biso   1.000  H
  C12      1.0000 0.51300  0.41410  0.18990  Biso   1.000  C
  H10      1.0000 0.48940  0.38760  0.14880  Biso   1.000  H
  C13      1.0000 0.30400  0.32390  0.47040  Biso   1.000  C
  H11      1.0000 0.27920  0.38140  0.45320  Biso   1.000  H
  H12      1.0000 0.36600  0.31840  0.45300  Biso   1.000  H
  C14      1.0000 0.33820  0.26500  0.47110  Biso   1.000  C
  H13      1.0000 0.35980  0.32470  0.45530  Biso   1.000  H
  C15      1.0000 0.30400  0.32370  0.54990  Biso   1.000  C
  H14      1.0000 0.27980  0.38120  0.56720  Biso   1.000  H
  H15      1.0000 0.36620  0.31780  0.56700  Biso   1.000  H
  C16      1.0000 0.23800  0.33890  0.55000  Biso   1.000  C
  H16      1.0000 0.28760  0.37760  0.56580  Biso   1.000  H
  O5       1.0000 0.31680  0.13351  0.31823  Biso   1.000  O
  O6       1.0000 0.28585  0.12093  0.20425  Biso   1.000  O
  C17      1.0000 0.32429  0.09639  0.25946  Biso   1.000  C
  C18      1.0000 0.38653  0.01788  0.25498  Biso   1.000  C
  C19      1.0000 0.42220  0.97980  0.31518  Biso   1.000  C
  H17      1.0000 0.40200  0.99900  0.35970  Biso   1.000  H
  C20      1.0000 0.41410  0.98700  0.18990  Biso   1.000  C
  H18      1.0000 0.38760  0.01060  0.14880  Biso   1.000  H
  C21      1.0000 0.32390  0.19600  0.47040  Biso   1.000  C
  H19      1.0000 0.38140  0.22080  0.45320  Biso   1.000  H
  H20      1.0000 0.31840  0.13400  0.45300  Biso   1.000  H
  C22      1.0000 0.26500  0.16180  0.47110  Biso   1.000  C
  H21      1.0000 0.32470  0.14020  0.45530  Biso   1.000  H
  C23      1.0000 0.32370  0.19600  0.54990  Biso   1.000  C
  H22      1.0000 0.38120  0.22020  0.56720  Biso   1.000  H
  H23      1.0000 0.31780  0.13380  0.56700  Biso   1.000  H
  C24      1.0000 0.33890  0.26200  0.55000  Biso   1.000  C
  H24      1.0000 0.37760  0.21240  0.56580  Biso   1.000  H
  O7       1.0000 0.18320  0.36649  0.31823  Biso   1.000  O
  O8       1.0000 0.21415  0.37907  0.20425  Biso   1.000  O
  C25      1.0000 0.17571  0.40361  0.25946  Biso   1.000  C
  C26      1.0000 0.11347  0.48212  0.25498  Biso   1.000  C
  C27      1.0000 0.07780  0.52020  0.31518  Biso   1.000  C
  H25      1.0000 0.09800  0.50100  0.35970  Biso   1.000  H
  C28      1.0000 0.08590  0.51300  0.18990  Biso   1.000  C
  H26      1.0000 0.11240  0.48940  0.14880  Biso   1.000  H
  C29      1.0000 0.17610  0.30400  0.47040  Biso   1.000  C
  H27      1.0000 0.11860  0.27920  0.45320  Biso   1.000  H
  H28      1.0000 0.18160  0.36600  0.45300  Biso   1.000  H
  C30      1.0000 0.23500  0.33820  0.47110  Biso   1.000  C
  H29      1.0000 0.17530  0.35980  0.45530  Biso   1.000  H
  C31      1.0000 0.17630  0.30400  0.54990  Biso   1.000  C
  H30      1.0000 0.11880  0.27980  0.56720  Biso   1.000  H
  H31      1.0000 0.18220  0.36620  0.56700  Biso   1.000  H
  C32      1.0000 0.16110  0.23800  0.55000  Biso   1.000  C
  H32      1.0000 0.12240  0.28760  0.56580  Biso   1.000  H
  O9       1.0000 0.86649  0.68320  0.18177  Biso   1.000  O
  O10      1.0000 0.87907  0.71415  0.29575  Biso   1.000  O
  C33      1.0000 0.90361  0.67571  0.24054  Biso   1.000  C
  C34      1.0000 0.98212  0.61347  0.24502  Biso   1.000  C
  C35      1.0000 0.02020  0.57780  0.18482  Biso   1.000  C
  H33      1.0000 0.00100  0.59800  0.14030  Biso   1.000  H
  C36      1.0000 0.01300  0.58590  0.31010  Biso   1.000  C
  H34      1.0000 0.98940  0.61240  0.35120  Biso   1.000  H
  C37      1.0000 0.80400  0.67610  0.02960  Biso   1.000  C
  H35      1.0000 0.77920  0.61860  0.04680  Biso   1.000  H
  H36      1.0000 0.86600  0.68160  0.04700  Biso   1.000  H
  C38      1.0000 0.83820  0.73500  0.02890  Biso   1.000  C
  H37      1.0000 0.85980  0.67530  0.04470  Biso   1.000  H
  C39      1.0000 0.80400  0.67630  0.95010  Biso   1.000  C
  H38      1.0000 0.77980  0.61880  0.93280  Biso   1.000  H
  H39      1.0000 0.86620  0.68220  0.93300  Biso   1.000  H
  C40      1.0000 0.73800  0.66110  0.95000  Biso   1.000  C
  H40      1.0000 0.78760  0.62240  0.93420  Biso   1.000  H
  O11      1.0000 0.63351  0.81680  0.18177  Biso   1.000  O
  O12      1.0000 0.62093  0.78585  0.29575  Biso   1.000  O
  C41      1.0000 0.59639  0.82429  0.24054  Biso   1.000  C
  C42      1.0000 0.51788  0.88653  0.24502  Biso   1.000  C
  C43      1.0000 0.47980  0.92220  0.18482  Biso   1.000  C
  H41      1.0000 0.49900  0.90200  0.14030  Biso   1.000  H
  C44      1.0000 0.48700  0.91410  0.31010  Biso   1.000  C
  H42      1.0000 0.51060  0.88760  0.35120  Biso   1.000  H
  C45      1.0000 0.69600  0.82390  0.02960  Biso   1.000  C
  H43      1.0000 0.72080  0.88140  0.04680  Biso   1.000  H
  H44      1.0000 0.63400  0.81840  0.04700  Biso   1.000  H
  C46      1.0000 0.66180  0.76500  0.02890  Biso   1.000  C
  H45      1.0000 0.64020  0.82470  0.04470  Biso   1.000  H
  C47      1.0000 0.69600  0.82370  0.95010  Biso   1.000  C
  H46      1.0000 0.72020  0.88120  0.93280  Biso   1.000  H
  H47      1.0000 0.63380  0.81780  0.93300  Biso   1.000  H
  C48      1.0000 0.76200  0.83890  0.95000  Biso   1.000  C
  H48      1.0000 0.71240  0.87760  0.93420  Biso   1.000  H
  O13      1.0000 0.68320  0.63351  0.18177  Biso   1.000  O
  O14      1.0000 0.71415  0.62093  0.29575  Biso   1.000  O
  C49      1.0000 0.67571  0.59639  0.24054  Biso   1.000  C
  C50      1.0000 0.61347  0.51788  0.24502  Biso   1.000  C
  C51      1.0000 0.57780  0.47980  0.18482  Biso   1.000  C
  H49      1.0000 0.59800  0.49900  0.14030  Biso   1.000  H
  C52      1.0000 0.58590  0.48700  0.31010  Biso   1.000  C
  H50      1.0000 0.61240  0.51060  0.35120  Biso   1.000  H
  C53      1.0000 0.67610  0.69600  0.02960  Biso   1.000  C
  H51      1.0000 0.61860  0.72080  0.04680  Biso   1.000  H
  H52      1.0000 0.68160  0.63400  0.04700  Biso   1.000  H
  C54      1.0000 0.73500  0.66180  0.02890  Biso   1.000  C
  H53      1.0000 0.67530  0.64020  0.04470  Biso   1.000  H
  C55      1.0000 0.67630  0.69600  0.95010  Biso   1.000  C
  H54      1.0000 0.61880  0.72020  0.93280  Biso   1.000  H
  H55      1.0000 0.68220  0.63380  0.93300  Biso   1.000  H
  C56      1.0000 0.66110  0.76200  0.95000  Biso   1.000  C
  H56      1.0000 0.62240  0.71240  0.93420  Biso   1.000  H
  O15      1.0000 0.81680  0.86649  0.18177  Biso   1.000  O
  O16      1.0000 0.78585  0.87907  0.29575  Biso   1.000  O
  C57      1.0000 0.82429  0.90361  0.24054  Biso   1.000  C
  C58      1.0000 0.88653  0.98212  0.24502  Biso   1.000  C
  C59      1.0000 0.92220  0.02020  0.18482  Biso   1.000  C
  H57      1.0000 0.90200  0.00100  0.14030  Biso   1.000  H
  C60      1.0000 0.91410  0.01300  0.31010  Biso   1.000  C
  H58      1.0000 0.88760  0.98940  0.35120  Biso   1.000  H
  C61      1.0000 0.82390  0.80400  0.02960  Biso   1.000  C
  H59      1.0000 0.88140  0.77920  0.04680  Biso   1.000  H
  H60      1.0000 0.81840  0.86600  0.04700  Biso   1.000  H
  C62      1.0000 0.76500  0.83820  0.02890  Biso   1.000  C
  H61      1.0000 0.82470  0.85980  0.04470  Biso   1.000  H
  C63      1.0000 0.82370  0.80400  0.95010  Biso   1.000  C
  H62      1.0000 0.88120  0.77980  0.93280  Biso   1.000  H
  H63      1.0000 0.81780  0.86620  0.93300  Biso   1.000  H
  C64      1.0000 0.83890  0.73800  0.95000  Biso   1.000  C
  H64      1.0000 0.87760  0.78760  0.93420  Biso   1.000  H
  O17      1.0000 0.86649  0.81680  0.68177  Biso   1.000  O
  O18      1.0000 0.87907  0.78585  0.79575  Biso   1.000  O
  C65      1.0000 0.90361  0.82429  0.74054  Biso   1.000  C
  C66      1.0000 0.98212  0.88653  0.74502  Biso   1.000  C
  C67      1.0000 0.02020  0.92220  0.68482  Biso   1.000  C
  H65      1.0000 0.00100  0.90200  0.64030  Biso   1.000  H
  C68      1.0000 0.01300  0.91410  0.81010  Biso   1.000  C
  H66      1.0000 0.98940  0.88760  0.85120  Biso   1.000  H
  C69      1.0000 0.80400  0.82390  0.52960  Biso   1.000  C
  H67      1.0000 0.77920  0.88140  0.54680  Biso   1.000  H
  H68      1.0000 0.86600  0.81840  0.54700  Biso   1.000  H
  C70      1.0000 0.83820  0.76500  0.52890  Biso   1.000  C
  H69      1.0000 0.85980  0.82470  0.54470  Biso   1.000  H
  C71      1.0000 0.80400  0.82370  0.45010  Biso   1.000  C
  H70      1.0000 0.77980  0.88120  0.43280  Biso   1.000  H
  H71      1.0000 0.86620  0.81780  0.43300  Biso   1.000  H
  C72      1.0000 0.73800  0.83890  0.45000  Biso   1.000  C
  H72      1.0000 0.78760  0.87760  0.43420  Biso   1.000  H
  O19      1.0000 0.63351  0.68320  0.68177  Biso   1.000  O
  O20      1.0000 0.62093  0.71415  0.79575  Biso   1.000  O
  C73      1.0000 0.59639  0.67571  0.74054  Biso   1.000  C
  C74      1.0000 0.51788  0.61347  0.74502  Biso   1.000  C
  C75      1.0000 0.47980  0.57780  0.68482  Biso   1.000  C
  H73      1.0000 0.49900  0.59800  0.64030  Biso   1.000  H
  C76      1.0000 0.48700  0.58590  0.81010  Biso   1.000  C
  H74      1.0000 0.51060  0.61240  0.85120  Biso   1.000  H
  C77      1.0000 0.69600  0.67610  0.52960  Biso   1.000  C
  H75      1.0000 0.72080  0.61860  0.54680  Biso   1.000  H
  H76      1.0000 0.63400  0.68160  0.54700  Biso   1.000  H
  C78      1.0000 0.66180  0.73500  0.52890  Biso   1.000  C
  H77      1.0000 0.64020  0.67530  0.54470  Biso   1.000  H
  C79      1.0000 0.69600  0.67630  0.45010  Biso   1.000  C
  H78      1.0000 0.72020  0.61880  0.43280  Biso   1.000  H
  H79      1.0000 0.63380  0.68220  0.43300  Biso   1.000  H
  C80      1.0000 0.76200  0.66110  0.45000  Biso   1.000  C
  H80      1.0000 0.71240  0.62240  0.43420  Biso   1.000  H
  O21      1.0000 0.68320  0.86649  0.68177  Biso   1.000  O
  O22      1.0000 0.71415  0.87907  0.79575  Biso   1.000  O
  C81      1.0000 0.67571  0.90361  0.74054  Biso   1.000  C
  C82      1.0000 0.61347  0.98212  0.74502  Biso   1.000  C
  C83      1.0000 0.57780  0.02020  0.68482  Biso   1.000  C
  H81      1.0000 0.59800  0.00100  0.64030  Biso   1.000  H
  C84      1.0000 0.58590  0.01300  0.81010  Biso   1.000  C
  H82      1.0000 0.61240  0.98940  0.85120  Biso   1.000  H
  C85      1.0000 0.67610  0.80400  0.52960  Biso   1.000  C
  H83      1.0000 0.61860  0.77920  0.54680  Biso   1.000  H
  H84      1.0000 0.68160  0.86600  0.54700  Biso   1.000  H
  C86      1.0000 0.73500  0.83820  0.52890  Biso   1.000  C
  H85      1.0000 0.67530  0.85980  0.54470  Biso   1.000  H
  C87      1.0000 0.67630  0.80400  0.45010  Biso   1.000  C
  H86      1.0000 0.61880  0.77980  0.43280  Biso   1.000  H
  H87      1.0000 0.68220  0.86620  0.43300  Biso   1.000  H
  C88      1.0000 0.66110  0.73800  0.45000  Biso   1.000  C
  H88      1.0000 0.62240  0.78760  0.43420  Biso   1.000  H
  O23      1.0000 0.81680  0.63351  0.68177  Biso   1.000  O
  O24      1.0000 0.78585  0.62093  0.79575  Biso   1.000  O
  C89      1.0000 0.82429  0.59639  0.74054  Biso   1.000  C
  C90      1.0000 0.88653  0.51788  0.74502  Biso   1.000  C
  C91      1.0000 0.92220  0.47980  0.68482  Biso   1.000  C
  H89      1.0000 0.90200  0.49900  0.64030  Biso   1.000  H
  C92      1.0000 0.91410  0.48700  0.81010  Biso   1.000  C
  H90      1.0000 0.88760  0.51060  0.85120  Biso   1.000  H
  C93      1.0000 0.82390  0.69600  0.52960  Biso   1.000  C
  H91      1.0000 0.88140  0.72080  0.54680  Biso   1.000  H
  H92      1.0000 0.81840  0.63400  0.54700  Biso   1.000  H
  C94      1.0000 0.76500  0.66180  0.52890  Biso   1.000  C
  H93      1.0000 0.82470  0.64020  0.54470  Biso   1.000  H
  C95      1.0000 0.82370  0.69600  0.45010  Biso   1.000  C
  H94      1.0000 0.88120  0.72020  0.43280  Biso   1.000  H
  H95      1.0000 0.81780  0.63380  0.43300  Biso   1.000  H
  C96      1.0000 0.83890  0.76200  0.45000  Biso   1.000  C
  H96      1.0000 0.87760  0.71240  0.43420  Biso   1.000  H
  O25      1.0000 0.13351  0.31680  0.81823  Biso   1.000  O
  O26      1.0000 0.12093  0.28585  0.70425  Biso   1.000  O
  C97      1.0000 0.09639  0.32429  0.75946  Biso   1.000  C
  C98      1.0000 0.01788  0.38653  0.75498  Biso   1.000  C
  C99      1.0000 0.97980  0.42220  0.81518  Biso   1.000  C
  H97      1.0000 0.99900  0.40200  0.85970  Biso   1.000  H
  C100     1.0000 0.98700  0.41410  0.68990  Biso   1.000  C
  H98      1.0000 0.01060  0.38760  0.64880  Biso   1.000  H
  C101     1.0000 0.19600  0.32390  0.97040  Biso   1.000  C
  H99      1.0000 0.22080  0.38140  0.95320  Biso   1.000  H
  H100     1.0000 0.13400  0.31840  0.95300  Biso   1.000  H
  C102     1.0000 0.16180  0.26500  0.97110  Biso   1.000  C
  H101     1.0000 0.14020  0.32470  0.95530  Biso   1.000  H
  C103     1.0000 0.19600  0.32370  0.04990  Biso   1.000  C
  H102     1.0000 0.22020  0.38120  0.06720  Biso   1.000  H
  H103     1.0000 0.13380  0.31780  0.06700  Biso   1.000  H
  C104     1.0000 0.26200  0.33890  0.05000  Biso   1.000  C
  H104     1.0000 0.21240  0.37760  0.06580  Biso   1.000  H
  O27      1.0000 0.36649  0.18320  0.81823  Biso   1.000  O
  O28      1.0000 0.37907  0.21415  0.70425  Biso   1.000  O
  C105     1.0000 0.40361  0.17571  0.75946  Biso   1.000  C
  C106     1.0000 0.48212  0.11347  0.75498  Biso   1.000  C
  C107     1.0000 0.52020  0.07780  0.81518  Biso   1.000  C
  H105     1.0000 0.50100  0.09800  0.85970  Biso   1.000  H
  C108     1.0000 0.51300  0.08590  0.68990  Biso   1.000  C
  H106     1.0000 0.48940  0.11240  0.64880  Biso   1.000  H
  C109     1.0000 0.30400  0.17610  0.97040  Biso   1.000  C
  H107     1.0000 0.27920  0.11860  0.95320  Biso   1.000  H
  H108     1.0000 0.36600  0.18160  0.95300  Biso   1.000  H
  C110     1.0000 0.33820  0.23500  0.97110  Biso   1.000  C
  H109     1.0000 0.35980  0.17530  0.95530  Biso   1.000  H
  C111     1.0000 0.30400  0.17630  0.04990  Biso   1.000  C
  H110     1.0000 0.27980  0.11880  0.06720  Biso   1.000  H
  H111     1.0000 0.36620  0.18220  0.06700  Biso   1.000  H
  C112     1.0000 0.23800  0.16110  0.05000  Biso   1.000  C
  H112     1.0000 0.28760  0.12240  0.06580  Biso   1.000  H
  O29      1.0000 0.31680  0.36649  0.81823  Biso   1.000  O
  O30      1.0000 0.28585  0.37907  0.70425  Biso   1.000  O
  C113     1.0000 0.32429  0.40361  0.75946  Biso   1.000  C
  C114     1.0000 0.38653  0.48212  0.75498  Biso   1.000  C
  C115     1.0000 0.42220  0.52020  0.81518  Biso   1.000  C
  H113     1.0000 0.40200  0.50100  0.85970  Biso   1.000  H
  C116     1.0000 0.41410  0.51300  0.68990  Biso   1.000  C
  H114     1.0000 0.38760  0.48940  0.64880  Biso   1.000  H
  C117     1.0000 0.32390  0.30400  0.97040  Biso   1.000  C
  H115     1.0000 0.38140  0.27920  0.95320  Biso   1.000  H
  H116     1.0000 0.31840  0.36600  0.95300  Biso   1.000  H
  C118     1.0000 0.26500  0.33820  0.97110  Biso   1.000  C
  H117     1.0000 0.32470  0.35980  0.95530  Biso   1.000  H
  C119     1.0000 0.32370  0.30400  0.04990  Biso   1.000  C
  H118     1.0000 0.38120  0.27980  0.06720  Biso   1.000  H
  H119     1.0000 0.31780  0.36620  0.06700  Biso   1.000  H
  C120     1.0000 0.33890  0.23800  0.05000  Biso   1.000  C
  H120     1.0000 0.37760  0.28760  0.06580  Biso   1.000  H
  O31      1.0000 0.18320  0.13351  0.81823  Biso   1.000  O
  O32      1.0000 0.21415  0.12093  0.70425  Biso   1.000  O
  C121     1.0000 0.17571  0.09639  0.75946  Biso   1.000  C
  C122     1.0000 0.11347  0.01788  0.75498  Biso   1.000  C
  C123     1.0000 0.07780  0.97980  0.81518  Biso   1.000  C
  H121     1.0000 0.09800  0.99900  0.85970  Biso   1.000  H
  C124     1.0000 0.08590  0.98700  0.68990  Biso   1.000  C
  H122     1.0000 0.11240  0.01060  0.64880  Biso   1.000  H
  C125     1.0000 0.17610  0.19600  0.97040  Biso   1.000  C
  H123     1.0000 0.11860  0.22080  0.95320  Biso   1.000  H
  H124     1.0000 0.18160  0.13400  0.95300  Biso   1.000  H
  C126     1.0000 0.23500  0.16180  0.97110  Biso   1.000  C
  H125     1.0000 0.17530  0.14020  0.95530  Biso   1.000  H
  C127     1.0000 0.17630  0.19600  0.04990  Biso   1.000  C
  H126     1.0000 0.11880  0.22020  0.06720  Biso   1.000  H
  H127     1.0000 0.18220  0.13380  0.06700  Biso   1.000  H
  C128     1.0000 0.16110  0.26200  0.05000  Biso   1.000  C
  H128     1.0000 0.12240  0.21240  0.06580  Biso   1.000  H
  Zn1      1.0000 0.25000  0.25000  0.33713  Biso   1.000  Zn
  Zn2      1.0000 0.25000  0.25000  0.18405  Biso   1.000  Zn
  N1       1.0000 0.25000  0.25000  0.44360  Biso   1.000  N
  N2       1.0000 0.25000  0.25000  0.57740  Biso   1.000  N
  Zn3      1.0000 0.75000  0.75000  0.16287  Biso   1.000  Zn
  Zn4      1.0000 0.75000  0.75000  0.31595  Biso   1.000  Zn
  N3       1.0000 0.75000  0.75000  0.05640  Biso   1.000  N
  N4       1.0000 0.75000  0.75000  0.92260  Biso   1.000  N
  Zn5      1.0000 0.75000  0.75000  0.66287  Biso   1.000  Zn
  Zn6      1.0000 0.75000  0.75000  0.81595  Biso   1.000  Zn
  N5       1.0000 0.75000  0.75000  0.55640  Biso   1.000  N
  N6       1.0000 0.75000  0.75000  0.42260  Biso   1.000  N
  Zn7      1.0000 0.25000  0.25000  0.83713  Biso   1.000  Zn
  Zn8      1.0000 0.25000  0.25000  0.68405  Biso   1.000  Zn
  N7       1.0000 0.25000  0.25000  0.94360  Biso   1.000  N
  N8       1.0000 0.25000  0.25000  0.07740  Biso   1.000  N
