data_image0
_cell_length_a       24.742
_cell_length_b       33.475
_cell_length_c       18.4621
_cell_angle_alpha    90
_cell_angle_beta     90
_cell_angle_gamma    90

_symmetry_space_group_name_H-M    "P 1"
_symmetry_int_tables_number       1

loop_
  _symmetry_equiv_pos_as_xyz
  'x, y, z'

loop_
  _atom_site_label
  _atom_site_occupancy
  _atom_site_fract_x
  _atom_site_fract_y
  _atom_site_fract_z
  _atom_site_thermal_displace_type
  _atom_site_B_iso_or_equiv
  _atom_site_type_symbol
  Cu1      1.0000 0.21502  0.27176  0.43366  Biso   1.000  Cu
  Cu2      1.0000 0.29441  0.23715  0.50733  Biso   1.000  Cu
  O1       1.0000 0.32214  0.29120  0.51600  Biso   1.000  O
  O2       1.0000 0.44354  0.57006  0.30660  Biso   1.000  O
  O3       1.0000 0.44367  0.43534  0.65740  Biso   1.000  O
  O4       1.0000 0.23830  0.23934  0.85170  Biso   1.000  O
  O5       1.0000 0.25473  0.31989  0.45300  Biso   1.000  O
  O6       1.0000 0.18083  0.27672  0.52720  Biso   1.000  O
  O7       1.0000 0.17141  0.26955  0.91082  Biso   1.000  O
  O8       1.0000 0.24810  0.24747  0.58990  Biso   1.000  O
  O9       1.0000 0.24784  0.68815  0.48550  Biso   1.000  O
  O10      1.0000 0.31342  0.71760  0.42470  Biso   1.000  O
  O11      1.0000 0.44400  0.63660  0.29770  Biso   1.000  O
  C1       1.0000 0.31210  0.64734  0.43520  Biso   1.000  C
  C2       1.0000 0.35910  0.64367  0.39020  Biso   1.000  C
  H1       1.0000 0.37600  0.66650  0.37270  Biso   1.000  H
  O12      1.0000 0.44620  0.36903  0.64920  Biso   1.000  O
  C3       1.0000 0.29150  0.39618  0.49470  Biso   1.000  C
  H2       1.0000 0.26120  0.39410  0.46520  Biso   1.000  H
  C4       1.0000 0.37900  0.60696  0.37290  Biso   1.000  C
  C5       1.0000 0.30660  0.57511  0.43790  Biso   1.000  C
  C6       1.0000 0.30730  0.43346  0.51870  Biso   1.000  C
  C7       1.0000 0.38100  0.40116  0.58430  Biso   1.000  C
  C8       1.0000 0.29700  0.32098  0.49460  Biso   1.000  C
  C9       1.0000 0.31900  0.36215  0.51320  Biso   1.000  C
  C10      1.0000 0.17380  0.27492  0.65350  Biso   1.000  C
  C11      1.0000 0.04770  0.32846  0.71060  Biso   1.000  C
  C12      1.0000 0.28840  0.69058  0.44790  Biso   1.000  C
  C13      1.0000 0.10110  0.30688  0.71650  Biso   1.000  C
  C14      1.0000 0.28530  0.61356  0.45890  Biso   1.000  C
  H3       1.0000 0.25460  0.61550  0.48760  Biso   1.000  H
  C15      1.0000 0.42570  0.40135  0.63410  Biso   1.000  C
  C16      1.0000 0.19470  0.25859  0.85580  Biso   1.000  C
  C17      1.0000 0.21740  0.53948  0.46450  Biso   1.000  C
  H4       1.0000 0.19700  0.56190  0.45280  Biso   1.000  H
  C18      1.0000 0.20530  0.26538  0.58730  Biso   1.000  C
  C19      1.0000 0.12670  0.29643  0.65310  Biso   1.000  C
  H5       1.0000 0.11170  0.30410  0.60900  Biso   1.000  H
  C20      1.0000 0.19600  0.26095  0.71960  Biso   1.000  C
  H6       1.0000 0.22780  0.24610  0.72010  Biso   1.000  H
  C21      1.0000 0.42560  0.60391  0.32200  Biso   1.000  C
  C22      1.0000 0.27730  0.46896  0.49930  Biso   1.000  C
  C23      1.0000 0.35360  0.43540  0.56460  Biso   1.000  C
  H7       1.0000 0.36550  0.46010  0.58150  Biso   1.000  H
  C24      1.0000 0.16860  0.27011  0.78440  Biso   1.000  C
  C25      1.0000 0.36390  0.36371  0.55850  Biso   1.000  C
  H8       1.0000 0.38220  0.34050  0.57140  Biso   1.000  H
  C26      1.0000 0.04590  0.36890  0.67610  Biso   1.000  C
  H9       1.0000 0.07860  0.38090  0.66420  Biso   1.000  H
  C27      1.0000 0.12260  0.29239  0.78360  Biso   1.000  C
  H10      1.0000 0.10500  0.29820  0.82680  Biso   1.000  H
  C28      1.0000 0.30340  0.50435  0.48330  Biso   1.000  C
  H11      1.0000 0.34090  0.50490  0.48790  Biso   1.000  H
  C29      1.0000 0.27770  0.53938  0.46070  Biso   1.000  C
  C30      1.0000 0.22280  0.47020  0.50060  Biso   1.000  C
  H12      1.0000 0.20400  0.44700  0.51180  Biso   1.000  H
  C31      1.0000 0.35180  0.57237  0.39700  Biso   1.000  C
  H13      1.0000 0.36520  0.54730  0.38460  Biso   1.000  H
  C32      1.0000 0.19410  0.50430  0.48620  Biso   1.000  C
  O13      1.0000 0.13700  0.50620  0.47800  Biso   1.000  O
  C33      1.0000 0.10230  0.46980  0.47280  Biso   1.000  C
  H14      1.0000 0.11280  0.45110  0.50950  Biso   1.000  H
  H15      1.0000 0.10670  0.45790  0.42590  Biso   1.000  H
  H16      1.0000 0.06520  0.47720  0.47960  Biso   1.000  H
  C34      1.0000 0.11060  0.47440  0.52500  Biso   1.000  C
  H17      1.0000 0.07210  0.47600  0.52010  Biso   1.000  H
  H18      1.0000 0.12040  0.47860  0.57470  Biso   1.000  H
  H19      1.0000 0.12270  0.44840  0.50990  Biso   1.000  H
  Cu3      1.0000 0.71502  0.77176  0.43366  Biso   1.000  Cu
  Cu4      1.0000 0.79441  0.73715  0.50733  Biso   1.000  Cu
  O14      1.0000 0.82214  0.79120  0.51600  Biso   1.000  O
  O15      1.0000 0.94354  0.07006  0.30660  Biso   1.000  O
  O16      1.0000 0.94367  0.93534  0.65740  Biso   1.000  O
  O17      1.0000 0.73830  0.73934  0.85170  Biso   1.000  O
  O18      1.0000 0.75473  0.81989  0.45300  Biso   1.000  O
  O19      1.0000 0.68083  0.77672  0.52720  Biso   1.000  O
  O20      1.0000 0.67141  0.76955  0.91082  Biso   1.000  O
  O21      1.0000 0.74810  0.74747  0.58990  Biso   1.000  O
  O22      1.0000 0.74784  0.18815  0.48550  Biso   1.000  O
  O23      1.0000 0.81342  0.21760  0.42470  Biso   1.000  O
  O24      1.0000 0.94400  0.13660  0.29770  Biso   1.000  O
  C35      1.0000 0.81210  0.14734  0.43520  Biso   1.000  C
  C36      1.0000 0.85910  0.14367  0.39020  Biso   1.000  C
  H20      1.0000 0.87600  0.16650  0.37270  Biso   1.000  H
  O25      1.0000 0.94620  0.86903  0.64920  Biso   1.000  O
  C37      1.0000 0.79150  0.89618  0.49470  Biso   1.000  C
  H21      1.0000 0.76120  0.89410  0.46520  Biso   1.000  H
  C38      1.0000 0.87900  0.10696  0.37290  Biso   1.000  C
  C39      1.0000 0.80660  0.07511  0.43790  Biso   1.000  C
  C40      1.0000 0.80730  0.93346  0.51870  Biso   1.000  C
  C41      1.0000 0.88100  0.90116  0.58430  Biso   1.000  C
  C42      1.0000 0.79700  0.82098  0.49460  Biso   1.000  C
  C43      1.0000 0.81900  0.86215  0.51320  Biso   1.000  C
  C44      1.0000 0.67380  0.77492  0.65350  Biso   1.000  C
  C45      1.0000 0.54770  0.82846  0.71060  Biso   1.000  C
  C46      1.0000 0.78840  0.19058  0.44790  Biso   1.000  C
  C47      1.0000 0.60110  0.80688  0.71650  Biso   1.000  C
  C48      1.0000 0.78530  0.11356  0.45890  Biso   1.000  C
  H22      1.0000 0.75460  0.11550  0.48760  Biso   1.000  H
  C49      1.0000 0.92570  0.90135  0.63410  Biso   1.000  C
  C50      1.0000 0.69470  0.75859  0.85580  Biso   1.000  C
  C51      1.0000 0.71740  0.03948  0.46450  Biso   1.000  C
  H23      1.0000 0.69700  0.06190  0.45280  Biso   1.000  H
  C52      1.0000 0.70530  0.76538  0.58730  Biso   1.000  C
  C53      1.0000 0.62670  0.79643  0.65310  Biso   1.000  C
  H24      1.0000 0.61170  0.80410  0.60900  Biso   1.000  H
  C54      1.0000 0.69600  0.76095  0.71960  Biso   1.000  C
  H25      1.0000 0.72780  0.74610  0.72010  Biso   1.000  H
  C55      1.0000 0.92560  0.10391  0.32200  Biso   1.000  C
  C56      1.0000 0.77730  0.96896  0.49930  Biso   1.000  C
  C57      1.0000 0.85360  0.93540  0.56460  Biso   1.000  C
  H26      1.0000 0.86550  0.96010  0.58150  Biso   1.000  H
  C58      1.0000 0.66860  0.77011  0.78440  Biso   1.000  C
  C59      1.0000 0.86390  0.86371  0.55850  Biso   1.000  C
  H27      1.0000 0.88220  0.84050  0.57140  Biso   1.000  H
  C60      1.0000 0.54590  0.86890  0.67610  Biso   1.000  C
  H28      1.0000 0.57860  0.88090  0.66420  Biso   1.000  H
  C61      1.0000 0.62260  0.79239  0.78360  Biso   1.000  C
  H29      1.0000 0.60500  0.79820  0.82680  Biso   1.000  H
  C62      1.0000 0.80340  0.00435  0.48330  Biso   1.000  C
  H30      1.0000 0.84090  0.00490  0.48790  Biso   1.000  H
  C63      1.0000 0.77770  0.03938  0.46070  Biso   1.000  C
  C64      1.0000 0.72280  0.97020  0.50060  Biso   1.000  C
  H31      1.0000 0.70400  0.94700  0.51180  Biso   1.000  H
  C65      1.0000 0.85180  0.07237  0.39700  Biso   1.000  C
  H32      1.0000 0.86520  0.04730  0.38460  Biso   1.000  H
  C66      1.0000 0.69410  0.00430  0.48620  Biso   1.000  C
  O26      1.0000 0.63700  0.00620  0.47800  Biso   1.000  O
  C67      1.0000 0.60230  0.96980  0.47280  Biso   1.000  C
  H33      1.0000 0.61280  0.95110  0.50950  Biso   1.000  H
  H34      1.0000 0.60670  0.95790  0.42590  Biso   1.000  H
  H35      1.0000 0.56520  0.97720  0.47960  Biso   1.000  H
  C68      1.0000 0.61060  0.97440  0.52500  Biso   1.000  C
  H36      1.0000 0.57210  0.97600  0.52010  Biso   1.000  H
  H37      1.0000 0.62040  0.97860  0.57470  Biso   1.000  H
  H38      1.0000 0.62270  0.94840  0.50990  Biso   1.000  H
  Cu5      1.0000 0.78498  0.72824  0.93366  Biso   1.000  Cu
  Cu6      1.0000 0.70559  0.76285  0.00733  Biso   1.000  Cu
  O27      1.0000 0.67786  0.70880  0.01600  Biso   1.000  O
  O28      1.0000 0.55646  0.42994  0.80660  Biso   1.000  O
  O29      1.0000 0.55633  0.56466  0.15740  Biso   1.000  O
  O30      1.0000 0.76170  0.76066  0.35170  Biso   1.000  O
  O31      1.0000 0.74527  0.68011  0.95300  Biso   1.000  O
  O32      1.0000 0.81917  0.72328  0.02720  Biso   1.000  O
  O33      1.0000 0.82859  0.73045  0.41082  Biso   1.000  O
  O34      1.0000 0.75190  0.75253  0.08990  Biso   1.000  O
  O35      1.0000 0.75216  0.31185  0.98550  Biso   1.000  O
  O36      1.0000 0.68658  0.28240  0.92470  Biso   1.000  O
  O37      1.0000 0.55600  0.36340  0.79770  Biso   1.000  O
  C69      1.0000 0.68790  0.35266  0.93520  Biso   1.000  C
  C70      1.0000 0.64090  0.35633  0.89020  Biso   1.000  C
  H39      1.0000 0.62400  0.33350  0.87270  Biso   1.000  H
  O38      1.0000 0.55380  0.63097  0.14920  Biso   1.000  O
  C71      1.0000 0.70850  0.60382  0.99470  Biso   1.000  C
  H40      1.0000 0.73880  0.60590  0.96520  Biso   1.000  H
  C72      1.0000 0.62100  0.39304  0.87290  Biso   1.000  C
  C73      1.0000 0.69340  0.42489  0.93790  Biso   1.000  C
  C74      1.0000 0.69270  0.56654  0.01870  Biso   1.000  C
  C75      1.0000 0.61900  0.59884  0.08430  Biso   1.000  C
  C76      1.0000 0.70300  0.67902  0.99460  Biso   1.000  C
  C77      1.0000 0.68100  0.63785  0.01320  Biso   1.000  C
  C78      1.0000 0.82620  0.72508  0.15350  Biso   1.000  C
  C79      1.0000 0.95230  0.67154  0.21060  Biso   1.000  C
  C80      1.0000 0.71160  0.30942  0.94790  Biso   1.000  C
  C81      1.0000 0.89890  0.69312  0.21650  Biso   1.000  C
  C82      1.0000 0.71470  0.38644  0.95890  Biso   1.000  C
  H41      1.0000 0.74540  0.38450  0.98760  Biso   1.000  H
  C83      1.0000 0.57430  0.59865  0.13410  Biso   1.000  C
  C84      1.0000 0.80530  0.74141  0.35580  Biso   1.000  C
  C85      1.0000 0.78260  0.46052  0.96450  Biso   1.000  C
  H42      1.0000 0.80300  0.43810  0.95280  Biso   1.000  H
  C86      1.0000 0.79470  0.73462  0.08730  Biso   1.000  C
  C87      1.0000 0.87330  0.70357  0.15310  Biso   1.000  C
  H43      1.0000 0.88830  0.69590  0.10900  Biso   1.000  H
  C88      1.0000 0.80400  0.73905  0.21960  Biso   1.000  C
  H44      1.0000 0.77220  0.75390  0.22010  Biso   1.000  H
  C89      1.0000 0.57440  0.39609  0.82200  Biso   1.000  C
  C90      1.0000 0.72270  0.53104  0.99930  Biso   1.000  C
  C91      1.0000 0.64640  0.56460  0.06460  Biso   1.000  C
  H45      1.0000 0.63450  0.53990  0.08150  Biso   1.000  H
  C92      1.0000 0.83140  0.72989  0.28440  Biso   1.000  C
  C93      1.0000 0.63610  0.63629  0.05850  Biso   1.000  C
  H46      1.0000 0.61780  0.65950  0.07140  Biso   1.000  H
  C94      1.0000 0.95410  0.63110  0.17610  Biso   1.000  C
  H47      1.0000 0.92140  0.61910  0.16420  Biso   1.000  H
  C95      1.0000 0.87740  0.70761  0.28360  Biso   1.000  C
  H48      1.0000 0.89500  0.70180  0.32680  Biso   1.000  H
  C96      1.0000 0.69660  0.49565  0.98330  Biso   1.000  C
  H49      1.0000 0.65910  0.49510  0.98790  Biso   1.000  H
  C97      1.0000 0.72230  0.46062  0.96070  Biso   1.000  C
  C98      1.0000 0.77720  0.52980  0.00060  Biso   1.000  C
  H50      1.0000 0.79600  0.55300  0.01180  Biso   1.000  H
  C99      1.0000 0.64820  0.42763  0.89700  Biso   1.000  C
  H51      1.0000 0.63480  0.45270  0.88460  Biso   1.000  H
  C100     1.0000 0.80590  0.49570  0.98620  Biso   1.000  C
  O39      1.0000 0.86300  0.49380  0.97800  Biso   1.000  O
  C101     1.0000 0.89770  0.53020  0.97280  Biso   1.000  C
  H52      1.0000 0.88720  0.54890  0.00950  Biso   1.000  H
  H53      1.0000 0.89330  0.54210  0.92590  Biso   1.000  H
  H54      1.0000 0.93480  0.52280  0.97960  Biso   1.000  H
  C102     1.0000 0.88940  0.52560  0.02500  Biso   1.000  C
  H55      1.0000 0.92790  0.52400  0.02010  Biso   1.000  H
  H56      1.0000 0.87960  0.52140  0.07470  Biso   1.000  H
  H57      1.0000 0.87730  0.55160  0.00990  Biso   1.000  H
  Cu7      1.0000 0.28498  0.22824  0.93366  Biso   1.000  Cu
  Cu8      1.0000 0.20559  0.26285  0.00733  Biso   1.000  Cu
  O40      1.0000 0.17786  0.20880  0.01600  Biso   1.000  O
  O41      1.0000 0.05646  0.92994  0.80660  Biso   1.000  O
  O42      1.0000 0.05633  0.06466  0.15740  Biso   1.000  O
  O43      1.0000 0.26170  0.26066  0.35170  Biso   1.000  O
  O44      1.0000 0.24527  0.18011  0.95300  Biso   1.000  O
  O45      1.0000 0.31917  0.22328  0.02720  Biso   1.000  O
  O46      1.0000 0.32859  0.23045  0.41082  Biso   1.000  O
  O47      1.0000 0.25190  0.25253  0.08990  Biso   1.000  O
  O48      1.0000 0.25216  0.81185  0.98550  Biso   1.000  O
  O49      1.0000 0.18658  0.78240  0.92470  Biso   1.000  O
  O50      1.0000 0.05600  0.86340  0.79770  Biso   1.000  O
  C103     1.0000 0.18790  0.85266  0.93520  Biso   1.000  C
  C104     1.0000 0.14090  0.85633  0.89020  Biso   1.000  C
  H58      1.0000 0.12400  0.83350  0.87270  Biso   1.000  H
  O51      1.0000 0.05380  0.13097  0.14920  Biso   1.000  O
  C105     1.0000 0.20850  0.10382  0.99470  Biso   1.000  C
  H59      1.0000 0.23880  0.10590  0.96520  Biso   1.000  H
  C106     1.0000 0.12100  0.89304  0.87290  Biso   1.000  C
  C107     1.0000 0.19340  0.92489  0.93790  Biso   1.000  C
  C108     1.0000 0.19270  0.06654  0.01870  Biso   1.000  C
  C109     1.0000 0.11900  0.09884  0.08430  Biso   1.000  C
  C110     1.0000 0.20300  0.17902  0.99460  Biso   1.000  C
  C111     1.0000 0.18100  0.13785  0.01320  Biso   1.000  C
  C112     1.0000 0.32620  0.22508  0.15350  Biso   1.000  C
  C113     1.0000 0.45230  0.17154  0.21060  Biso   1.000  C
  C114     1.0000 0.21160  0.80942  0.94790  Biso   1.000  C
  C115     1.0000 0.39890  0.19312  0.21650  Biso   1.000  C
  C116     1.0000 0.21470  0.88644  0.95890  Biso   1.000  C
  H60      1.0000 0.24540  0.88450  0.98760  Biso   1.000  H
  C117     1.0000 0.07430  0.09865  0.13410  Biso   1.000  C
  C118     1.0000 0.30530  0.24141  0.35580  Biso   1.000  C
  C119     1.0000 0.28260  0.96052  0.96450  Biso   1.000  C
  H61      1.0000 0.30300  0.93810  0.95280  Biso   1.000  H
  C120     1.0000 0.29470  0.23462  0.08730  Biso   1.000  C
  C121     1.0000 0.37330  0.20357  0.15310  Biso   1.000  C
  H62      1.0000 0.38830  0.19590  0.10900  Biso   1.000  H
  C122     1.0000 0.30400  0.23905  0.21960  Biso   1.000  C
  H63      1.0000 0.27220  0.25390  0.22010  Biso   1.000  H
  C123     1.0000 0.07440  0.89609  0.82200  Biso   1.000  C
  C124     1.0000 0.22270  0.03104  0.99930  Biso   1.000  C
  C125     1.0000 0.14640  0.06460  0.06460  Biso   1.000  C
  H64      1.0000 0.13450  0.03990  0.08150  Biso   1.000  H
  C126     1.0000 0.33140  0.22989  0.28440  Biso   1.000  C
  C127     1.0000 0.13610  0.13629  0.05850  Biso   1.000  C
  H65      1.0000 0.11780  0.15950  0.07140  Biso   1.000  H
  C128     1.0000 0.45410  0.13110  0.17610  Biso   1.000  C
  H66      1.0000 0.42140  0.11910  0.16420  Biso   1.000  H
  C129     1.0000 0.37740  0.20761  0.28360  Biso   1.000  C
  H67      1.0000 0.39500  0.20180  0.32680  Biso   1.000  H
  C130     1.0000 0.19660  0.99565  0.98330  Biso   1.000  C
  H68      1.0000 0.15910  0.99510  0.98790  Biso   1.000  H
  C131     1.0000 0.22230  0.96062  0.96070  Biso   1.000  C
  C132     1.0000 0.27720  0.02980  0.00060  Biso   1.000  C
  H69      1.0000 0.29600  0.05300  0.01180  Biso   1.000  H
  C133     1.0000 0.14820  0.92763  0.89700  Biso   1.000  C
  H70      1.0000 0.13480  0.95270  0.88460  Biso   1.000  H
  C134     1.0000 0.30590  0.99570  0.98620  Biso   1.000  C
  O52      1.0000 0.36300  0.99380  0.97800  Biso   1.000  O
  C135     1.0000 0.39770  0.03020  0.97280  Biso   1.000  C
  H71      1.0000 0.38720  0.04890  0.00950  Biso   1.000  H
  H72      1.0000 0.39330  0.04210  0.92590  Biso   1.000  H
  H73      1.0000 0.43480  0.02280  0.97960  Biso   1.000  H
  C136     1.0000 0.38940  0.02560  0.02500  Biso   1.000  C
  H74      1.0000 0.42790  0.02400  0.02010  Biso   1.000  H
  H75      1.0000 0.37960  0.02140  0.07470  Biso   1.000  H
  H76      1.0000 0.37730  0.05160  0.00990  Biso   1.000  H
  Cu9      1.0000 0.21502  0.72824  0.93366  Biso   1.000  Cu
  Cu10     1.0000 0.29441  0.76285  0.00733  Biso   1.000  Cu
  O53      1.0000 0.32214  0.70880  0.01600  Biso   1.000  O
  O54      1.0000 0.44354  0.42994  0.80660  Biso   1.000  O
  O55      1.0000 0.44367  0.56466  0.15740  Biso   1.000  O
  O56      1.0000 0.23830  0.76066  0.35170  Biso   1.000  O
  O57      1.0000 0.25473  0.68011  0.95300  Biso   1.000  O
  O58      1.0000 0.18083  0.72328  0.02720  Biso   1.000  O
  O59      1.0000 0.17141  0.73045  0.41082  Biso   1.000  O
  O60      1.0000 0.24810  0.75253  0.08990  Biso   1.000  O
  O61      1.0000 0.24784  0.31185  0.98550  Biso   1.000  O
  O62      1.0000 0.31342  0.28240  0.92470  Biso   1.000  O
  O63      1.0000 0.44400  0.36340  0.79770  Biso   1.000  O
  C137     1.0000 0.31210  0.35266  0.93520  Biso   1.000  C
  C138     1.0000 0.35910  0.35633  0.89020  Biso   1.000  C
  H77      1.0000 0.37600  0.33350  0.87270  Biso   1.000  H
  O64      1.0000 0.44620  0.63097  0.14920  Biso   1.000  O
  C139     1.0000 0.29150  0.60382  0.99470  Biso   1.000  C
  H78      1.0000 0.26120  0.60590  0.96520  Biso   1.000  H
  C140     1.0000 0.37900  0.39304  0.87290  Biso   1.000  C
  C141     1.0000 0.30660  0.42489  0.93790  Biso   1.000  C
  C142     1.0000 0.30730  0.56654  0.01870  Biso   1.000  C
  C143     1.0000 0.38100  0.59884  0.08430  Biso   1.000  C
  C144     1.0000 0.29700  0.67902  0.99460  Biso   1.000  C
  C145     1.0000 0.31900  0.63785  0.01320  Biso   1.000  C
  C146     1.0000 0.17380  0.72508  0.15350  Biso   1.000  C
  C147     1.0000 0.04770  0.67154  0.21060  Biso   1.000  C
  C148     1.0000 0.28840  0.30942  0.94790  Biso   1.000  C
  C149     1.0000 0.10110  0.69312  0.21650  Biso   1.000  C
  C150     1.0000 0.28530  0.38644  0.95890  Biso   1.000  C
  H79      1.0000 0.25460  0.38450  0.98760  Biso   1.000  H
  C151     1.0000 0.42570  0.59865  0.13410  Biso   1.000  C
  C152     1.0000 0.19470  0.74141  0.35580  Biso   1.000  C
  C153     1.0000 0.21740  0.46052  0.96450  Biso   1.000  C
  H80      1.0000 0.19700  0.43810  0.95280  Biso   1.000  H
  C154     1.0000 0.20530  0.73462  0.08730  Biso   1.000  C
  C155     1.0000 0.12670  0.70357  0.15310  Biso   1.000  C
  H81      1.0000 0.11170  0.69590  0.10900  Biso   1.000  H
  C156     1.0000 0.19600  0.73905  0.21960  Biso   1.000  C
  H82      1.0000 0.22780  0.75390  0.22010  Biso   1.000  H
  C157     1.0000 0.42560  0.39609  0.82200  Biso   1.000  C
  C158     1.0000 0.27730  0.53104  0.99930  Biso   1.000  C
  C159     1.0000 0.35360  0.56460  0.06460  Biso   1.000  C
  H83      1.0000 0.36550  0.53990  0.08150  Biso   1.000  H
  C160     1.0000 0.16860  0.72989  0.28440  Biso   1.000  C
  C161     1.0000 0.36390  0.63629  0.05850  Biso   1.000  C
  H84      1.0000 0.38220  0.65950  0.07140  Biso   1.000  H
  C162     1.0000 0.04590  0.63110  0.17610  Biso   1.000  C
  H85      1.0000 0.07860  0.61910  0.16420  Biso   1.000  H
  C163     1.0000 0.12260  0.70761  0.28360  Biso   1.000  C
  H86      1.0000 0.10500  0.70180  0.32680  Biso   1.000  H
  C164     1.0000 0.30340  0.49565  0.98330  Biso   1.000  C
  H87      1.0000 0.34090  0.49510  0.98790  Biso   1.000  H
  C165     1.0000 0.27770  0.46062  0.96070  Biso   1.000  C
  C166     1.0000 0.22280  0.52980  0.00060  Biso   1.000  C
  H88      1.0000 0.20400  0.55300  0.01180  Biso   1.000  H
  C167     1.0000 0.35180  0.42763  0.89700  Biso   1.000  C
  H89      1.0000 0.36520  0.45270  0.88460  Biso   1.000  H
  C168     1.0000 0.19410  0.49570  0.98620  Biso   1.000  C
  O65      1.0000 0.13700  0.49380  0.97800  Biso   1.000  O
  C169     1.0000 0.10230  0.53020  0.97280  Biso   1.000  C
  H90      1.0000 0.11280  0.54890  0.00950  Biso   1.000  H
  H91      1.0000 0.10670  0.54210  0.92590  Biso   1.000  H
  H92      1.0000 0.06520  0.52280  0.97960  Biso   1.000  H
  C170     1.0000 0.11060  0.52560  0.02500  Biso   1.000  C
  H93      1.0000 0.07210  0.52400  0.02010  Biso   1.000  H
  H94      1.0000 0.12040  0.52140  0.07470  Biso   1.000  H
  H95      1.0000 0.12270  0.55160  0.00990  Biso   1.000  H
  Cu11     1.0000 0.71502  0.22824  0.93366  Biso   1.000  Cu
  Cu12     1.0000 0.79441  0.26285  0.00733  Biso   1.000  Cu
  O66      1.0000 0.82214  0.20880  0.01600  Biso   1.000  O
  O67      1.0000 0.94354  0.92994  0.80660  Biso   1.000  O
  O68      1.0000 0.94367  0.06466  0.15740  Biso   1.000  O
  O69      1.0000 0.73830  0.26066  0.35170  Biso   1.000  O
  O70      1.0000 0.75473  0.18011  0.95300  Biso   1.000  O
  O71      1.0000 0.68083  0.22328  0.02720  Biso   1.000  O
  O72      1.0000 0.67141  0.23045  0.41082  Biso   1.000  O
  O73      1.0000 0.74810  0.25253  0.08990  Biso   1.000  O
  O74      1.0000 0.74784  0.81185  0.98550  Biso   1.000  O
  O75      1.0000 0.81342  0.78240  0.92470  Biso   1.000  O
  O76      1.0000 0.94400  0.86340  0.79770  Biso   1.000  O
  C171     1.0000 0.81210  0.85266  0.93520  Biso   1.000  C
  C172     1.0000 0.85910  0.85633  0.89020  Biso   1.000  C
  H96      1.0000 0.87600  0.83350  0.87270  Biso   1.000  H
  O77      1.0000 0.94620  0.13097  0.14920  Biso   1.000  O
  C173     1.0000 0.79150  0.10382  0.99470  Biso   1.000  C
  H97      1.0000 0.76120  0.10590  0.96520  Biso   1.000  H
  C174     1.0000 0.87900  0.89304  0.87290  Biso   1.000  C
  C175     1.0000 0.80660  0.92489  0.93790  Biso   1.000  C
  C176     1.0000 0.80730  0.06654  0.01870  Biso   1.000  C
  C177     1.0000 0.88100  0.09884  0.08430  Biso   1.000  C
  C178     1.0000 0.79700  0.17902  0.99460  Biso   1.000  C
  C179     1.0000 0.81900  0.13785  0.01320  Biso   1.000  C
  C180     1.0000 0.67380  0.22508  0.15350  Biso   1.000  C
  C181     1.0000 0.54770  0.17154  0.21060  Biso   1.000  C
  C182     1.0000 0.78840  0.80942  0.94790  Biso   1.000  C
  C183     1.0000 0.60110  0.19312  0.21650  Biso   1.000  C
  C184     1.0000 0.78530  0.88644  0.95890  Biso   1.000  C
  H98      1.0000 0.75460  0.88450  0.98760  Biso   1.000  H
  C185     1.0000 0.92570  0.09865  0.13410  Biso   1.000  C
  C186     1.0000 0.69470  0.24141  0.35580  Biso   1.000  C
  C187     1.0000 0.71740  0.96052  0.96450  Biso   1.000  C
  H99      1.0000 0.69700  0.93810  0.95280  Biso   1.000  H
  C188     1.0000 0.70530  0.23462  0.08730  Biso   1.000  C
  C189     1.0000 0.62670  0.20357  0.15310  Biso   1.000  C
  H100     1.0000 0.61170  0.19590  0.10900  Biso   1.000  H
  C190     1.0000 0.69600  0.23905  0.21960  Biso   1.000  C
  H101     1.0000 0.72780  0.25390  0.22010  Biso   1.000  H
  C191     1.0000 0.92560  0.89609  0.82200  Biso   1.000  C
  C192     1.0000 0.77730  0.03104  0.99930  Biso   1.000  C
  C193     1.0000 0.85360  0.06460  0.06460  Biso   1.000  C
  H102     1.0000 0.86550  0.03990  0.08150  Biso   1.000  H
  C194     1.0000 0.66860  0.22989  0.28440  Biso   1.000  C
  C195     1.0000 0.86390  0.13629  0.05850  Biso   1.000  C
  H103     1.0000 0.88220  0.15950  0.07140  Biso   1.000  H
  C196     1.0000 0.54590  0.13110  0.17610  Biso   1.000  C
  H104     1.0000 0.57860  0.11910  0.16420  Biso   1.000  H
  C197     1.0000 0.62260  0.20761  0.28360  Biso   1.000  C
  H105     1.0000 0.60500  0.20180  0.32680  Biso   1.000  H
  C198     1.0000 0.80340  0.99565  0.98330  Biso   1.000  C
  H106     1.0000 0.84090  0.99510  0.98790  Biso   1.000  H
  C199     1.0000 0.77770  0.96062  0.96070  Biso   1.000  C
  C200     1.0000 0.72280  0.02980  0.00060  Biso   1.000  C
  H107     1.0000 0.70400  0.05300  0.01180  Biso   1.000  H
  C201     1.0000 0.85180  0.92763  0.89700  Biso   1.000  C
  H108     1.0000 0.86520  0.95270  0.88460  Biso   1.000  H
  C202     1.0000 0.69410  0.99570  0.98620  Biso   1.000  C
  O78      1.0000 0.63700  0.99380  0.97800  Biso   1.000  O
  C203     1.0000 0.60230  0.03020  0.97280  Biso   1.000  C
  H109     1.0000 0.61280  0.04890  0.00950  Biso   1.000  H
  H110     1.0000 0.60670  0.04210  0.92590  Biso   1.000  H
  H111     1.0000 0.56520  0.02280  0.97960  Biso   1.000  H
  C204     1.0000 0.61060  0.02560  0.02500  Biso   1.000  C
  H112     1.0000 0.57210  0.02400  0.02010  Biso   1.000  H
  H113     1.0000 0.62040  0.02140  0.07470  Biso   1.000  H
  H114     1.0000 0.62270  0.05160  0.00990  Biso   1.000  H
  Cu13     1.0000 0.78498  0.27176  0.43366  Biso   1.000  Cu
  Cu14     1.0000 0.70559  0.23715  0.50733  Biso   1.000  Cu
  O79      1.0000 0.67786  0.29120  0.51600  Biso   1.000  O
  O80      1.0000 0.55646  0.57006  0.30660  Biso   1.000  O
  O81      1.0000 0.55633  0.43534  0.65740  Biso   1.000  O
  O82      1.0000 0.76170  0.23934  0.85170  Biso   1.000  O
  O83      1.0000 0.74527  0.31989  0.45300  Biso   1.000  O
  O84      1.0000 0.81917  0.27672  0.52720  Biso   1.000  O
  O85      1.0000 0.82859  0.26955  0.91082  Biso   1.000  O
  O86      1.0000 0.75190  0.24747  0.58990  Biso   1.000  O
  O87      1.0000 0.75216  0.68815  0.48550  Biso   1.000  O
  O88      1.0000 0.68658  0.71760  0.42470  Biso   1.000  O
  O89      1.0000 0.55600  0.63660  0.29770  Biso   1.000  O
  C205     1.0000 0.68790  0.64734  0.43520  Biso   1.000  C
  C206     1.0000 0.64090  0.64367  0.39020  Biso   1.000  C
  H115     1.0000 0.62400  0.66650  0.37270  Biso   1.000  H
  O90      1.0000 0.55380  0.36903  0.64920  Biso   1.000  O
  C207     1.0000 0.70850  0.39618  0.49470  Biso   1.000  C
  H116     1.0000 0.73880  0.39410  0.46520  Biso   1.000  H
  C208     1.0000 0.62100  0.60696  0.37290  Biso   1.000  C
  C209     1.0000 0.69340  0.57511  0.43790  Biso   1.000  C
  C210     1.0000 0.69270  0.43346  0.51870  Biso   1.000  C
  C211     1.0000 0.61900  0.40116  0.58430  Biso   1.000  C
  C212     1.0000 0.70300  0.32098  0.49460  Biso   1.000  C
  C213     1.0000 0.68100  0.36215  0.51320  Biso   1.000  C
  C214     1.0000 0.82620  0.27492  0.65350  Biso   1.000  C
  C215     1.0000 0.95230  0.32846  0.71060  Biso   1.000  C
  C216     1.0000 0.71160  0.69058  0.44790  Biso   1.000  C
  C217     1.0000 0.89890  0.30688  0.71650  Biso   1.000  C
  C218     1.0000 0.71470  0.61356  0.45890  Biso   1.000  C
  H117     1.0000 0.74540  0.61550  0.48760  Biso   1.000  H
  C219     1.0000 0.57430  0.40135  0.63410  Biso   1.000  C
  C220     1.0000 0.80530  0.25859  0.85580  Biso   1.000  C
  C221     1.0000 0.78260  0.53948  0.46450  Biso   1.000  C
  H118     1.0000 0.80300  0.56190  0.45280  Biso   1.000  H
  C222     1.0000 0.79470  0.26538  0.58730  Biso   1.000  C
  C223     1.0000 0.87330  0.29643  0.65310  Biso   1.000  C
  H119     1.0000 0.88830  0.30410  0.60900  Biso   1.000  H
  C224     1.0000 0.80400  0.26095  0.71960  Biso   1.000  C
  H120     1.0000 0.77220  0.24610  0.72010  Biso   1.000  H
  C225     1.0000 0.57440  0.60391  0.32200  Biso   1.000  C
  C226     1.0000 0.72270  0.46896  0.49930  Biso   1.000  C
  C227     1.0000 0.64640  0.43540  0.56460  Biso   1.000  C
  H121     1.0000 0.63450  0.46010  0.58150  Biso   1.000  H
  C228     1.0000 0.83140  0.27011  0.78440  Biso   1.000  C
  C229     1.0000 0.63610  0.36371  0.55850  Biso   1.000  C
  H122     1.0000 0.61780  0.34050  0.57140  Biso   1.000  H
  C230     1.0000 0.95410  0.36890  0.67610  Biso   1.000  C
  H123     1.0000 0.92140  0.38090  0.66420  Biso   1.000  H
  C231     1.0000 0.87740  0.29239  0.78360  Biso   1.000  C
  H124     1.0000 0.89500  0.29820  0.82680  Biso   1.000  H
  C232     1.0000 0.69660  0.50435  0.48330  Biso   1.000  C
  H125     1.0000 0.65910  0.50490  0.48790  Biso   1.000  H
  C233     1.0000 0.72230  0.53938  0.46070  Biso   1.000  C
  C234     1.0000 0.77720  0.47020  0.50060  Biso   1.000  C
  H126     1.0000 0.79600  0.44700  0.51180  Biso   1.000  H
  C235     1.0000 0.64820  0.57237  0.39700  Biso   1.000  C
  H127     1.0000 0.63480  0.54730  0.38460  Biso   1.000  H
  C236     1.0000 0.80590  0.50430  0.48620  Biso   1.000  C
  O91      1.0000 0.86300  0.50620  0.47800  Biso   1.000  O
  C237     1.0000 0.89770  0.46980  0.47280  Biso   1.000  C
  H128     1.0000 0.88720  0.45110  0.50950  Biso   1.000  H
  H129     1.0000 0.89330  0.45790  0.42590  Biso   1.000  H
  H130     1.0000 0.93480  0.47720  0.47960  Biso   1.000  H
  C238     1.0000 0.88940  0.47440  0.52500  Biso   1.000  C
  H131     1.0000 0.92790  0.47600  0.52010  Biso   1.000  H
  H132     1.0000 0.87960  0.47860  0.57470  Biso   1.000  H
  H133     1.0000 0.87730  0.44840  0.50990  Biso   1.000  H
  Cu15     1.0000 0.28498  0.77176  0.43366  Biso   1.000  Cu
  Cu16     1.0000 0.20559  0.73715  0.50733  Biso   1.000  Cu
  O92      1.0000 0.17786  0.79120  0.51600  Biso   1.000  O
  O93      1.0000 0.05646  0.07006  0.30660  Biso   1.000  O
  O94      1.0000 0.05633  0.93534  0.65740  Biso   1.000  O
  O95      1.0000 0.26170  0.73934  0.85170  Biso   1.000  O
  O96      1.0000 0.24527  0.81989  0.45300  Biso   1.000  O
  O97      1.0000 0.31917  0.77672  0.52720  Biso   1.000  O
  O98      1.0000 0.32859  0.76955  0.91082  Biso   1.000  O
  O99      1.0000 0.25190  0.74747  0.58990  Biso   1.000  O
  O100     1.0000 0.25216  0.18815  0.48550  Biso   1.000  O
  O101     1.0000 0.18658  0.21760  0.42470  Biso   1.000  O
  O102     1.0000 0.05600  0.13660  0.29770  Biso   1.000  O
  C239     1.0000 0.18790  0.14734  0.43520  Biso   1.000  C
  C240     1.0000 0.14090  0.14367  0.39020  Biso   1.000  C
  H134     1.0000 0.12400  0.16650  0.37270  Biso   1.000  H
  O103     1.0000 0.05380  0.86903  0.64920  Biso   1.000  O
  C241     1.0000 0.20850  0.89618  0.49470  Biso   1.000  C
  H135     1.0000 0.23880  0.89410  0.46520  Biso   1.000  H
  C242     1.0000 0.12100  0.10696  0.37290  Biso   1.000  C
  C243     1.0000 0.19340  0.07511  0.43790  Biso   1.000  C
  C244     1.0000 0.19270  0.93346  0.51870  Biso   1.000  C
  C245     1.0000 0.11900  0.90116  0.58430  Biso   1.000  C
  C246     1.0000 0.20300  0.82098  0.49460  Biso   1.000  C
  C247     1.0000 0.18100  0.86215  0.51320  Biso   1.000  C
  C248     1.0000 0.32620  0.77492  0.65350  Biso   1.000  C
  C249     1.0000 0.45230  0.82846  0.71060  Biso   1.000  C
  C250     1.0000 0.21160  0.19058  0.44790  Biso   1.000  C
  C251     1.0000 0.39890  0.80688  0.71650  Biso   1.000  C
  C252     1.0000 0.21470  0.11356  0.45890  Biso   1.000  C
  H136     1.0000 0.24540  0.11550  0.48760  Biso   1.000  H
  C253     1.0000 0.07430  0.90135  0.63410  Biso   1.000  C
  C254     1.0000 0.30530  0.75859  0.85580  Biso   1.000  C
  C255     1.0000 0.28260  0.03948  0.46450  Biso   1.000  C
  H137     1.0000 0.30300  0.06190  0.45280  Biso   1.000  H
  C256     1.0000 0.29470  0.76538  0.58730  Biso   1.000  C
  C257     1.0000 0.37330  0.79643  0.65310  Biso   1.000  C
  H138     1.0000 0.38830  0.80410  0.60900  Biso   1.000  H
  C258     1.0000 0.30400  0.76095  0.71960  Biso   1.000  C
  H139     1.0000 0.27220  0.74610  0.72010  Biso   1.000  H
  C259     1.0000 0.07440  0.10391  0.32200  Biso   1.000  C
  C260     1.0000 0.22270  0.96896  0.49930  Biso   1.000  C
  C261     1.0000 0.14640  0.93540  0.56460  Biso   1.000  C
  H140     1.0000 0.13450  0.96010  0.58150  Biso   1.000  H
  C262     1.0000 0.33140  0.77011  0.78440  Biso   1.000  C
  C263     1.0000 0.13610  0.86371  0.55850  Biso   1.000  C
  H141     1.0000 0.11780  0.84050  0.57140  Biso   1.000  H
  C264     1.0000 0.45410  0.86890  0.67610  Biso   1.000  C
  H142     1.0000 0.42140  0.88090  0.66420  Biso   1.000  H
  C265     1.0000 0.37740  0.79239  0.78360  Biso   1.000  C
  H143     1.0000 0.39500  0.79820  0.82680  Biso   1.000  H
  C266     1.0000 0.19660  0.00435  0.48330  Biso   1.000  C
  H144     1.0000 0.15910  0.00490  0.48790  Biso   1.000  H
  C267     1.0000 0.22230  0.03938  0.46070  Biso   1.000  C
  C268     1.0000 0.27720  0.97020  0.50060  Biso   1.000  C
  H145     1.0000 0.29600  0.94700  0.51180  Biso   1.000  H
  C269     1.0000 0.14820  0.07237  0.39700  Biso   1.000  C
  H146     1.0000 0.13480  0.04730  0.38460  Biso   1.000  H
  C270     1.0000 0.30590  0.00430  0.48620  Biso   1.000  C
  O104     1.0000 0.36300  0.00620  0.47800  Biso   1.000  O
  C271     1.0000 0.39770  0.96980  0.47280  Biso   1.000  C
  H147     1.0000 0.38720  0.95110  0.50950  Biso   1.000  H
  H148     1.0000 0.39330  0.95790  0.42590  Biso   1.000  H
  H149     1.0000 0.43480  0.97720  0.47960  Biso   1.000  H
  C272     1.0000 0.38940  0.97440  0.52500  Biso   1.000  C
  H150     1.0000 0.42790  0.97600  0.52010  Biso   1.000  H
  H151     1.0000 0.37960  0.97860  0.57470  Biso   1.000  H
  H152     1.0000 0.37730  0.94840  0.50990  Biso   1.000  H
  C273     1.0000 0.00000  0.31100  0.72870  Biso   1.000  C
  H153     1.0000 0.00000  0.28690  0.75380  Biso   1.000  H
  C274     1.0000 0.00000  0.38900  0.66130  Biso   1.000  C
  O105     1.0000 0.00000  0.42160  0.63440  Biso   1.000  O
  C275     1.0000 0.50000  0.81100  0.72870  Biso   1.000  C
  H154     1.0000 0.50000  0.78690  0.75380  Biso   1.000  H
  C276     1.0000 0.50000  0.88900  0.66130  Biso   1.000  C
  O106     1.0000 0.50000  0.92160  0.63440  Biso   1.000  O
  C277     1.0000 0.00000  0.68900  0.22870  Biso   1.000  C
  H155     1.0000 0.00000  0.71310  0.25380  Biso   1.000  H
  C278     1.0000 0.00000  0.61100  0.16130  Biso   1.000  C
  O107     1.0000 0.00000  0.57840  0.13440  Biso   1.000  O
  C279     1.0000 0.50000  0.18900  0.22870  Biso   1.000  C
  H156     1.0000 0.50000  0.21310  0.25380  Biso   1.000  H
  C280     1.0000 0.50000  0.11100  0.16130  Biso   1.000  C
  O108     1.0000 0.50000  0.07840  0.13440  Biso   1.000  O
  Cu17     1.0000 0.50000  0.56063  0.23288  Biso   1.000  Cu
  Cu18     1.0000 0.50000  0.63972  0.22686  Biso   1.000  Cu
  Cu19     1.0000 0.00000  0.06063  0.23288  Biso   1.000  Cu
  Cu20     1.0000 0.00000  0.13972  0.22686  Biso   1.000  Cu
  Cu21     1.0000 0.50000  0.43937  0.73288  Biso   1.000  Cu
  Cu22     1.0000 0.50000  0.36028  0.72686  Biso   1.000  Cu
  Cu23     1.0000 0.00000  0.93937  0.73288  Biso   1.000  Cu
  Cu24     1.0000 0.00000  0.86028  0.72686  Biso   1.000  Cu
