data_image0
_cell_length_a       15.348
_cell_length_b       30.693
_cell_length_c       9.8227
_cell_angle_alpha    90
_cell_angle_beta     90
_cell_angle_gamma    90

_symmetry_space_group_name_H-M    "P 1"
_symmetry_int_tables_number       1

loop_
  _symmetry_equiv_pos_as_xyz
  'x, y, z'

loop_
  _atom_site_label
  _atom_site_occupancy
  _atom_site_fract_x
  _atom_site_fract_y
  _atom_site_fract_z
  _atom_site_thermal_displace_type
  _atom_site_B_iso_or_equiv
  _atom_site_type_symbol
  N1       1.0000 0.77430  0.66940  0.65590  Biso   1.000  N
  N2       1.0000 0.71110  0.76550  0.65330  Biso   1.000  N
  C1       1.0000 0.86680  0.65080  0.65000  Biso   1.000  C
  C2       1.0000 0.73230  0.66110  0.76700  Biso   1.000  C
  C3       1.0000 0.88040  0.61950  0.72920  Biso   1.000  C
  H1       1.0000 0.90950  0.66190  0.59220  Biso   1.000  H
  H2       1.0000 0.69170  0.68180  0.79410  Biso   1.000  H
  C4       1.0000 0.74040  0.62680  0.84700  Biso   1.000  C
  C5       1.0000 0.83000  0.60460  0.84020  Biso   1.000  C
  H3       1.0000 0.93110  0.60390  0.71260  Biso   1.000  H
  H4       1.0000 0.69560  0.61690  0.90270  Biso   1.000  H
  C6       1.0000 0.84990  0.56920  0.92510  Biso   1.000  C
  S1       1.0000 0.88860  0.52138  0.84900  Biso   1.000  S
  S2       1.0000 0.90320  0.41596  0.14790  Biso   1.000  S
  C7       1.0000 0.87210  0.36730  0.06430  Biso   1.000  C
  C8       1.0000 0.84450  0.33160  0.16150  Biso   1.000  C
  C9       1.0000 0.79240  0.34100  0.27300  Biso   1.000  C
  C10      1.0000 0.87060  0.28970  0.14640  Biso   1.000  C
  C11      1.0000 0.76560  0.30840  0.36300  Biso   1.000  C
  H5       1.0000 0.77490  0.36960  0.28810  Biso   1.000  H
  H6       1.0000 0.90300  0.28180  0.07030  Biso   1.000  H
  C12      1.0000 0.84900  0.25770  0.24540  Biso   1.000  C
  H7       1.0000 0.73090  0.31600  0.43710  Biso   1.000  H
  H8       1.0000 0.87620  0.23070  0.24170  Biso   1.000  H
  C13      1.0000 0.88270  0.28680  0.36000  Biso   1.000  C
  H9       1.0000 0.91560  0.28150  0.43800  Biso   1.000  H
  C14      1.0000 0.91120  0.31980  0.26760  Biso   1.000  C
  H10      1.0000 0.96580  0.33280  0.27250  Biso   1.000  H
  C15      1.0000 0.77260  0.30760  0.13700  Biso   1.000  C
  H11      1.0000 0.73880  0.31170  0.05960  Biso   1.000  H
  C16      1.0000 0.75150  0.27540  0.23800  Biso   1.000  C
  H12      1.0000 0.69680  0.26230  0.23490  Biso   1.000  H
  C17      1.0000 0.85580  0.64600  0.85400  Biso   1.000  C
  H13      1.0000 0.89410  0.65330  0.92350  Biso   1.000  H
  C18      1.0000 0.82660  0.67850  0.76630  Biso   1.000  C
  H14      1.0000 0.84280  0.70720  0.78280  Biso   1.000  H
  C19      1.0000 0.73560  0.62900  0.63800  Biso   1.000  C
  H15      1.0000 0.69370  0.62460  0.57120  Biso   1.000  H
  C20      1.0000 0.76310  0.59320  0.72800  Biso   1.000  C
  H16      1.0000 0.74130  0.56510  0.71850  Biso   1.000  H
  N3       1.0000 0.80880  0.26290  0.33900  Biso   1.000  N
  N4       1.0000 0.22570  0.33060  0.65590  Biso   1.000  N
  N5       1.0000 0.28890  0.23450  0.65330  Biso   1.000  N
  C21      1.0000 0.13320  0.34920  0.65000  Biso   1.000  C
  C22      1.0000 0.26770  0.33890  0.76700  Biso   1.000  C
  C23      1.0000 0.11960  0.38050  0.72920  Biso   1.000  C
  H17      1.0000 0.09050  0.33810  0.59220  Biso   1.000  H
  H18      1.0000 0.30830  0.31820  0.79410  Biso   1.000  H
  C24      1.0000 0.25960  0.37320  0.84700  Biso   1.000  C
  C25      1.0000 0.17000  0.39540  0.84020  Biso   1.000  C
  H19      1.0000 0.06890  0.39610  0.71260  Biso   1.000  H
  H20      1.0000 0.30440  0.38310  0.90270  Biso   1.000  H
  C26      1.0000 0.15010  0.43080  0.92510  Biso   1.000  C
  S3       1.0000 0.11140  0.47862  0.84900  Biso   1.000  S
  S4       1.0000 0.09680  0.58404  0.14790  Biso   1.000  S
  C27      1.0000 0.12790  0.63270  0.06430  Biso   1.000  C
  C28      1.0000 0.15550  0.66840  0.16150  Biso   1.000  C
  C29      1.0000 0.20760  0.65900  0.27300  Biso   1.000  C
  C30      1.0000 0.12940  0.71030  0.14640  Biso   1.000  C
  C31      1.0000 0.23440  0.69160  0.36300  Biso   1.000  C
  H21      1.0000 0.22510  0.63040  0.28810  Biso   1.000  H
  H22      1.0000 0.09700  0.71820  0.07030  Biso   1.000  H
  C32      1.0000 0.15100  0.74230  0.24540  Biso   1.000  C
  H23      1.0000 0.26910  0.68400  0.43710  Biso   1.000  H
  H24      1.0000 0.12380  0.76930  0.24170  Biso   1.000  H
  C33      1.0000 0.11730  0.71320  0.36000  Biso   1.000  C
  H25      1.0000 0.08440  0.71850  0.43800  Biso   1.000  H
  C34      1.0000 0.08880  0.68020  0.26760  Biso   1.000  C
  H26      1.0000 0.03420  0.66720  0.27250  Biso   1.000  H
  C35      1.0000 0.22740  0.69240  0.13700  Biso   1.000  C
  H27      1.0000 0.26120  0.68830  0.05960  Biso   1.000  H
  C36      1.0000 0.24850  0.72460  0.23800  Biso   1.000  C
  H28      1.0000 0.30320  0.73770  0.23490  Biso   1.000  H
  C37      1.0000 0.14420  0.35400  0.85400  Biso   1.000  C
  H29      1.0000 0.10590  0.34670  0.92350  Biso   1.000  H
  C38      1.0000 0.17340  0.32150  0.76630  Biso   1.000  C
  H30      1.0000 0.15720  0.29280  0.78280  Biso   1.000  H
  C39      1.0000 0.26440  0.37100  0.63800  Biso   1.000  C
  H31      1.0000 0.30630  0.37540  0.57120  Biso   1.000  H
  C40      1.0000 0.23690  0.40680  0.72800  Biso   1.000  C
  H32      1.0000 0.25870  0.43490  0.71850  Biso   1.000  H
  N6       1.0000 0.19120  0.73710  0.33900  Biso   1.000  N
  N7       1.0000 0.72570  0.16940  0.34410  Biso   1.000  N
  N8       1.0000 0.78890  0.26550  0.34670  Biso   1.000  N
  C41      1.0000 0.63320  0.15080  0.35000  Biso   1.000  C
  C42      1.0000 0.76770  0.16110  0.23300  Biso   1.000  C
  C43      1.0000 0.61960  0.11950  0.27080  Biso   1.000  C
  H33      1.0000 0.59050  0.16190  0.40780  Biso   1.000  H
  H34      1.0000 0.80830  0.18180  0.20590  Biso   1.000  H
  C44      1.0000 0.75960  0.12680  0.15300  Biso   1.000  C
  C45      1.0000 0.67000  0.10460  0.15980  Biso   1.000  C
  H35      1.0000 0.56890  0.10390  0.28740  Biso   1.000  H
  H36      1.0000 0.80440  0.11690  0.09730  Biso   1.000  H
  C46      1.0000 0.65010  0.06920  0.07490  Biso   1.000  C
  S5       1.0000 0.61140  0.02138  0.15100  Biso   1.000  S
  S6       1.0000 0.59680  0.91596  0.85210  Biso   1.000  S
  C47      1.0000 0.62790  0.86730  0.93570  Biso   1.000  C
  C48      1.0000 0.65550  0.83160  0.83850  Biso   1.000  C
  C49      1.0000 0.70760  0.84100  0.72700  Biso   1.000  C
  C50      1.0000 0.62940  0.78970  0.85360  Biso   1.000  C
  C51      1.0000 0.73440  0.80840  0.63700  Biso   1.000  C
  H37      1.0000 0.72510  0.86960  0.71190  Biso   1.000  H
  H38      1.0000 0.59700  0.78180  0.92970  Biso   1.000  H
  C52      1.0000 0.65100  0.75770  0.75460  Biso   1.000  C
  H39      1.0000 0.76910  0.81600  0.56290  Biso   1.000  H
  H40      1.0000 0.62380  0.73070  0.75830  Biso   1.000  H
  C53      1.0000 0.61730  0.78680  0.64000  Biso   1.000  C
  H41      1.0000 0.58440  0.78150  0.56200  Biso   1.000  H
  C54      1.0000 0.58880  0.81980  0.73240  Biso   1.000  C
  H42      1.0000 0.53420  0.83280  0.72750  Biso   1.000  H
  C55      1.0000 0.72740  0.80760  0.86300  Biso   1.000  C
  H43      1.0000 0.76120  0.81170  0.94040  Biso   1.000  H
  C56      1.0000 0.74850  0.77540  0.76200  Biso   1.000  C
  H44      1.0000 0.80320  0.76230  0.76510  Biso   1.000  H
  C57      1.0000 0.64420  0.14600  0.14600  Biso   1.000  C
  H45      1.0000 0.60590  0.15330  0.07650  Biso   1.000  H
  C58      1.0000 0.67340  0.17850  0.23370  Biso   1.000  C
  H46      1.0000 0.65720  0.20720  0.21720  Biso   1.000  H
  C59      1.0000 0.76440  0.12900  0.36200  Biso   1.000  C
  H47      1.0000 0.80630  0.12460  0.42880  Biso   1.000  H
  C60      1.0000 0.73690  0.09320  0.27200  Biso   1.000  C
  H48      1.0000 0.75870  0.06510  0.28150  Biso   1.000  H
  N9       1.0000 0.69120  0.76290  0.66100  Biso   1.000  N
  N10      1.0000 0.27430  0.83060  0.34410  Biso   1.000  N
  N11      1.0000 0.21110  0.73450  0.34670  Biso   1.000  N
  C61      1.0000 0.36680  0.84920  0.35000  Biso   1.000  C
  C62      1.0000 0.23230  0.83890  0.23300  Biso   1.000  C
  C63      1.0000 0.38040  0.88050  0.27080  Biso   1.000  C
  H49      1.0000 0.40950  0.83810  0.40780  Biso   1.000  H
  H50      1.0000 0.19170  0.81820  0.20590  Biso   1.000  H
  C64      1.0000 0.24040  0.87320  0.15300  Biso   1.000  C
  C65      1.0000 0.33000  0.89540  0.15980  Biso   1.000  C
  H51      1.0000 0.43110  0.89610  0.28740  Biso   1.000  H
  H52      1.0000 0.19560  0.88310  0.09730  Biso   1.000  H
  C66      1.0000 0.34990  0.93080  0.07490  Biso   1.000  C
  S7       1.0000 0.38860  0.97862  0.15100  Biso   1.000  S
  S8       1.0000 0.40320  0.08404  0.85210  Biso   1.000  S
  C67      1.0000 0.37210  0.13270  0.93570  Biso   1.000  C
  C68      1.0000 0.34450  0.16840  0.83850  Biso   1.000  C
  C69      1.0000 0.29240  0.15900  0.72700  Biso   1.000  C
  C70      1.0000 0.37060  0.21030  0.85360  Biso   1.000  C
  C71      1.0000 0.26560  0.19160  0.63700  Biso   1.000  C
  H53      1.0000 0.27490  0.13040  0.71190  Biso   1.000  H
  H54      1.0000 0.40300  0.21820  0.92970  Biso   1.000  H
  C72      1.0000 0.34900  0.24230  0.75460  Biso   1.000  C
  H55      1.0000 0.23090  0.18400  0.56290  Biso   1.000  H
  H56      1.0000 0.37620  0.26930  0.75830  Biso   1.000  H
  C73      1.0000 0.38270  0.21320  0.64000  Biso   1.000  C
  H57      1.0000 0.41560  0.21850  0.56200  Biso   1.000  H
  C74      1.0000 0.41120  0.18020  0.73240  Biso   1.000  C
  H58      1.0000 0.46580  0.16720  0.72750  Biso   1.000  H
  C75      1.0000 0.27260  0.19240  0.86300  Biso   1.000  C
  H59      1.0000 0.23880  0.18830  0.94040  Biso   1.000  H
  C76      1.0000 0.25150  0.22460  0.76200  Biso   1.000  C
  H60      1.0000 0.19680  0.23770  0.76510  Biso   1.000  H
  C77      1.0000 0.35580  0.85400  0.14600  Biso   1.000  C
  H61      1.0000 0.39410  0.84670  0.07650  Biso   1.000  H
  C78      1.0000 0.32660  0.82150  0.23370  Biso   1.000  C
  H62      1.0000 0.34280  0.79280  0.21720  Biso   1.000  H
  C79      1.0000 0.23560  0.87100  0.36200  Biso   1.000  C
  H63      1.0000 0.19370  0.87540  0.42880  Biso   1.000  H
  C80      1.0000 0.26310  0.90680  0.27200  Biso   1.000  C
  H64      1.0000 0.24130  0.93490  0.28150  Biso   1.000  H
  N12      1.0000 0.30880  0.23710  0.66100  Biso   1.000  N
  N13      1.0000 0.22570  0.33060  0.34410  Biso   1.000  N
  N14      1.0000 0.28890  0.23450  0.34670  Biso   1.000  N
  C81      1.0000 0.13320  0.34920  0.35000  Biso   1.000  C
  C82      1.0000 0.26770  0.33890  0.23300  Biso   1.000  C
  C83      1.0000 0.11960  0.38050  0.27080  Biso   1.000  C
  H65      1.0000 0.09050  0.33810  0.40780  Biso   1.000  H
  H66      1.0000 0.30830  0.31820  0.20590  Biso   1.000  H
  C84      1.0000 0.25960  0.37320  0.15300  Biso   1.000  C
  C85      1.0000 0.17000  0.39540  0.15980  Biso   1.000  C
  H67      1.0000 0.06890  0.39610  0.28740  Biso   1.000  H
  H68      1.0000 0.30440  0.38310  0.09730  Biso   1.000  H
  C86      1.0000 0.15010  0.43080  0.07490  Biso   1.000  C
  S9       1.0000 0.11140  0.47862  0.15100  Biso   1.000  S
  S10      1.0000 0.09680  0.58404  0.85210  Biso   1.000  S
  C87      1.0000 0.12790  0.63270  0.93570  Biso   1.000  C
  C88      1.0000 0.15550  0.66840  0.83850  Biso   1.000  C
  C89      1.0000 0.20760  0.65900  0.72700  Biso   1.000  C
  C90      1.0000 0.12940  0.71030  0.85360  Biso   1.000  C
  C91      1.0000 0.23440  0.69160  0.63700  Biso   1.000  C
  H69      1.0000 0.22510  0.63040  0.71190  Biso   1.000  H
  H70      1.0000 0.09700  0.71820  0.92970  Biso   1.000  H
  C92      1.0000 0.15100  0.74230  0.75460  Biso   1.000  C
  H71      1.0000 0.26910  0.68400  0.56290  Biso   1.000  H
  H72      1.0000 0.12380  0.76930  0.75830  Biso   1.000  H
  C93      1.0000 0.11730  0.71320  0.64000  Biso   1.000  C
  H73      1.0000 0.08440  0.71850  0.56200  Biso   1.000  H
  C94      1.0000 0.08880  0.68020  0.73240  Biso   1.000  C
  H74      1.0000 0.03420  0.66720  0.72750  Biso   1.000  H
  C95      1.0000 0.22740  0.69240  0.86300  Biso   1.000  C
  H75      1.0000 0.26120  0.68830  0.94040  Biso   1.000  H
  C96      1.0000 0.24850  0.72460  0.76200  Biso   1.000  C
  H76      1.0000 0.30320  0.73770  0.76510  Biso   1.000  H
  C97      1.0000 0.14420  0.35400  0.14600  Biso   1.000  C
  H77      1.0000 0.10590  0.34670  0.07650  Biso   1.000  H
  C98      1.0000 0.17340  0.32150  0.23370  Biso   1.000  C
  H78      1.0000 0.15720  0.29280  0.21720  Biso   1.000  H
  C99      1.0000 0.26440  0.37100  0.36200  Biso   1.000  C
  H79      1.0000 0.30630  0.37540  0.42880  Biso   1.000  H
  C100     1.0000 0.23690  0.40680  0.27200  Biso   1.000  C
  H80      1.0000 0.25870  0.43490  0.28150  Biso   1.000  H
  N15      1.0000 0.19120  0.73710  0.66100  Biso   1.000  N
  N16      1.0000 0.77430  0.66940  0.34410  Biso   1.000  N
  N17      1.0000 0.71110  0.76550  0.34670  Biso   1.000  N
  C101     1.0000 0.86680  0.65080  0.35000  Biso   1.000  C
  C102     1.0000 0.73230  0.66110  0.23300  Biso   1.000  C
  C103     1.0000 0.88040  0.61950  0.27080  Biso   1.000  C
  H81      1.0000 0.90950  0.66190  0.40780  Biso   1.000  H
  H82      1.0000 0.69170  0.68180  0.20590  Biso   1.000  H
  C104     1.0000 0.74040  0.62680  0.15300  Biso   1.000  C
  C105     1.0000 0.83000  0.60460  0.15980  Biso   1.000  C
  H83      1.0000 0.93110  0.60390  0.28740  Biso   1.000  H
  H84      1.0000 0.69560  0.61690  0.09730  Biso   1.000  H
  C106     1.0000 0.84990  0.56920  0.07490  Biso   1.000  C
  S11      1.0000 0.88860  0.52138  0.15100  Biso   1.000  S
  S12      1.0000 0.90320  0.41596  0.85210  Biso   1.000  S
  C107     1.0000 0.87210  0.36730  0.93570  Biso   1.000  C
  C108     1.0000 0.84450  0.33160  0.83850  Biso   1.000  C
  C109     1.0000 0.79240  0.34100  0.72700  Biso   1.000  C
  C110     1.0000 0.87060  0.28970  0.85360  Biso   1.000  C
  C111     1.0000 0.76560  0.30840  0.63700  Biso   1.000  C
  H85      1.0000 0.77490  0.36960  0.71190  Biso   1.000  H
  H86      1.0000 0.90300  0.28180  0.92970  Biso   1.000  H
  C112     1.0000 0.84900  0.25770  0.75460  Biso   1.000  C
  H87      1.0000 0.73090  0.31600  0.56290  Biso   1.000  H
  H88      1.0000 0.87620  0.23070  0.75830  Biso   1.000  H
  C113     1.0000 0.88270  0.28680  0.64000  Biso   1.000  C
  H89      1.0000 0.91560  0.28150  0.56200  Biso   1.000  H
  C114     1.0000 0.91120  0.31980  0.73240  Biso   1.000  C
  H90      1.0000 0.96580  0.33280  0.72750  Biso   1.000  H
  C115     1.0000 0.77260  0.30760  0.86300  Biso   1.000  C
  H91      1.0000 0.73880  0.31170  0.94040  Biso   1.000  H
  C116     1.0000 0.75150  0.27540  0.76200  Biso   1.000  C
  H92      1.0000 0.69680  0.26230  0.76510  Biso   1.000  H
  C117     1.0000 0.85580  0.64600  0.14600  Biso   1.000  C
  H93      1.0000 0.89410  0.65330  0.07650  Biso   1.000  H
  C118     1.0000 0.82660  0.67850  0.23370  Biso   1.000  C
  H94      1.0000 0.84280  0.70720  0.21720  Biso   1.000  H
  C119     1.0000 0.73560  0.62900  0.36200  Biso   1.000  C
  H95      1.0000 0.69370  0.62460  0.42880  Biso   1.000  H
  C120     1.0000 0.76310  0.59320  0.27200  Biso   1.000  C
  H96      1.0000 0.74130  0.56510  0.28150  Biso   1.000  H
  N18      1.0000 0.80880  0.26290  0.66100  Biso   1.000  N
  N19      1.0000 0.27430  0.83060  0.65590  Biso   1.000  N
  N20      1.0000 0.21110  0.73450  0.65330  Biso   1.000  N
  C121     1.0000 0.36680  0.84920  0.65000  Biso   1.000  C
  C122     1.0000 0.23230  0.83890  0.76700  Biso   1.000  C
  C123     1.0000 0.38040  0.88050  0.72920  Biso   1.000  C
  H97      1.0000 0.40950  0.83810  0.59220  Biso   1.000  H
  H98      1.0000 0.19170  0.81820  0.79410  Biso   1.000  H
  C124     1.0000 0.24040  0.87320  0.84700  Biso   1.000  C
  C125     1.0000 0.33000  0.89540  0.84020  Biso   1.000  C
  H99      1.0000 0.43110  0.89610  0.71260  Biso   1.000  H
  H100     1.0000 0.19560  0.88310  0.90270  Biso   1.000  H
  C126     1.0000 0.34990  0.93080  0.92510  Biso   1.000  C
  S13      1.0000 0.38860  0.97862  0.84900  Biso   1.000  S
  S14      1.0000 0.40320  0.08404  0.14790  Biso   1.000  S
  C127     1.0000 0.37210  0.13270  0.06430  Biso   1.000  C
  C128     1.0000 0.34450  0.16840  0.16150  Biso   1.000  C
  C129     1.0000 0.29240  0.15900  0.27300  Biso   1.000  C
  C130     1.0000 0.37060  0.21030  0.14640  Biso   1.000  C
  C131     1.0000 0.26560  0.19160  0.36300  Biso   1.000  C
  H101     1.0000 0.27490  0.13040  0.28810  Biso   1.000  H
  H102     1.0000 0.40300  0.21820  0.07030  Biso   1.000  H
  C132     1.0000 0.34900  0.24230  0.24540  Biso   1.000  C
  H103     1.0000 0.23090  0.18400  0.43710  Biso   1.000  H
  H104     1.0000 0.37620  0.26930  0.24170  Biso   1.000  H
  C133     1.0000 0.38270  0.21320  0.36000  Biso   1.000  C
  H105     1.0000 0.41560  0.21850  0.43800  Biso   1.000  H
  C134     1.0000 0.41120  0.18020  0.26760  Biso   1.000  C
  H106     1.0000 0.46580  0.16720  0.27250  Biso   1.000  H
  C135     1.0000 0.27260  0.19240  0.13700  Biso   1.000  C
  H107     1.0000 0.23880  0.18830  0.05960  Biso   1.000  H
  C136     1.0000 0.25150  0.22460  0.23800  Biso   1.000  C
  H108     1.0000 0.19680  0.23770  0.23490  Biso   1.000  H
  C137     1.0000 0.35580  0.85400  0.85400  Biso   1.000  C
  H109     1.0000 0.39410  0.84670  0.92350  Biso   1.000  H
  C138     1.0000 0.32660  0.82150  0.76630  Biso   1.000  C
  H110     1.0000 0.34280  0.79280  0.78280  Biso   1.000  H
  C139     1.0000 0.23560  0.87100  0.63800  Biso   1.000  C
  H111     1.0000 0.19370  0.87540  0.57120  Biso   1.000  H
  C140     1.0000 0.26310  0.90680  0.72800  Biso   1.000  C
  H112     1.0000 0.24130  0.93490  0.71850  Biso   1.000  H
  N21      1.0000 0.30880  0.23710  0.33900  Biso   1.000  N
  N22      1.0000 0.72570  0.16940  0.65590  Biso   1.000  N
  N23      1.0000 0.78890  0.26550  0.65330  Biso   1.000  N
  C141     1.0000 0.63320  0.15080  0.65000  Biso   1.000  C
  C142     1.0000 0.76770  0.16110  0.76700  Biso   1.000  C
  C143     1.0000 0.61960  0.11950  0.72920  Biso   1.000  C
  H113     1.0000 0.59050  0.16190  0.59220  Biso   1.000  H
  H114     1.0000 0.80830  0.18180  0.79410  Biso   1.000  H
  C144     1.0000 0.75960  0.12680  0.84700  Biso   1.000  C
  C145     1.0000 0.67000  0.10460  0.84020  Biso   1.000  C
  H115     1.0000 0.56890  0.10390  0.71260  Biso   1.000  H
  H116     1.0000 0.80440  0.11690  0.90270  Biso   1.000  H
  C146     1.0000 0.65010  0.06920  0.92510  Biso   1.000  C
  S15      1.0000 0.61140  0.02138  0.84900  Biso   1.000  S
  S16      1.0000 0.59680  0.91596  0.14790  Biso   1.000  S
  C147     1.0000 0.62790  0.86730  0.06430  Biso   1.000  C
  C148     1.0000 0.65550  0.83160  0.16150  Biso   1.000  C
  C149     1.0000 0.70760  0.84100  0.27300  Biso   1.000  C
  C150     1.0000 0.62940  0.78970  0.14640  Biso   1.000  C
  C151     1.0000 0.73440  0.80840  0.36300  Biso   1.000  C
  H117     1.0000 0.72510  0.86960  0.28810  Biso   1.000  H
  H118     1.0000 0.59700  0.78180  0.07030  Biso   1.000  H
  C152     1.0000 0.65100  0.75770  0.24540  Biso   1.000  C
  H119     1.0000 0.76910  0.81600  0.43710  Biso   1.000  H
  H120     1.0000 0.62380  0.73070  0.24170  Biso   1.000  H
  C153     1.0000 0.61730  0.78680  0.36000  Biso   1.000  C
  H121     1.0000 0.58440  0.78150  0.43800  Biso   1.000  H
  C154     1.0000 0.58880  0.81980  0.26760  Biso   1.000  C
  H122     1.0000 0.53420  0.83280  0.27250  Biso   1.000  H
  C155     1.0000 0.72740  0.80760  0.13700  Biso   1.000  C
  H123     1.0000 0.76120  0.81170  0.05960  Biso   1.000  H
  C156     1.0000 0.74850  0.77540  0.23800  Biso   1.000  C
  H124     1.0000 0.80320  0.76230  0.23490  Biso   1.000  H
  C157     1.0000 0.64420  0.14600  0.85400  Biso   1.000  C
  H125     1.0000 0.60590  0.15330  0.92350  Biso   1.000  H
  C158     1.0000 0.67340  0.17850  0.76630  Biso   1.000  C
  H126     1.0000 0.65720  0.20720  0.78280  Biso   1.000  H
  C159     1.0000 0.76440  0.12900  0.63800  Biso   1.000  C
  H127     1.0000 0.80630  0.12460  0.57120  Biso   1.000  H
  C160     1.0000 0.73690  0.09320  0.72800  Biso   1.000  C
  H128     1.0000 0.75870  0.06510  0.71850  Biso   1.000  H
  N24      1.0000 0.69120  0.76290  0.33900  Biso   1.000  N
  Fe1      1.0000 0.73746  0.71706  0.50000  Biso   1.000  Fe
  N25      1.0000 0.86470  0.74340  0.50000  Biso   1.000  N
  N26      1.0000 0.61480  0.69030  0.50000  Biso   1.000  N
  C161     1.0000 0.90560  0.77100  0.50000  Biso   1.000  C
  N27      1.0000 0.95130  0.81180  0.50000  Biso   1.000  N
  C162     1.0000 0.04430  0.80830  0.50000  Biso   1.000  C
  Fe2      1.0000 0.26254  0.28294  0.50000  Biso   1.000  Fe
  N28      1.0000 0.13530  0.25660  0.50000  Biso   1.000  N
  N29      1.0000 0.38520  0.30970  0.50000  Biso   1.000  N
  C163     1.0000 0.09440  0.22900  0.50000  Biso   1.000  C
  N30      1.0000 0.04870  0.18820  0.50000  Biso   1.000  N
  C164     1.0000 0.95570  0.19170  0.50000  Biso   1.000  C
  Fe3      1.0000 0.76254  0.21706  0.50000  Biso   1.000  Fe
  N31      1.0000 0.63530  0.24340  0.50000  Biso   1.000  N
  N32      1.0000 0.88520  0.19030  0.50000  Biso   1.000  N
  C165     1.0000 0.59440  0.27100  0.50000  Biso   1.000  C
  N33      1.0000 0.54870  0.31180  0.50000  Biso   1.000  N
  C166     1.0000 0.45570  0.30830  0.50000  Biso   1.000  C
  Fe4      1.0000 0.23746  0.78294  0.50000  Biso   1.000  Fe
  N34      1.0000 0.36470  0.75660  0.50000  Biso   1.000  N
  N35      1.0000 0.11480  0.80970  0.50000  Biso   1.000  N
  C167     1.0000 0.40560  0.72900  0.50000  Biso   1.000  C
  N36      1.0000 0.45130  0.68820  0.50000  Biso   1.000  N
  C168     1.0000 0.54430  0.69170  0.50000  Biso   1.000  C
  C169     1.0000 0.89770  0.49120  0.00000  Biso   1.000  C
  C170     1.0000 0.89660  0.44900  0.00000  Biso   1.000  C
  C171     1.0000 0.10230  0.50880  0.00000  Biso   1.000  C
  C172     1.0000 0.10340  0.55100  0.00000  Biso   1.000  C
  C173     1.0000 0.60230  0.99120  0.00000  Biso   1.000  C
  C174     1.0000 0.60340  0.94900  0.00000  Biso   1.000  C
  C175     1.0000 0.39770  0.00880  0.00000  Biso   1.000  C
  C176     1.0000 0.39660  0.05100  0.00000  Biso   1.000  C
