data_image0
_cell_length_a       29.846
_cell_length_b       15.6718
_cell_length_c       9.6937
_cell_angle_alpha    90
_cell_angle_beta     90
_cell_angle_gamma    90

_symmetry_space_group_name_H-M    "P 1"
_symmetry_int_tables_number       1

loop_
  _symmetry_equiv_pos_as_xyz
  'x, y, z'

loop_
  _atom_site_label
  _atom_site_occupancy
  _atom_site_fract_x
  _atom_site_fract_y
  _atom_site_fract_z
  _atom_site_thermal_displace_type
  _atom_site_B_iso_or_equiv
  _atom_site_type_symbol
  N1       1.0000 0.68790  0.18170  0.14480  Biso   1.000  N
  N2       1.0000 0.77649  0.24940  0.85720  Biso   1.000  N
  C1       1.0000 0.67830  0.23530  0.73370  Biso   1.000  C
  C2       1.0000 0.66900  0.10540  0.84070  Biso   1.000  C
  H1       1.0000 0.69490  0.28510  0.72300  Biso   1.000  H
  C3       1.0000 0.64720  0.21730  0.63670  Biso   1.000  C
  C4       1.0000 0.63650  0.08670  0.75150  Biso   1.000  C
  H2       1.0000 0.67930  0.06170  0.89730  Biso   1.000  H
  C5       1.0000 0.62100  0.14150  0.66290  Biso   1.000  C
  H3       1.0000 0.64300  0.25110  0.55890  Biso   1.000  H
  H4       1.0000 0.62450  0.03200  0.75250  Biso   1.000  H
  C6       1.0000 0.58360  0.12370  0.56870  Biso   1.000  C
  S1       1.0000 0.53192  0.10067  0.65217  Biso   1.000  S
  S2       1.0000 0.42384  0.12120  0.65178  Biso   1.000  S
  C7       1.0000 0.37610  0.16440  0.56830  Biso   1.000  C
  C8       1.0000 0.34040  0.19230  0.66380  Biso   1.000  C
  C9       1.0000 0.29750  0.17420  0.65160  Biso   1.000  C
  C10      1.0000 0.35160  0.25120  0.78020  Biso   1.000  C
  H5       1.0000 0.28840  0.14290  0.57510  Biso   1.000  H
  C11      1.0000 0.26360  0.20000  0.75080  Biso   1.000  C
  C12      1.0000 0.31940  0.27730  0.86630  Biso   1.000  C
  H6       1.0000 0.38100  0.26970  0.79260  Biso   1.000  H
  H7       1.0000 0.23400  0.18250  0.74160  Biso   1.000  H
  H8       1.0000 0.32700  0.31560  0.93570  Biso   1.000  H
  C13      1.0000 0.64410  0.21150  0.11550  Biso   1.000  C
  H9       1.0000 0.63840  0.24160  0.03470  Biso   1.000  H
  C14      1.0000 0.61130  0.19610  0.20510  Biso   1.000  C
  H10      1.0000 0.58280  0.21770  0.18930  Biso   1.000  H
  C15      1.0000 0.66150  0.10850  0.33330  Biso   1.000  C
  H11      1.0000 0.66880  0.06820  0.39990  Biso   1.000  H
  C16      1.0000 0.69380  0.12930  0.23840  Biso   1.000  C
  H12      1.0000 0.72160  0.10260  0.24480  Biso   1.000  H
  C17      1.0000 0.31780  0.26740  0.34880  Biso   1.000  C
  H13      1.0000 0.32400  0.30140  0.42510  Biso   1.000  H
  C18      1.0000 0.28880  0.29400  0.26360  Biso   1.000  C
  H14      1.0000 0.27480  0.34570  0.28230  Biso   1.000  H
  C19      1.0000 0.29890  0.17160  0.13600  Biso   1.000  C
  H15      1.0000 0.29070  0.13690  0.06240  Biso   1.000  H
  C20      1.0000 0.32970  0.13950  0.21830  Biso   1.000  C
  H16      1.0000 0.34340  0.08710  0.20200  Biso   1.000  H
  N3       1.0000 0.31210  0.81830  0.14480  Biso   1.000  N
  N4       1.0000 0.22351  0.75060  0.85720  Biso   1.000  N
  C21      1.0000 0.32170  0.76470  0.73370  Biso   1.000  C
  C22      1.0000 0.33100  0.89460  0.84070  Biso   1.000  C
  H17      1.0000 0.30510  0.71490  0.72300  Biso   1.000  H
  C23      1.0000 0.35280  0.78270  0.63670  Biso   1.000  C
  C24      1.0000 0.36350  0.91330  0.75150  Biso   1.000  C
  H18      1.0000 0.32070  0.93830  0.89730  Biso   1.000  H
  C25      1.0000 0.37900  0.85850  0.66290  Biso   1.000  C
  H19      1.0000 0.35700  0.74890  0.55890  Biso   1.000  H
  H20      1.0000 0.37550  0.96800  0.75250  Biso   1.000  H
  C26      1.0000 0.41640  0.87630  0.56870  Biso   1.000  C
  S3       1.0000 0.46808  0.89933  0.65217  Biso   1.000  S
  S4       1.0000 0.57616  0.87880  0.65178  Biso   1.000  S
  C27      1.0000 0.62390  0.83560  0.56830  Biso   1.000  C
  C28      1.0000 0.65960  0.80770  0.66380  Biso   1.000  C
  C29      1.0000 0.70250  0.82580  0.65160  Biso   1.000  C
  C30      1.0000 0.64840  0.74880  0.78020  Biso   1.000  C
  H21      1.0000 0.71160  0.85710  0.57510  Biso   1.000  H
  C31      1.0000 0.73640  0.80000  0.75080  Biso   1.000  C
  C32      1.0000 0.68060  0.72270  0.86630  Biso   1.000  C
  H22      1.0000 0.61900  0.73030  0.79260  Biso   1.000  H
  H23      1.0000 0.76600  0.81750  0.74160  Biso   1.000  H
  H24      1.0000 0.67300  0.68440  0.93570  Biso   1.000  H
  C33      1.0000 0.35590  0.78850  0.11550  Biso   1.000  C
  H25      1.0000 0.36160  0.75840  0.03470  Biso   1.000  H
  C34      1.0000 0.38870  0.80390  0.20510  Biso   1.000  C
  H26      1.0000 0.41720  0.78230  0.18930  Biso   1.000  H
  C35      1.0000 0.33850  0.89150  0.33330  Biso   1.000  C
  H27      1.0000 0.33120  0.93180  0.39990  Biso   1.000  H
  C36      1.0000 0.30620  0.87070  0.23840  Biso   1.000  C
  H28      1.0000 0.27840  0.89740  0.24480  Biso   1.000  H
  C37      1.0000 0.68220  0.73260  0.34880  Biso   1.000  C
  H29      1.0000 0.67600  0.69860  0.42510  Biso   1.000  H
  C38      1.0000 0.71120  0.70600  0.26360  Biso   1.000  C
  H30      1.0000 0.72520  0.65430  0.28230  Biso   1.000  H
  C39      1.0000 0.70110  0.82840  0.13600  Biso   1.000  C
  H31      1.0000 0.70930  0.86310  0.06240  Biso   1.000  H
  C40      1.0000 0.67030  0.86050  0.21830  Biso   1.000  C
  H32      1.0000 0.65660  0.91290  0.20200  Biso   1.000  H
  N5       1.0000 0.81210  0.68170  0.85520  Biso   1.000  N
  N6       1.0000 0.72351  0.74940  0.14280  Biso   1.000  N
  C41      1.0000 0.82170  0.73530  0.26630  Biso   1.000  C
  C42      1.0000 0.83100  0.60540  0.15930  Biso   1.000  C
  H33      1.0000 0.80510  0.78510  0.27700  Biso   1.000  H
  C43      1.0000 0.85280  0.71730  0.36330  Biso   1.000  C
  C44      1.0000 0.86350  0.58670  0.24850  Biso   1.000  C
  H34      1.0000 0.82070  0.56170  0.10270  Biso   1.000  H
  C45      1.0000 0.87900  0.64150  0.33710  Biso   1.000  C
  H35      1.0000 0.85700  0.75110  0.44110  Biso   1.000  H
  H36      1.0000 0.87550  0.53200  0.24750  Biso   1.000  H
  C46      1.0000 0.91640  0.62370  0.43130  Biso   1.000  C
  S5       1.0000 0.96808  0.60067  0.34783  Biso   1.000  S
  S6       1.0000 0.07616  0.62120  0.34822  Biso   1.000  S
  C47      1.0000 0.12390  0.66440  0.43170  Biso   1.000  C
  C48      1.0000 0.15960  0.69230  0.33620  Biso   1.000  C
  C49      1.0000 0.20250  0.67420  0.34840  Biso   1.000  C
  C50      1.0000 0.14840  0.75120  0.21980  Biso   1.000  C
  H37      1.0000 0.21160  0.64290  0.42490  Biso   1.000  H
  C51      1.0000 0.23640  0.70000  0.24920  Biso   1.000  C
  C52      1.0000 0.18060  0.77730  0.13370  Biso   1.000  C
  H38      1.0000 0.11900  0.76970  0.20740  Biso   1.000  H
  H39      1.0000 0.26600  0.68250  0.25840  Biso   1.000  H
  H40      1.0000 0.17300  0.81560  0.06430  Biso   1.000  H
  C53      1.0000 0.85590  0.71150  0.88450  Biso   1.000  C
  H41      1.0000 0.86160  0.74160  0.96530  Biso   1.000  H
  C54      1.0000 0.88870  0.69610  0.79490  Biso   1.000  C
  H42      1.0000 0.91720  0.71770  0.81070  Biso   1.000  H
  C55      1.0000 0.83850  0.60850  0.66670  Biso   1.000  C
  H43      1.0000 0.83120  0.56820  0.60010  Biso   1.000  H
  C56      1.0000 0.80620  0.62930  0.76160  Biso   1.000  C
  H44      1.0000 0.77840  0.60260  0.75520  Biso   1.000  H
  C57      1.0000 0.18220  0.76740  0.65120  Biso   1.000  C
  H45      1.0000 0.17600  0.80140  0.57490  Biso   1.000  H
  C58      1.0000 0.21120  0.79400  0.73640  Biso   1.000  C
  H46      1.0000 0.22520  0.84570  0.71770  Biso   1.000  H
  C59      1.0000 0.20110  0.67160  0.86400  Biso   1.000  C
  H47      1.0000 0.20930  0.63690  0.93760  Biso   1.000  H
  C60      1.0000 0.17030  0.63950  0.78170  Biso   1.000  C
  H48      1.0000 0.15660  0.58710  0.79800  Biso   1.000  H
  N7       1.0000 0.18790  0.31830  0.85520  Biso   1.000  N
  N8       1.0000 0.27649  0.25060  0.14280  Biso   1.000  N
  C61      1.0000 0.17830  0.26470  0.26630  Biso   1.000  C
  C62      1.0000 0.16900  0.39460  0.15930  Biso   1.000  C
  H49      1.0000 0.19490  0.21490  0.27700  Biso   1.000  H
  C63      1.0000 0.14720  0.28270  0.36330  Biso   1.000  C
  C64      1.0000 0.13650  0.41330  0.24850  Biso   1.000  C
  H50      1.0000 0.17930  0.43830  0.10270  Biso   1.000  H
  C65      1.0000 0.12100  0.35850  0.33710  Biso   1.000  C
  H51      1.0000 0.14300  0.24890  0.44110  Biso   1.000  H
  H52      1.0000 0.12450  0.46800  0.24750  Biso   1.000  H
  C66      1.0000 0.08360  0.37630  0.43130  Biso   1.000  C
  S7       1.0000 0.03192  0.39933  0.34783  Biso   1.000  S
  S8       1.0000 0.92384  0.37880  0.34822  Biso   1.000  S
  C67      1.0000 0.87610  0.33560  0.43170  Biso   1.000  C
  C68      1.0000 0.84040  0.30770  0.33620  Biso   1.000  C
  C69      1.0000 0.79750  0.32580  0.34840  Biso   1.000  C
  C70      1.0000 0.85160  0.24880  0.21980  Biso   1.000  C
  H53      1.0000 0.78840  0.35710  0.42490  Biso   1.000  H
  C71      1.0000 0.76360  0.30000  0.24920  Biso   1.000  C
  C72      1.0000 0.81940  0.22270  0.13370  Biso   1.000  C
  H54      1.0000 0.88100  0.23030  0.20740  Biso   1.000  H
  H55      1.0000 0.73400  0.31750  0.25840  Biso   1.000  H
  H56      1.0000 0.82700  0.18440  0.06430  Biso   1.000  H
  C73      1.0000 0.14410  0.28850  0.88450  Biso   1.000  C
  H57      1.0000 0.13840  0.25840  0.96530  Biso   1.000  H
  C74      1.0000 0.11130  0.30390  0.79490  Biso   1.000  C
  H58      1.0000 0.08280  0.28230  0.81070  Biso   1.000  H
  C75      1.0000 0.16150  0.39150  0.66670  Biso   1.000  C
  H59      1.0000 0.16880  0.43180  0.60010  Biso   1.000  H
  C76      1.0000 0.19380  0.37070  0.76160  Biso   1.000  C
  H60      1.0000 0.22160  0.39740  0.75520  Biso   1.000  H
  C77      1.0000 0.81780  0.23260  0.65120  Biso   1.000  C
  H61      1.0000 0.82400  0.19860  0.57490  Biso   1.000  H
  C78      1.0000 0.78880  0.20600  0.73640  Biso   1.000  C
  H62      1.0000 0.77480  0.15430  0.71770  Biso   1.000  H
  C79      1.0000 0.79890  0.32840  0.86400  Biso   1.000  C
  H63      1.0000 0.79070  0.36310  0.93760  Biso   1.000  H
  C80      1.0000 0.82970  0.36050  0.78170  Biso   1.000  C
  H64      1.0000 0.84340  0.41290  0.79800  Biso   1.000  H
  N9       1.0000 0.31210  0.81830  0.85520  Biso   1.000  N
  N10      1.0000 0.22351  0.75060  0.14280  Biso   1.000  N
  C81      1.0000 0.32170  0.76470  0.26630  Biso   1.000  C
  C82      1.0000 0.33100  0.89460  0.15930  Biso   1.000  C
  H65      1.0000 0.30510  0.71490  0.27700  Biso   1.000  H
  C83      1.0000 0.35280  0.78270  0.36330  Biso   1.000  C
  C84      1.0000 0.36350  0.91330  0.24850  Biso   1.000  C
  H66      1.0000 0.32070  0.93830  0.10270  Biso   1.000  H
  C85      1.0000 0.37900  0.85850  0.33710  Biso   1.000  C
  H67      1.0000 0.35700  0.74890  0.44110  Biso   1.000  H
  H68      1.0000 0.37550  0.96800  0.24750  Biso   1.000  H
  C86      1.0000 0.41640  0.87630  0.43130  Biso   1.000  C
  S9       1.0000 0.46808  0.89933  0.34783  Biso   1.000  S
  S10      1.0000 0.57616  0.87880  0.34822  Biso   1.000  S
  C87      1.0000 0.62390  0.83560  0.43170  Biso   1.000  C
  C88      1.0000 0.65960  0.80770  0.33620  Biso   1.000  C
  C89      1.0000 0.70250  0.82580  0.34840  Biso   1.000  C
  C90      1.0000 0.64840  0.74880  0.21980  Biso   1.000  C
  H69      1.0000 0.71160  0.85710  0.42490  Biso   1.000  H
  C91      1.0000 0.73640  0.80000  0.24920  Biso   1.000  C
  C92      1.0000 0.68060  0.72270  0.13370  Biso   1.000  C
  H70      1.0000 0.61900  0.73030  0.20740  Biso   1.000  H
  H71      1.0000 0.76600  0.81750  0.25840  Biso   1.000  H
  H72      1.0000 0.67300  0.68440  0.06430  Biso   1.000  H
  C93      1.0000 0.35590  0.78850  0.88450  Biso   1.000  C
  H73      1.0000 0.36160  0.75840  0.96530  Biso   1.000  H
  C94      1.0000 0.38870  0.80390  0.79490  Biso   1.000  C
  H74      1.0000 0.41720  0.78230  0.81070  Biso   1.000  H
  C95      1.0000 0.33850  0.89150  0.66670  Biso   1.000  C
  H75      1.0000 0.33120  0.93180  0.60010  Biso   1.000  H
  C96      1.0000 0.30620  0.87070  0.76160  Biso   1.000  C
  H76      1.0000 0.27840  0.89740  0.75520  Biso   1.000  H
  C97      1.0000 0.68220  0.73260  0.65120  Biso   1.000  C
  H77      1.0000 0.67600  0.69860  0.57490  Biso   1.000  H
  C98      1.0000 0.71120  0.70600  0.73640  Biso   1.000  C
  H78      1.0000 0.72520  0.65430  0.71770  Biso   1.000  H
  C99      1.0000 0.70110  0.82840  0.86400  Biso   1.000  C
  H79      1.0000 0.70930  0.86310  0.93760  Biso   1.000  H
  C100     1.0000 0.67030  0.86050  0.78170  Biso   1.000  C
  H80      1.0000 0.65660  0.91290  0.79800  Biso   1.000  H
  N11      1.0000 0.68790  0.18170  0.85520  Biso   1.000  N
  N12      1.0000 0.77649  0.24940  0.14280  Biso   1.000  N
  C101     1.0000 0.67830  0.23530  0.26630  Biso   1.000  C
  C102     1.0000 0.66900  0.10540  0.15930  Biso   1.000  C
  H81      1.0000 0.69490  0.28510  0.27700  Biso   1.000  H
  C103     1.0000 0.64720  0.21730  0.36330  Biso   1.000  C
  C104     1.0000 0.63650  0.08670  0.24850  Biso   1.000  C
  H82      1.0000 0.67930  0.06170  0.10270  Biso   1.000  H
  C105     1.0000 0.62100  0.14150  0.33710  Biso   1.000  C
  H83      1.0000 0.64300  0.25110  0.44110  Biso   1.000  H
  H84      1.0000 0.62450  0.03200  0.24750  Biso   1.000  H
  C106     1.0000 0.58360  0.12370  0.43130  Biso   1.000  C
  S11      1.0000 0.53192  0.10067  0.34783  Biso   1.000  S
  S12      1.0000 0.42384  0.12120  0.34822  Biso   1.000  S
  C107     1.0000 0.37610  0.16440  0.43170  Biso   1.000  C
  C108     1.0000 0.34040  0.19230  0.33620  Biso   1.000  C
  C109     1.0000 0.29750  0.17420  0.34840  Biso   1.000  C
  C110     1.0000 0.35160  0.25120  0.21980  Biso   1.000  C
  H85      1.0000 0.28840  0.14290  0.42490  Biso   1.000  H
  C111     1.0000 0.26360  0.20000  0.24920  Biso   1.000  C
  C112     1.0000 0.31940  0.27730  0.13370  Biso   1.000  C
  H86      1.0000 0.38100  0.26970  0.20740  Biso   1.000  H
  H87      1.0000 0.23400  0.18250  0.25840  Biso   1.000  H
  H88      1.0000 0.32700  0.31560  0.06430  Biso   1.000  H
  C113     1.0000 0.64410  0.21150  0.88450  Biso   1.000  C
  H89      1.0000 0.63840  0.24160  0.96530  Biso   1.000  H
  C114     1.0000 0.61130  0.19610  0.79490  Biso   1.000  C
  H90      1.0000 0.58280  0.21770  0.81070  Biso   1.000  H
  C115     1.0000 0.66150  0.10850  0.66670  Biso   1.000  C
  H91      1.0000 0.66880  0.06820  0.60010  Biso   1.000  H
  C116     1.0000 0.69380  0.12930  0.76160  Biso   1.000  C
  H92      1.0000 0.72160  0.10260  0.75520  Biso   1.000  H
  C117     1.0000 0.31780  0.26740  0.65120  Biso   1.000  C
  H93      1.0000 0.32400  0.30140  0.57490  Biso   1.000  H
  C118     1.0000 0.28880  0.29400  0.73640  Biso   1.000  C
  H94      1.0000 0.27480  0.34570  0.71770  Biso   1.000  H
  C119     1.0000 0.29890  0.17160  0.86400  Biso   1.000  C
  H95      1.0000 0.29070  0.13690  0.93760  Biso   1.000  H
  C120     1.0000 0.32970  0.13950  0.78170  Biso   1.000  C
  H96      1.0000 0.34340  0.08710  0.79800  Biso   1.000  H
  N13      1.0000 0.18790  0.31830  0.14480  Biso   1.000  N
  N14      1.0000 0.27649  0.25060  0.85720  Biso   1.000  N
  C121     1.0000 0.17830  0.26470  0.73370  Biso   1.000  C
  C122     1.0000 0.16900  0.39460  0.84070  Biso   1.000  C
  H97      1.0000 0.19490  0.21490  0.72300  Biso   1.000  H
  C123     1.0000 0.14720  0.28270  0.63670  Biso   1.000  C
  C124     1.0000 0.13650  0.41330  0.75150  Biso   1.000  C
  H98      1.0000 0.17930  0.43830  0.89730  Biso   1.000  H
  C125     1.0000 0.12100  0.35850  0.66290  Biso   1.000  C
  H99      1.0000 0.14300  0.24890  0.55890  Biso   1.000  H
  H100     1.0000 0.12450  0.46800  0.75250  Biso   1.000  H
  C126     1.0000 0.08360  0.37630  0.56870  Biso   1.000  C
  S13      1.0000 0.03192  0.39933  0.65217  Biso   1.000  S
  S14      1.0000 0.92384  0.37880  0.65178  Biso   1.000  S
  C127     1.0000 0.87610  0.33560  0.56830  Biso   1.000  C
  C128     1.0000 0.84040  0.30770  0.66380  Biso   1.000  C
  C129     1.0000 0.79750  0.32580  0.65160  Biso   1.000  C
  C130     1.0000 0.85160  0.24880  0.78020  Biso   1.000  C
  H101     1.0000 0.78840  0.35710  0.57510  Biso   1.000  H
  C131     1.0000 0.76360  0.30000  0.75080  Biso   1.000  C
  C132     1.0000 0.81940  0.22270  0.86630  Biso   1.000  C
  H102     1.0000 0.88100  0.23030  0.79260  Biso   1.000  H
  H103     1.0000 0.73400  0.31750  0.74160  Biso   1.000  H
  H104     1.0000 0.82700  0.18440  0.93570  Biso   1.000  H
  C133     1.0000 0.14410  0.28850  0.11550  Biso   1.000  C
  H105     1.0000 0.13840  0.25840  0.03470  Biso   1.000  H
  C134     1.0000 0.11130  0.30390  0.20510  Biso   1.000  C
  H106     1.0000 0.08280  0.28230  0.18930  Biso   1.000  H
  C135     1.0000 0.16150  0.39150  0.33330  Biso   1.000  C
  H107     1.0000 0.16880  0.43180  0.39990  Biso   1.000  H
  C136     1.0000 0.19380  0.37070  0.23840  Biso   1.000  C
  H108     1.0000 0.22160  0.39740  0.24480  Biso   1.000  H
  C137     1.0000 0.81780  0.23260  0.34880  Biso   1.000  C
  H109     1.0000 0.82400  0.19860  0.42510  Biso   1.000  H
  C138     1.0000 0.78880  0.20600  0.26360  Biso   1.000  C
  H110     1.0000 0.77480  0.15430  0.28230  Biso   1.000  H
  C139     1.0000 0.79890  0.32840  0.13600  Biso   1.000  C
  H111     1.0000 0.79070  0.36310  0.06240  Biso   1.000  H
  C140     1.0000 0.82970  0.36050  0.21830  Biso   1.000  C
  H112     1.0000 0.84340  0.41290  0.20200  Biso   1.000  H
  N15      1.0000 0.81210  0.68170  0.14480  Biso   1.000  N
  N16      1.0000 0.72351  0.74940  0.85720  Biso   1.000  N
  C141     1.0000 0.82170  0.73530  0.73370  Biso   1.000  C
  C142     1.0000 0.83100  0.60540  0.84070  Biso   1.000  C
  H113     1.0000 0.80510  0.78510  0.72300  Biso   1.000  H
  C143     1.0000 0.85280  0.71730  0.63670  Biso   1.000  C
  C144     1.0000 0.86350  0.58670  0.75150  Biso   1.000  C
  H114     1.0000 0.82070  0.56170  0.89730  Biso   1.000  H
  C145     1.0000 0.87900  0.64150  0.66290  Biso   1.000  C
  H115     1.0000 0.85700  0.75110  0.55890  Biso   1.000  H
  H116     1.0000 0.87550  0.53200  0.75250  Biso   1.000  H
  C146     1.0000 0.91640  0.62370  0.56870  Biso   1.000  C
  S15      1.0000 0.96808  0.60067  0.65217  Biso   1.000  S
  S16      1.0000 0.07616  0.62120  0.65178  Biso   1.000  S
  C147     1.0000 0.12390  0.66440  0.56830  Biso   1.000  C
  C148     1.0000 0.15960  0.69230  0.66380  Biso   1.000  C
  C149     1.0000 0.20250  0.67420  0.65160  Biso   1.000  C
  C150     1.0000 0.14840  0.75120  0.78020  Biso   1.000  C
  H117     1.0000 0.21160  0.64290  0.57510  Biso   1.000  H
  C151     1.0000 0.23640  0.70000  0.75080  Biso   1.000  C
  C152     1.0000 0.18060  0.77730  0.86630  Biso   1.000  C
  H118     1.0000 0.11900  0.76970  0.79260  Biso   1.000  H
  H119     1.0000 0.26600  0.68250  0.74160  Biso   1.000  H
  H120     1.0000 0.17300  0.81560  0.93570  Biso   1.000  H
  C153     1.0000 0.85590  0.71150  0.11550  Biso   1.000  C
  H121     1.0000 0.86160  0.74160  0.03470  Biso   1.000  H
  C154     1.0000 0.88870  0.69610  0.20510  Biso   1.000  C
  H122     1.0000 0.91720  0.71770  0.18930  Biso   1.000  H
  C155     1.0000 0.83850  0.60850  0.33330  Biso   1.000  C
  H123     1.0000 0.83120  0.56820  0.39990  Biso   1.000  H
  C156     1.0000 0.80620  0.62930  0.23840  Biso   1.000  C
  H124     1.0000 0.77840  0.60260  0.24480  Biso   1.000  H
  C157     1.0000 0.18220  0.76740  0.34880  Biso   1.000  C
  H125     1.0000 0.17600  0.80140  0.42510  Biso   1.000  H
  C158     1.0000 0.21120  0.79400  0.26360  Biso   1.000  C
  H126     1.0000 0.22520  0.84570  0.28230  Biso   1.000  H
  C159     1.0000 0.20110  0.67160  0.13600  Biso   1.000  C
  H127     1.0000 0.20930  0.63690  0.06240  Biso   1.000  H
  C160     1.0000 0.17030  0.63950  0.21830  Biso   1.000  C
  H128     1.0000 0.15660  0.58710  0.20200  Biso   1.000  H
  Fe1      1.0000 0.73235  0.21474  0.00000  Biso   1.000  Fe
  N17      1.0000 0.75910  0.10170  0.00000  Biso   1.000  N
  N18      1.0000 0.70860  0.33120  0.00000  Biso   1.000  N
  C161     1.0000 0.78080  0.04380  0.00000  Biso   1.000  C
  N19      1.0000 0.81150  0.98110  0.00000  Biso   1.000  N
  C162     1.0000 0.79830  0.90280  0.00000  Biso   1.000  C
  Fe2      1.0000 0.26765  0.78526  0.00000  Biso   1.000  Fe
  N20      1.0000 0.24090  0.89830  0.00000  Biso   1.000  N
  N21      1.0000 0.29140  0.66880  0.00000  Biso   1.000  N
  C163     1.0000 0.21920  0.95620  0.00000  Biso   1.000  C
  N22      1.0000 0.18850  0.01890  0.00000  Biso   1.000  N
  C164     1.0000 0.20170  0.09720  0.00000  Biso   1.000  C
  Fe3      1.0000 0.76765  0.71474  0.00000  Biso   1.000  Fe
  N23      1.0000 0.74090  0.60170  0.00000  Biso   1.000  N
  N24      1.0000 0.79140  0.83120  0.00000  Biso   1.000  N
  C165     1.0000 0.71920  0.54380  0.00000  Biso   1.000  C
  N25      1.0000 0.68850  0.48110  0.00000  Biso   1.000  N
  C166     1.0000 0.70170  0.40280  0.00000  Biso   1.000  C
  Fe4      1.0000 0.23235  0.28526  0.00000  Biso   1.000  Fe
  N26      1.0000 0.25910  0.39830  0.00000  Biso   1.000  N
  N27      1.0000 0.20860  0.16880  0.00000  Biso   1.000  N
  C167     1.0000 0.28080  0.45620  0.00000  Biso   1.000  C
  N28      1.0000 0.31150  0.51890  0.00000  Biso   1.000  N
  C168     1.0000 0.29830  0.59720  0.00000  Biso   1.000  C
  C169     1.0000 0.50020  0.10650  0.50000  Biso   1.000  C
  C170     1.0000 0.45500  0.11410  0.50000  Biso   1.000  C
  C171     1.0000 0.49980  0.89350  0.50000  Biso   1.000  C
  C172     1.0000 0.54500  0.88590  0.50000  Biso   1.000  C
  C173     1.0000 0.99980  0.60650  0.50000  Biso   1.000  C
  C174     1.0000 0.04500  0.61410  0.50000  Biso   1.000  C
  C175     1.0000 0.00020  0.39350  0.50000  Biso   1.000  C
  C176     1.0000 0.95500  0.38590  0.50000  Biso   1.000  C
