data_image0
_cell_length_a       49.4418
_cell_length_b       49.4418
_cell_length_c       10.0065
_cell_angle_alpha    90
_cell_angle_beta     90
_cell_angle_gamma    120

_symmetry_space_group_name_H-M    "P 1"
_symmetry_int_tables_number       1

loop_
  _symmetry_equiv_pos_as_xyz
  'x, y, z'

loop_
  _atom_site_label
  _atom_site_occupancy
  _atom_site_fract_x
  _atom_site_fract_y
  _atom_site_fract_z
  _atom_site_thermal_displace_type
  _atom_site_B_iso_or_equiv
  _atom_site_type_symbol
  In1      1.0000 0.20688  0.79316  0.50006  Biso   1.000  In
  In2      1.0000 0.00005  0.64120  0.49991  Biso   1.000  In
  In3      1.0000 0.15873  0.57936  0.49949  Biso   1.000  In
  Mn1      1.0000 0.06563  0.82027  0.18270  Biso   1.000  Mn
  Mn2      1.0000 0.06562  0.82034  0.81720  Biso   1.000  Mn
  Mn3      1.0000 0.17973  0.93422  0.18280  Biso   1.000  Mn
  Mn4      1.0000 0.17980  0.93449  0.81770  Biso   1.000  Mn
  O1       1.0000 0.99977  0.63604  0.26080  Biso   1.000  O
  O2       1.0000 0.18680  0.81210  0.64790  Biso   1.000  O
  O3       1.0000 0.29420  0.64940  0.89860  Biso   1.000  O
  O4       1.0000 0.29270  0.64903  0.11610  Biso   1.000  O
  O5       1.0000 0.99990  0.67670  0.35610  Biso   1.000  O
  O6       1.0000 0.21070  0.78960  0.74510  Biso   1.000  O
  O7       1.0000 0.21050  0.78940  0.25880  Biso   1.000  O
  O8       1.0000 0.00020  0.63658  0.73960  Biso   1.000  O
  O9       1.0000 0.15140  0.57610  0.75190  Biso   1.000  O
  O10      1.0000 0.18720  0.81260  0.35170  Biso   1.000  O
  O11      1.0000 0.11940  0.59160  0.50060  Biso   1.000  O
  O12      1.0000 0.40790  0.87990  0.50080  Biso   1.000  O
  O13      1.0000 0.15170  0.57580  0.24130  Biso   1.000  O
  O14      1.0000 0.19550  0.74280  0.49960  Biso   1.000  O
  O15      1.0000 0.24760  0.84110  0.49560  Biso   1.000  O
  O16      1.0000 0.15860  0.75230  0.49970  Biso   1.000  O
  O17      1.0000 0.03385  0.62182  0.49890  Biso   1.000  O
  O18      1.0000 0.25730  0.80470  0.49860  Biso   1.000  O
  O19      1.0000 0.37773  0.96504  0.49930  Biso   1.000  O
  O20      1.0000 0.16650  0.62690  0.49750  Biso   1.000  O
  O21      1.0000 0.37270  0.83320  0.49890  Biso   1.000  O
  O22      1.0000 0.05140  0.67330  0.49970  Biso   1.000  O
  O23      1.0000 0.00010  0.67670  0.64420  Biso   1.000  O
  O24      1.0000 0.32710  0.94840  0.49850  Biso   1.000  O
  O25      1.0000 0.20210  0.60110  0.35150  Biso   1.000  O
  O26      1.0000 0.20120  0.60020  0.63230  Biso   1.000  O
  O27      1.0000 0.05980  0.83800  0.99990  Biso   1.000  O
  O28      1.0000 0.16200  0.94040  0.99690  Biso   1.000  O
  O29      1.0000 0.03480  0.77300  0.11410  Biso   1.000  O
  O30      1.0000 0.03540  0.77220  0.88400  Biso   1.000  O
  O31      1.0000 0.96150  0.73580  0.88400  Biso   1.000  O
  O32      1.0000 0.96330  0.73630  0.11700  Biso   1.000  O
  O33      1.0000 0.10740  0.82300  0.88410  Biso   1.000  O
  O34      1.0000 0.17790  0.89410  0.87700  Biso   1.000  O
  O35      1.0000 0.13050  0.90010  0.09920  Biso   1.000  O
  O36      1.0000 0.10910  0.82480  0.11300  Biso   1.000  O
  O37      1.0000 0.10030  0.86950  0.10010  Biso   1.000  O
  O38      1.0000 0.17750  0.89370  0.11400  Biso   1.000  O
  C1       1.0000 0.18370  0.59260  0.26200  Biso   1.000  C
  C2       1.0000 0.19720  0.59840  0.12550  Biso   1.000  C
  C3       1.0000 0.23100  0.61450  0.11670  Biso   1.000  C
  C4       1.0000 0.24770  0.62240  0.99060  Biso   1.000  C
  C5       1.0000 0.22810  0.61300  0.87250  Biso   1.000  C
  C6       1.0000 0.19420  0.59690  0.86890  Biso   1.000  C
  C7       1.0000 0.18010  0.59020  0.00050  Biso   1.000  C
  C8       1.0000 0.28140  0.63840  0.00600  Biso   1.000  C
  C9       1.0000 0.18660  0.59380  0.72790  Biso   1.000  C
  C10      1.0000 0.13170  0.64570  0.49710  Biso   1.000  C
  C11      1.0000 0.33890  0.90650  0.50160  Biso   1.000  C
  C12      1.0000 0.14080  0.69590  0.49740  Biso   1.000  C
  C13      1.0000 0.19580  0.80420  0.25180  Biso   1.000  C
  C14      1.0000 0.19670  0.80370  0.75630  Biso   1.000  C
  C15      1.0000 0.00000  0.66150  0.24360  Biso   1.000  C
  C16      1.0000 0.30450  0.85940  0.50090  Biso   1.000  C
  C17      1.0000 0.09400  0.66180  0.50160  Biso   1.000  C
  C18      1.0000 0.36510  0.89960  0.50090  Biso   1.000  C
  C19      1.0000 0.35290  0.86840  0.49510  Biso   1.000  C
  C20      1.0000 0.10030  0.63470  0.50480  Biso   1.000  C
  C21      1.0000 0.35020  0.94380  0.49850  Biso   1.000  C
  C22      1.0000 0.05560  0.64980  0.50030  Biso   1.000  C
  C23      1.0000 0.32570  0.84780  0.49640  Biso   1.000  C
  C24      1.0000 0.15220  0.67320  0.49860  Biso   1.000  C
  C25      1.0000 0.13800  0.62100  0.50270  Biso   1.000  C
  C26      1.0000 0.16840  0.73410  0.49340  Biso   1.000  C
  C27      1.0000 0.37910  0.86100  0.50140  Biso   1.000  C
  C28      1.0000 0.26560  0.83110  0.49320  Biso   1.000  C
  C29      1.0000 0.31110  0.88790  0.50240  Biso   1.000  C
  C30      1.0000 0.11180  0.68850  0.50060  Biso   1.000  C
  C31      1.0000 0.99980  0.66140  0.75590  Biso   1.000  C
  C32      1.0000 0.99990  0.65910  0.99790  Biso   1.000  C
  C33      1.0000 0.19470  0.80460  0.00280  Biso   1.000  C
  C34      1.0000 0.18920  0.81510  0.86400  Biso   1.000  C
  C35      1.0000 0.18870  0.81560  0.13000  Biso   1.000  C
  C36      1.0000 0.98870  0.66750  0.12400  Biso   1.000  C
  C37      1.0000 0.01390  0.67960  0.11700  Biso   1.000  C
  C38      1.0000 0.98160  0.68880  0.13800  Biso   1.000  C
  C39      1.0000 0.02090  0.71180  0.13100  Biso   1.000  C
  C40      1.0000 0.98710  0.66660  0.88300  Biso   1.000  C
  C41      1.0000 0.01360  0.67920  0.88200  Biso   1.000  C
  C42      1.0000 0.02030  0.71100  0.86800  Biso   1.000  C
  C43      1.0000 0.98020  0.69000  0.87200  Biso   1.000  C
  C44      1.0000 0.16130  0.81750  0.12700  Biso   1.000  C
  C45      1.0000 0.18420  0.84090  0.12300  Biso   1.000  C
  C46      1.0000 0.16060  0.81650  0.86800  Biso   1.000  C
  C47      1.0000 0.18320  0.84110  0.87100  Biso   1.000  C
  C48      1.0000 0.96090  0.72090  0.97800  Biso   1.000  C
  C49      1.0000 0.04200  0.75930  0.02400  Biso   1.000  C
  C50      1.0000 0.97270  0.69960  0.99700  Biso   1.000  C
  C51      1.0000 0.02570  0.72590  0.00200  Biso   1.000  C
  C52      1.0000 0.16570  0.86970  0.00000  Biso   1.000  C
  C53      1.0000 0.12930  0.83510  0.99900  Biso   1.000  C
  C54      1.0000 0.14480  0.82070  0.00300  Biso   1.000  C
  C55      1.0000 0.18150  0.85460  0.00400  Biso   1.000  C
  In4      1.0000 0.20684  0.41372  0.50006  Biso   1.000  In
  In5      1.0000 0.35880  0.35885  0.49991  Biso   1.000  In
  In6      1.0000 0.42064  0.57937  0.49949  Biso   1.000  In
  Mn5      1.0000 0.17973  0.24536  0.18270  Biso   1.000  Mn
  Mn6      1.0000 0.17966  0.24528  0.81720  Biso   1.000  Mn
  Mn7      1.0000 0.06578  0.24551  0.18280  Biso   1.000  Mn
  Mn8      1.0000 0.06551  0.24531  0.81770  Biso   1.000  Mn
  O39      1.0000 0.36396  0.36373  0.26080  Biso   1.000  O
  O40      1.0000 0.18790  0.37470  0.64790  Biso   1.000  O
  O41      1.0000 0.35060  0.64480  0.89860  Biso   1.000  O
  O42      1.0000 0.35097  0.64367  0.11610  Biso   1.000  O
  O43      1.0000 0.32330  0.32320  0.35610  Biso   1.000  O
  O44      1.0000 0.21040  0.42110  0.74510  Biso   1.000  O
  O45      1.0000 0.21060  0.42110  0.25880  Biso   1.000  O
  O46      1.0000 0.36342  0.36362  0.73960  Biso   1.000  O
  O47      1.0000 0.42390  0.57530  0.75190  Biso   1.000  O
  O48      1.0000 0.18740  0.37460  0.35170  Biso   1.000  O
  O49      1.0000 0.40840  0.52780  0.50060  Biso   1.000  O
  O50      1.0000 0.12010  0.52800  0.50080  Biso   1.000  O
  O51      1.0000 0.42420  0.57590  0.24130  Biso   1.000  O
  O52      1.0000 0.25720  0.45270  0.49960  Biso   1.000  O
  O53      1.0000 0.15890  0.40650  0.49560  Biso   1.000  O
  O54      1.0000 0.24770  0.40630  0.49970  Biso   1.000  O
  O55      1.0000 0.37818  0.41203  0.49890  Biso   1.000  O
  O56      1.0000 0.19530  0.45260  0.49860  Biso   1.000  O
  O57      1.0000 0.03496  0.41269  0.49930  Biso   1.000  O
  O58      1.0000 0.37310  0.53960  0.49750  Biso   1.000  O
  O59      1.0000 0.16680  0.53950  0.49890  Biso   1.000  O
  O60      1.0000 0.32670  0.37810  0.49970  Biso   1.000  O
  O61      1.0000 0.32330  0.32340  0.64420  Biso   1.000  O
  O62      1.0000 0.05160  0.37870  0.49850  Biso   1.000  O
  O63      1.0000 0.39890  0.60100  0.35150  Biso   1.000  O
  O64      1.0000 0.39980  0.60100  0.63230  Biso   1.000  O
  O65      1.0000 0.16200  0.22180  0.99990  Biso   1.000  O
  O66      1.0000 0.05960  0.22160  0.99690  Biso   1.000  O
  O67      1.0000 0.22700  0.26180  0.11410  Biso   1.000  O
  O68      1.0000 0.22780  0.26320  0.88400  Biso   1.000  O
  O69      1.0000 0.26420  0.22570  0.88400  Biso   1.000  O
  O70      1.0000 0.26370  0.22700  0.11700  Biso   1.000  O
  O71      1.0000 0.17700  0.28440  0.88410  Biso   1.000  O
  O72      1.0000 0.10590  0.28380  0.87700  Biso   1.000  O
  O73      1.0000 0.09990  0.23040  0.09920  Biso   1.000  O
  O74      1.0000 0.17520  0.28430  0.11300  Biso   1.000  O
  O75      1.0000 0.13050  0.23080  0.10010  Biso   1.000  O
  O76      1.0000 0.10630  0.28380  0.11400  Biso   1.000  O
  C56      1.0000 0.40740  0.59110  0.26200  Biso   1.000  C
  C57      1.0000 0.40160  0.59880  0.12550  Biso   1.000  C
  C58      1.0000 0.38550  0.61650  0.11670  Biso   1.000  C
  C59      1.0000 0.37760  0.62530  0.99060  Biso   1.000  C
  C60      1.0000 0.38700  0.61510  0.87250  Biso   1.000  C
  C61      1.0000 0.40310  0.59730  0.86890  Biso   1.000  C
  C62      1.0000 0.40980  0.58990  0.00050  Biso   1.000  C
  C63      1.0000 0.36160  0.64300  0.00600  Biso   1.000  C
  C64      1.0000 0.40620  0.59280  0.72790  Biso   1.000  C
  C65      1.0000 0.35430  0.48600  0.49710  Biso   1.000  C
  C66      1.0000 0.09350  0.43240  0.50160  Biso   1.000  C
  C67      1.0000 0.30410  0.44490  0.49740  Biso   1.000  C
  C68      1.0000 0.19580  0.39160  0.25180  Biso   1.000  C
  C69      1.0000 0.19630  0.39300  0.75630  Biso   1.000  C
  C70      1.0000 0.33850  0.33850  0.24360  Biso   1.000  C
  C71      1.0000 0.14060  0.44510  0.50090  Biso   1.000  C
  C72      1.0000 0.33820  0.43220  0.50160  Biso   1.000  C
  C73      1.0000 0.10040  0.46550  0.50090  Biso   1.000  C
  C74      1.0000 0.13160  0.48450  0.49510  Biso   1.000  C
  C75      1.0000 0.36530  0.46560  0.50480  Biso   1.000  C
  C76      1.0000 0.05620  0.40640  0.49850  Biso   1.000  C
  C77      1.0000 0.35020  0.40580  0.50030  Biso   1.000  C
  C78      1.0000 0.15220  0.47790  0.49640  Biso   1.000  C
  C79      1.0000 0.32680  0.47900  0.49860  Biso   1.000  C
  C80      1.0000 0.37900  0.51700  0.50270  Biso   1.000  C
  C81      1.0000 0.26590  0.43430  0.49340  Biso   1.000  C
  C82      1.0000 0.13900  0.51810  0.50140  Biso   1.000  C
  C83      1.0000 0.16890  0.43450  0.49320  Biso   1.000  C
  C84      1.0000 0.11210  0.42320  0.50240  Biso   1.000  C
  C85      1.0000 0.31150  0.42330  0.50060  Biso   1.000  C
  C86      1.0000 0.33860  0.33840  0.75590  Biso   1.000  C
  C87      1.0000 0.34090  0.34080  0.99790  Biso   1.000  C
  C88      1.0000 0.19540  0.39010  0.00280  Biso   1.000  C
  C89      1.0000 0.18490  0.37410  0.86400  Biso   1.000  C
  C90      1.0000 0.18440  0.37310  0.13000  Biso   1.000  C
  C91      1.0000 0.33250  0.32120  0.12400  Biso   1.000  C
  C92      1.0000 0.32040  0.33430  0.11700  Biso   1.000  C
  C93      1.0000 0.31120  0.29280  0.13800  Biso   1.000  C
  C94      1.0000 0.28820  0.30910  0.13100  Biso   1.000  C
  C95      1.0000 0.33340  0.32050  0.88300  Biso   1.000  C
  C96      1.0000 0.32080  0.33440  0.88200  Biso   1.000  C
  C97      1.0000 0.28900  0.30930  0.86800  Biso   1.000  C
  C98      1.0000 0.31000  0.29020  0.87200  Biso   1.000  C
  C99      1.0000 0.18250  0.34380  0.12700  Biso   1.000  C
  C100     1.0000 0.15910  0.34330  0.12300  Biso   1.000  C
  C101     1.0000 0.18350  0.34410  0.86800  Biso   1.000  C
  C102     1.0000 0.15890  0.34210  0.87100  Biso   1.000  C
  C103     1.0000 0.27910  0.24000  0.97800  Biso   1.000  C
  C104     1.0000 0.24070  0.28270  0.02400  Biso   1.000  C
  C105     1.0000 0.30040  0.27310  0.99700  Biso   1.000  C
  C106     1.0000 0.27410  0.29980  0.00200  Biso   1.000  C
  C107     1.0000 0.13030  0.29600  0.00000  Biso   1.000  C
  C108     1.0000 0.16490  0.29420  0.99900  Biso   1.000  C
  C109     1.0000 0.17930  0.32410  0.00300  Biso   1.000  C
  C110     1.0000 0.14540  0.32690  0.00400  Biso   1.000  C
  In7      1.0000 0.58628  0.79312  0.50006  Biso   1.000  In
  In8      1.0000 0.64115  0.99995  0.49991  Biso   1.000  In
  In9      1.0000 0.42063  0.84127  0.49949  Biso   1.000  In
  Mn9      1.0000 0.75464  0.93437  0.18270  Biso   1.000  Mn
  Mn10     1.0000 0.75472  0.93438  0.81720  Biso   1.000  Mn
  Mn11     1.0000 0.75449  0.82027  0.18280  Biso   1.000  Mn
  Mn12     1.0000 0.75469  0.82020  0.81770  Biso   1.000  Mn
  O77      1.0000 0.63627  0.00023  0.26080  Biso   1.000  O
  O78      1.0000 0.62530  0.81320  0.64790  Biso   1.000  O
  O79      1.0000 0.35520  0.70580  0.89860  Biso   1.000  O
  O80      1.0000 0.35633  0.70730  0.11610  Biso   1.000  O
  O81      1.0000 0.67680  0.00010  0.35610  Biso   1.000  O
  O82      1.0000 0.57890  0.78930  0.74510  Biso   1.000  O
  O83      1.0000 0.57890  0.78950  0.25880  Biso   1.000  O
  O84      1.0000 0.63638  0.99980  0.73960  Biso   1.000  O
  O85      1.0000 0.42470  0.84860  0.75190  Biso   1.000  O
  O86      1.0000 0.62540  0.81280  0.35170  Biso   1.000  O
  O87      1.0000 0.47220  0.88060  0.50060  Biso   1.000  O
  O88      1.0000 0.47200  0.59210  0.50080  Biso   1.000  O
  O89      1.0000 0.42410  0.84830  0.24130  Biso   1.000  O
  O90      1.0000 0.54730  0.80450  0.49960  Biso   1.000  O
  O91      1.0000 0.59350  0.75240  0.49560  Biso   1.000  O
  O92      1.0000 0.59370  0.84140  0.49970  Biso   1.000  O
  O93      1.0000 0.58797  0.96615  0.49890  Biso   1.000  O
  O94      1.0000 0.54740  0.74270  0.49860  Biso   1.000  O
  O95      1.0000 0.58731  0.62227  0.49930  Biso   1.000  O
  O96      1.0000 0.46040  0.83350  0.49750  Biso   1.000  O
  O97      1.0000 0.46050  0.62730  0.49890  Biso   1.000  O
  O98      1.0000 0.62190  0.94860  0.49970  Biso   1.000  O
  O99      1.0000 0.67660  0.99990  0.64420  Biso   1.000  O
  O100     1.0000 0.62130  0.67290  0.49850  Biso   1.000  O
  O101     1.0000 0.39900  0.79790  0.35150  Biso   1.000  O
  O102     1.0000 0.39900  0.79880  0.63230  Biso   1.000  O
  O103     1.0000 0.77820  0.94020  0.99990  Biso   1.000  O
  O104     1.0000 0.77840  0.83800  0.99690  Biso   1.000  O
  O105     1.0000 0.73820  0.96520  0.11410  Biso   1.000  O
  O106     1.0000 0.73680  0.96460  0.88400  Biso   1.000  O
  O107     1.0000 0.77430  0.03850  0.88400  Biso   1.000  O
  O108     1.0000 0.77300  0.03670  0.11700  Biso   1.000  O
  O109     1.0000 0.71560  0.89260  0.88410  Biso   1.000  O
  O110     1.0000 0.71620  0.82210  0.87700  Biso   1.000  O
  O111     1.0000 0.76960  0.86950  0.09920  Biso   1.000  O
  O112     1.0000 0.71570  0.89090  0.11300  Biso   1.000  O
  O113     1.0000 0.76920  0.89970  0.10010  Biso   1.000  O
  O114     1.0000 0.71620  0.82250  0.11400  Biso   1.000  O
  C111     1.0000 0.40890  0.81630  0.26200  Biso   1.000  C
  C112     1.0000 0.40120  0.80280  0.12550  Biso   1.000  C
  C113     1.0000 0.38350  0.76900  0.11670  Biso   1.000  C
  C114     1.0000 0.37470  0.75230  0.99060  Biso   1.000  C
  C115     1.0000 0.38490  0.77190  0.87250  Biso   1.000  C
  C116     1.0000 0.40270  0.80580  0.86890  Biso   1.000  C
  C117     1.0000 0.41010  0.81990  0.00050  Biso   1.000  C
  C118     1.0000 0.35700  0.71860  0.00600  Biso   1.000  C
  C119     1.0000 0.40720  0.81340  0.72790  Biso   1.000  C
  C120     1.0000 0.51400  0.86830  0.49710  Biso   1.000  C
  C121     1.0000 0.56760  0.66110  0.50160  Biso   1.000  C
  C122     1.0000 0.55510  0.85920  0.49740  Biso   1.000  C
  C123     1.0000 0.60840  0.80420  0.25180  Biso   1.000  C
  C124     1.0000 0.60700  0.80330  0.75630  Biso   1.000  C
  C125     1.0000 0.66150  0.00000  0.24360  Biso   1.000  C
  C126     1.0000 0.55490  0.69550  0.50090  Biso   1.000  C
  C127     1.0000 0.56780  0.90600  0.50160  Biso   1.000  C
  C128     1.0000 0.53450  0.63490  0.50090  Biso   1.000  C
  C129     1.0000 0.51550  0.64710  0.49510  Biso   1.000  C
  C130     1.0000 0.53440  0.89970  0.50480  Biso   1.000  C
  C131     1.0000 0.59360  0.64980  0.49850  Biso   1.000  C
  C132     1.0000 0.59420  0.94440  0.50030  Biso   1.000  C
  C133     1.0000 0.52210  0.67430  0.49640  Biso   1.000  C
  C134     1.0000 0.52100  0.84780  0.49860  Biso   1.000  C
  C135     1.0000 0.48300  0.86200  0.50270  Biso   1.000  C
  C136     1.0000 0.56570  0.83160  0.49340  Biso   1.000  C
  C137     1.0000 0.48190  0.62090  0.50140  Biso   1.000  C
  C138     1.0000 0.56550  0.73440  0.49320  Biso   1.000  C
  C139     1.0000 0.57680  0.68890  0.50240  Biso   1.000  C
  C140     1.0000 0.57670  0.88820  0.50060  Biso   1.000  C
  C141     1.0000 0.66160  0.00020  0.75590  Biso   1.000  C
  C142     1.0000 0.65920  0.00010  0.99790  Biso   1.000  C
  C143     1.0000 0.60990  0.80530  0.00280  Biso   1.000  C
  C144     1.0000 0.62590  0.81080  0.86400  Biso   1.000  C
  C145     1.0000 0.62690  0.81130  0.13000  Biso   1.000  C
  C146     1.0000 0.67880  0.01130  0.12400  Biso   1.000  C
  C147     1.0000 0.66570  0.98610  0.11700  Biso   1.000  C
  C148     1.0000 0.70720  0.01840  0.13800  Biso   1.000  C
  C149     1.0000 0.69090  0.97910  0.13100  Biso   1.000  C
  C150     1.0000 0.67950  0.01290  0.88300  Biso   1.000  C
  C151     1.0000 0.66560  0.98640  0.88200  Biso   1.000  C
  C152     1.0000 0.69070  0.97970  0.86800  Biso   1.000  C
  C153     1.0000 0.70980  0.01980  0.87200  Biso   1.000  C
  C154     1.0000 0.65620  0.83870  0.12700  Biso   1.000  C
  C155     1.0000 0.65670  0.81580  0.12300  Biso   1.000  C
  C156     1.0000 0.65590  0.83940  0.86800  Biso   1.000  C
  C157     1.0000 0.65790  0.81680  0.87100  Biso   1.000  C
  C158     1.0000 0.76000  0.03910  0.97800  Biso   1.000  C
  C159     1.0000 0.71730  0.95800  0.02400  Biso   1.000  C
  C160     1.0000 0.72690  0.02730  0.99700  Biso   1.000  C
  C161     1.0000 0.70020  0.97430  0.00200  Biso   1.000  C
  C162     1.0000 0.70400  0.83430  0.00000  Biso   1.000  C
  C163     1.0000 0.70580  0.87070  0.99900  Biso   1.000  C
  C164     1.0000 0.67590  0.85520  0.00300  Biso   1.000  C
  C165     1.0000 0.67310  0.81850  0.00400  Biso   1.000  C
  In10     1.0000 0.79312  0.20684  0.49994  Biso   1.000  In
  In11     1.0000 0.99995  0.35880  0.50009  Biso   1.000  In
  In12     1.0000 0.84127  0.42064  0.50051  Biso   1.000  In
  Mn13     1.0000 0.93437  0.17973  0.81730  Biso   1.000  Mn
  Mn14     1.0000 0.93438  0.17966  0.18280  Biso   1.000  Mn
  Mn15     1.0000 0.82027  0.06578  0.81720  Biso   1.000  Mn
  Mn16     1.0000 0.82020  0.06551  0.18230  Biso   1.000  Mn
  O115     1.0000 0.00023  0.36396  0.73920  Biso   1.000  O
  O116     1.0000 0.81320  0.18790  0.35210  Biso   1.000  O
  O117     1.0000 0.70580  0.35060  0.10140  Biso   1.000  O
  O118     1.0000 0.70730  0.35097  0.88390  Biso   1.000  O
  O119     1.0000 0.00010  0.32330  0.64390  Biso   1.000  O
  O120     1.0000 0.78930  0.21040  0.25490  Biso   1.000  O
  O121     1.0000 0.78950  0.21060  0.74120  Biso   1.000  O
  O122     1.0000 0.99980  0.36342  0.26040  Biso   1.000  O
  O123     1.0000 0.84860  0.42390  0.24810  Biso   1.000  O
  O124     1.0000 0.81280  0.18740  0.64830  Biso   1.000  O
  O125     1.0000 0.88060  0.40840  0.49940  Biso   1.000  O
  O126     1.0000 0.59210  0.12010  0.49920  Biso   1.000  O
  O127     1.0000 0.84830  0.42420  0.75870  Biso   1.000  O
  O128     1.0000 0.80450  0.25720  0.50040  Biso   1.000  O
  O129     1.0000 0.75240  0.15890  0.50440  Biso   1.000  O
  O130     1.0000 0.84140  0.24770  0.50030  Biso   1.000  O
  O131     1.0000 0.96615  0.37818  0.50110  Biso   1.000  O
  O132     1.0000 0.74270  0.19530  0.50140  Biso   1.000  O
  O133     1.0000 0.62227  0.03496  0.50070  Biso   1.000  O
  O134     1.0000 0.83350  0.37310  0.50250  Biso   1.000  O
  O135     1.0000 0.62730  0.16680  0.50110  Biso   1.000  O
  O136     1.0000 0.94860  0.32670  0.50030  Biso   1.000  O
  O137     1.0000 0.99990  0.32330  0.35580  Biso   1.000  O
  O138     1.0000 0.67290  0.05160  0.50150  Biso   1.000  O
  O139     1.0000 0.79790  0.39890  0.64850  Biso   1.000  O
  O140     1.0000 0.79880  0.39980  0.36770  Biso   1.000  O
  O141     1.0000 0.94020  0.16200  0.00010  Biso   1.000  O
  O142     1.0000 0.83800  0.05960  0.00310  Biso   1.000  O
  O143     1.0000 0.96520  0.22700  0.88590  Biso   1.000  O
  O144     1.0000 0.96460  0.22780  0.11600  Biso   1.000  O
  O145     1.0000 0.03850  0.26420  0.11600  Biso   1.000  O
  O146     1.0000 0.03670  0.26370  0.88300  Biso   1.000  O
  O147     1.0000 0.89260  0.17700  0.11590  Biso   1.000  O
  O148     1.0000 0.82210  0.10590  0.12300  Biso   1.000  O
  O149     1.0000 0.86950  0.09990  0.90080  Biso   1.000  O
  O150     1.0000 0.89090  0.17520  0.88700  Biso   1.000  O
  O151     1.0000 0.89970  0.13050  0.89990  Biso   1.000  O
  O152     1.0000 0.82250  0.10630  0.88600  Biso   1.000  O
  C166     1.0000 0.81630  0.40740  0.73800  Biso   1.000  C
  C167     1.0000 0.80280  0.40160  0.87450  Biso   1.000  C
  C168     1.0000 0.76900  0.38550  0.88330  Biso   1.000  C
  C169     1.0000 0.75230  0.37760  0.00940  Biso   1.000  C
  C170     1.0000 0.77190  0.38700  0.12750  Biso   1.000  C
  C171     1.0000 0.80580  0.40310  0.13110  Biso   1.000  C
  C172     1.0000 0.81990  0.40980  0.99950  Biso   1.000  C
  C173     1.0000 0.71860  0.36160  0.99400  Biso   1.000  C
  C174     1.0000 0.81340  0.40620  0.27210  Biso   1.000  C
  C175     1.0000 0.86830  0.35430  0.50290  Biso   1.000  C
  C176     1.0000 0.66110  0.09350  0.49840  Biso   1.000  C
  C177     1.0000 0.85920  0.30410  0.50260  Biso   1.000  C
  C178     1.0000 0.80420  0.19580  0.74820  Biso   1.000  C
  C179     1.0000 0.80330  0.19630  0.24370  Biso   1.000  C
  C180     1.0000 0.00000  0.33850  0.75640  Biso   1.000  C
  C181     1.0000 0.69550  0.14060  0.49910  Biso   1.000  C
  C182     1.0000 0.90600  0.33820  0.49840  Biso   1.000  C
  C183     1.0000 0.63490  0.10040  0.49910  Biso   1.000  C
  C184     1.0000 0.64710  0.13160  0.50490  Biso   1.000  C
  C185     1.0000 0.89970  0.36530  0.49520  Biso   1.000  C
  C186     1.0000 0.64980  0.05620  0.50150  Biso   1.000  C
  C187     1.0000 0.94440  0.35020  0.49970  Biso   1.000  C
  C188     1.0000 0.67430  0.15220  0.50360  Biso   1.000  C
  C189     1.0000 0.84780  0.32680  0.50140  Biso   1.000  C
  C190     1.0000 0.86200  0.37900  0.49730  Biso   1.000  C
  C191     1.0000 0.83160  0.26590  0.50660  Biso   1.000  C
  C192     1.0000 0.62090  0.13900  0.49860  Biso   1.000  C
  C193     1.0000 0.73440  0.16890  0.50680  Biso   1.000  C
  C194     1.0000 0.68890  0.11210  0.49760  Biso   1.000  C
  C195     1.0000 0.88820  0.31150  0.49940  Biso   1.000  C
  C196     1.0000 0.00020  0.33860  0.24410  Biso   1.000  C
  C197     1.0000 0.00010  0.34090  0.00210  Biso   1.000  C
  C198     1.0000 0.80530  0.19540  0.99720  Biso   1.000  C
  C199     1.0000 0.81080  0.18490  0.13600  Biso   1.000  C
  C200     1.0000 0.81130  0.18440  0.87000  Biso   1.000  C
  C201     1.0000 0.01130  0.33250  0.87600  Biso   1.000  C
  C202     1.0000 0.98610  0.32040  0.88300  Biso   1.000  C
  C203     1.0000 0.01840  0.31120  0.86200  Biso   1.000  C
  C204     1.0000 0.97910  0.28820  0.86900  Biso   1.000  C
  C205     1.0000 0.01290  0.33340  0.11700  Biso   1.000  C
  C206     1.0000 0.98640  0.32080  0.11800  Biso   1.000  C
  C207     1.0000 0.97970  0.28900  0.13200  Biso   1.000  C
  C208     1.0000 0.01980  0.31000  0.12800  Biso   1.000  C
  C209     1.0000 0.83870  0.18250  0.87300  Biso   1.000  C
  C210     1.0000 0.81580  0.15910  0.87700  Biso   1.000  C
  C211     1.0000 0.83940  0.18350  0.13200  Biso   1.000  C
  C212     1.0000 0.81680  0.15890  0.12900  Biso   1.000  C
  C213     1.0000 0.03910  0.27910  0.02200  Biso   1.000  C
  C214     1.0000 0.95800  0.24070  0.97600  Biso   1.000  C
  C215     1.0000 0.02730  0.30040  0.00300  Biso   1.000  C
  C216     1.0000 0.97430  0.27410  0.99800  Biso   1.000  C
  C217     1.0000 0.83430  0.13030  0.00000  Biso   1.000  C
  C218     1.0000 0.87070  0.16490  0.00100  Biso   1.000  C
  C219     1.0000 0.85520  0.17930  0.99700  Biso   1.000  C
  C220     1.0000 0.81850  0.14540  0.99600  Biso   1.000  C
  In13     1.0000 0.79316  0.58628  0.49994  Biso   1.000  In
  In14     1.0000 0.64120  0.64115  0.50009  Biso   1.000  In
  In15     1.0000 0.57936  0.42063  0.50051  Biso   1.000  In
  Mn17     1.0000 0.82027  0.75464  0.81730  Biso   1.000  Mn
  Mn18     1.0000 0.82034  0.75472  0.18280  Biso   1.000  Mn
  Mn19     1.0000 0.93422  0.75449  0.81720  Biso   1.000  Mn
  Mn20     1.0000 0.93449  0.75469  0.18230  Biso   1.000  Mn
  O153     1.0000 0.63604  0.63627  0.73920  Biso   1.000  O
  O154     1.0000 0.81210  0.62530  0.35210  Biso   1.000  O
  O155     1.0000 0.64940  0.35520  0.10140  Biso   1.000  O
  O156     1.0000 0.64903  0.35633  0.88390  Biso   1.000  O
  O157     1.0000 0.67670  0.67680  0.64390  Biso   1.000  O
  O158     1.0000 0.78960  0.57890  0.25490  Biso   1.000  O
  O159     1.0000 0.78940  0.57890  0.74120  Biso   1.000  O
  O160     1.0000 0.63658  0.63638  0.26040  Biso   1.000  O
  O161     1.0000 0.57610  0.42470  0.24810  Biso   1.000  O
  O162     1.0000 0.81260  0.62540  0.64830  Biso   1.000  O
  O163     1.0000 0.59160  0.47220  0.49940  Biso   1.000  O
  O164     1.0000 0.87990  0.47200  0.49920  Biso   1.000  O
  O165     1.0000 0.57580  0.42410  0.75870  Biso   1.000  O
  O166     1.0000 0.74280  0.54730  0.50040  Biso   1.000  O
  O167     1.0000 0.84110  0.59350  0.50440  Biso   1.000  O
  O168     1.0000 0.75230  0.59370  0.50030  Biso   1.000  O
  O169     1.0000 0.62182  0.58797  0.50110  Biso   1.000  O
  O170     1.0000 0.80470  0.54740  0.50140  Biso   1.000  O
  O171     1.0000 0.96504  0.58731  0.50070  Biso   1.000  O
  O172     1.0000 0.62690  0.46040  0.50250  Biso   1.000  O
  O173     1.0000 0.83320  0.46050  0.50110  Biso   1.000  O
  O174     1.0000 0.67330  0.62190  0.50030  Biso   1.000  O
  O175     1.0000 0.67670  0.67660  0.35580  Biso   1.000  O
  O176     1.0000 0.94840  0.62130  0.50150  Biso   1.000  O
  O177     1.0000 0.60110  0.39900  0.64850  Biso   1.000  O
  O178     1.0000 0.60020  0.39900  0.36770  Biso   1.000  O
  O179     1.0000 0.83800  0.77820  0.00010  Biso   1.000  O
  O180     1.0000 0.94040  0.77840  0.00310  Biso   1.000  O
  O181     1.0000 0.77300  0.73820  0.88590  Biso   1.000  O
  O182     1.0000 0.77220  0.73680  0.11600  Biso   1.000  O
  O183     1.0000 0.73580  0.77430  0.11600  Biso   1.000  O
  O184     1.0000 0.73630  0.77300  0.88300  Biso   1.000  O
  O185     1.0000 0.82300  0.71560  0.11590  Biso   1.000  O
  O186     1.0000 0.89410  0.71620  0.12300  Biso   1.000  O
  O187     1.0000 0.90010  0.76960  0.90080  Biso   1.000  O
  O188     1.0000 0.82480  0.71570  0.88700  Biso   1.000  O
  O189     1.0000 0.86950  0.76920  0.89990  Biso   1.000  O
  O190     1.0000 0.89370  0.71620  0.88600  Biso   1.000  O
  C221     1.0000 0.59260  0.40890  0.73800  Biso   1.000  C
  C222     1.0000 0.59840  0.40120  0.87450  Biso   1.000  C
  C223     1.0000 0.61450  0.38350  0.88330  Biso   1.000  C
  C224     1.0000 0.62240  0.37470  0.00940  Biso   1.000  C
  C225     1.0000 0.61300  0.38490  0.12750  Biso   1.000  C
  C226     1.0000 0.59690  0.40270  0.13110  Biso   1.000  C
  C227     1.0000 0.59020  0.41010  0.99950  Biso   1.000  C
  C228     1.0000 0.63840  0.35700  0.99400  Biso   1.000  C
  C229     1.0000 0.59380  0.40720  0.27210  Biso   1.000  C
  C230     1.0000 0.64570  0.51400  0.50290  Biso   1.000  C
  C231     1.0000 0.90650  0.56760  0.49840  Biso   1.000  C
  C232     1.0000 0.69590  0.55510  0.50260  Biso   1.000  C
  C233     1.0000 0.80420  0.60840  0.74820  Biso   1.000  C
  C234     1.0000 0.80370  0.60700  0.24370  Biso   1.000  C
  C235     1.0000 0.66150  0.66150  0.75640  Biso   1.000  C
  C236     1.0000 0.85940  0.55490  0.49910  Biso   1.000  C
  C237     1.0000 0.66180  0.56780  0.49840  Biso   1.000  C
  C238     1.0000 0.89960  0.53450  0.49910  Biso   1.000  C
  C239     1.0000 0.86840  0.51550  0.50490  Biso   1.000  C
  C240     1.0000 0.63470  0.53440  0.49520  Biso   1.000  C
  C241     1.0000 0.94380  0.59360  0.50150  Biso   1.000  C
  C242     1.0000 0.64980  0.59420  0.49970  Biso   1.000  C
  C243     1.0000 0.84780  0.52210  0.50360  Biso   1.000  C
  C244     1.0000 0.67320  0.52100  0.50140  Biso   1.000  C
  C245     1.0000 0.62100  0.48300  0.49730  Biso   1.000  C
  C246     1.0000 0.73410  0.56570  0.50660  Biso   1.000  C
  C247     1.0000 0.86100  0.48190  0.49860  Biso   1.000  C
  C248     1.0000 0.83110  0.56550  0.50680  Biso   1.000  C
  C249     1.0000 0.88790  0.57680  0.49760  Biso   1.000  C
  C250     1.0000 0.68850  0.57670  0.49940  Biso   1.000  C
  C251     1.0000 0.66140  0.66160  0.24410  Biso   1.000  C
  C252     1.0000 0.65910  0.65920  0.00210  Biso   1.000  C
  C253     1.0000 0.80460  0.60990  0.99720  Biso   1.000  C
  C254     1.0000 0.81510  0.62590  0.13600  Biso   1.000  C
  C255     1.0000 0.81560  0.62690  0.87000  Biso   1.000  C
  C256     1.0000 0.66750  0.67880  0.87600  Biso   1.000  C
  C257     1.0000 0.67960  0.66570  0.88300  Biso   1.000  C
  C258     1.0000 0.68880  0.70720  0.86200  Biso   1.000  C
  C259     1.0000 0.71180  0.69090  0.86900  Biso   1.000  C
  C260     1.0000 0.66660  0.67950  0.11700  Biso   1.000  C
  C261     1.0000 0.67920  0.66560  0.11800  Biso   1.000  C
  C262     1.0000 0.71100  0.69070  0.13200  Biso   1.000  C
  C263     1.0000 0.69000  0.70980  0.12800  Biso   1.000  C
  C264     1.0000 0.81750  0.65620  0.87300  Biso   1.000  C
  C265     1.0000 0.84090  0.65670  0.87700  Biso   1.000  C
  C266     1.0000 0.81650  0.65590  0.13200  Biso   1.000  C
  C267     1.0000 0.84110  0.65790  0.12900  Biso   1.000  C
  C268     1.0000 0.72090  0.76000  0.02200  Biso   1.000  C
  C269     1.0000 0.75930  0.71730  0.97600  Biso   1.000  C
  C270     1.0000 0.69960  0.72690  0.00300  Biso   1.000  C
  C271     1.0000 0.72590  0.70020  0.99800  Biso   1.000  C
  C272     1.0000 0.86970  0.70400  0.00000  Biso   1.000  C
  C273     1.0000 0.83510  0.70580  0.00100  Biso   1.000  C
  C274     1.0000 0.82070  0.67590  0.99700  Biso   1.000  C
  C275     1.0000 0.85460  0.67310  0.99600  Biso   1.000  C
  In16     1.0000 0.41372  0.20688  0.49994  Biso   1.000  In
  In17     1.0000 0.35885  0.00005  0.50009  Biso   1.000  In
  In18     1.0000 0.57937  0.15873  0.50051  Biso   1.000  In
  Mn21     1.0000 0.24536  0.06563  0.81730  Biso   1.000  Mn
  Mn22     1.0000 0.24528  0.06562  0.18280  Biso   1.000  Mn
  Mn23     1.0000 0.24551  0.17973  0.81720  Biso   1.000  Mn
  Mn24     1.0000 0.24531  0.17980  0.18230  Biso   1.000  Mn
  O191     1.0000 0.36373  0.99977  0.73920  Biso   1.000  O
  O192     1.0000 0.37470  0.18680  0.35210  Biso   1.000  O
  O193     1.0000 0.64480  0.29420  0.10140  Biso   1.000  O
  O194     1.0000 0.64367  0.29270  0.88390  Biso   1.000  O
  O195     1.0000 0.32320  0.99990  0.64390  Biso   1.000  O
  O196     1.0000 0.42110  0.21070  0.25490  Biso   1.000  O
  O197     1.0000 0.42110  0.21050  0.74120  Biso   1.000  O
  O198     1.0000 0.36362  0.00020  0.26040  Biso   1.000  O
  O199     1.0000 0.57530  0.15140  0.24810  Biso   1.000  O
  O200     1.0000 0.37460  0.18720  0.64830  Biso   1.000  O
  O201     1.0000 0.52780  0.11940  0.49940  Biso   1.000  O
  O202     1.0000 0.52800  0.40790  0.49920  Biso   1.000  O
  O203     1.0000 0.57590  0.15170  0.75870  Biso   1.000  O
  O204     1.0000 0.45270  0.19550  0.50040  Biso   1.000  O
  O205     1.0000 0.40650  0.24760  0.50440  Biso   1.000  O
  O206     1.0000 0.40630  0.15860  0.50030  Biso   1.000  O
  O207     1.0000 0.41203  0.03385  0.50110  Biso   1.000  O
  O208     1.0000 0.45260  0.25730  0.50140  Biso   1.000  O
  O209     1.0000 0.41269  0.37773  0.50070  Biso   1.000  O
  O210     1.0000 0.53960  0.16650  0.50250  Biso   1.000  O
  O211     1.0000 0.53950  0.37270  0.50110  Biso   1.000  O
  O212     1.0000 0.37810  0.05140  0.50030  Biso   1.000  O
  O213     1.0000 0.32340  0.00010  0.35580  Biso   1.000  O
  O214     1.0000 0.37870  0.32710  0.50150  Biso   1.000  O
  O215     1.0000 0.60100  0.20210  0.64850  Biso   1.000  O
  O216     1.0000 0.60100  0.20120  0.36770  Biso   1.000  O
  O217     1.0000 0.22180  0.05980  0.00010  Biso   1.000  O
  O218     1.0000 0.22160  0.16200  0.00310  Biso   1.000  O
  O219     1.0000 0.26180  0.03480  0.88590  Biso   1.000  O
  O220     1.0000 0.26320  0.03540  0.11600  Biso   1.000  O
  O221     1.0000 0.22570  0.96150  0.11600  Biso   1.000  O
  O222     1.0000 0.22700  0.96330  0.88300  Biso   1.000  O
  O223     1.0000 0.28440  0.10740  0.11590  Biso   1.000  O
  O224     1.0000 0.28380  0.17790  0.12300  Biso   1.000  O
  O225     1.0000 0.23040  0.13050  0.90080  Biso   1.000  O
  O226     1.0000 0.28430  0.10910  0.88700  Biso   1.000  O
  O227     1.0000 0.23080  0.10030  0.89990  Biso   1.000  O
  O228     1.0000 0.28380  0.17750  0.88600  Biso   1.000  O
  C276     1.0000 0.59110  0.18370  0.73800  Biso   1.000  C
  C277     1.0000 0.59880  0.19720  0.87450  Biso   1.000  C
  C278     1.0000 0.61650  0.23100  0.88330  Biso   1.000  C
  C279     1.0000 0.62530  0.24770  0.00940  Biso   1.000  C
  C280     1.0000 0.61510  0.22810  0.12750  Biso   1.000  C
  C281     1.0000 0.59730  0.19420  0.13110  Biso   1.000  C
  C282     1.0000 0.58990  0.18010  0.99950  Biso   1.000  C
  C283     1.0000 0.64300  0.28140  0.99400  Biso   1.000  C
  C284     1.0000 0.59280  0.18660  0.27210  Biso   1.000  C
  C285     1.0000 0.48600  0.13170  0.50290  Biso   1.000  C
  C286     1.0000 0.43240  0.33890  0.49840  Biso   1.000  C
  C287     1.0000 0.44490  0.14080  0.50260  Biso   1.000  C
  C288     1.0000 0.39160  0.19580  0.74820  Biso   1.000  C
  C289     1.0000 0.39300  0.19670  0.24370  Biso   1.000  C
  C290     1.0000 0.33850  0.00000  0.75640  Biso   1.000  C
  C291     1.0000 0.44510  0.30450  0.49910  Biso   1.000  C
  C292     1.0000 0.43220  0.09400  0.49840  Biso   1.000  C
  C293     1.0000 0.46550  0.36510  0.49910  Biso   1.000  C
  C294     1.0000 0.48450  0.35290  0.50490  Biso   1.000  C
  C295     1.0000 0.46560  0.10030  0.49520  Biso   1.000  C
  C296     1.0000 0.40640  0.35020  0.50150  Biso   1.000  C
  C297     1.0000 0.40580  0.05560  0.49970  Biso   1.000  C
  C298     1.0000 0.47790  0.32570  0.50360  Biso   1.000  C
  C299     1.0000 0.47900  0.15220  0.50140  Biso   1.000  C
  C300     1.0000 0.51700  0.13800  0.49730  Biso   1.000  C
  C301     1.0000 0.43430  0.16840  0.50660  Biso   1.000  C
  C302     1.0000 0.51810  0.37910  0.49860  Biso   1.000  C
  C303     1.0000 0.43450  0.26560  0.50680  Biso   1.000  C
  C304     1.0000 0.42320  0.31110  0.49760  Biso   1.000  C
  C305     1.0000 0.42330  0.11180  0.49940  Biso   1.000  C
  C306     1.0000 0.33840  0.99980  0.24410  Biso   1.000  C
  C307     1.0000 0.34080  0.99990  0.00210  Biso   1.000  C
  C308     1.0000 0.39010  0.19470  0.99720  Biso   1.000  C
  C309     1.0000 0.37410  0.18920  0.13600  Biso   1.000  C
  C310     1.0000 0.37310  0.18870  0.87000  Biso   1.000  C
  C311     1.0000 0.32120  0.98870  0.87600  Biso   1.000  C
  C312     1.0000 0.33430  0.01390  0.88300  Biso   1.000  C
  C313     1.0000 0.29280  0.98160  0.86200  Biso   1.000  C
  C314     1.0000 0.30910  0.02090  0.86900  Biso   1.000  C
  C315     1.0000 0.32050  0.98710  0.11700  Biso   1.000  C
  C316     1.0000 0.33440  0.01360  0.11800  Biso   1.000  C
  C317     1.0000 0.30930  0.02030  0.13200  Biso   1.000  C
  C318     1.0000 0.29020  0.98020  0.12800  Biso   1.000  C
  C319     1.0000 0.34380  0.16130  0.87300  Biso   1.000  C
  C320     1.0000 0.34330  0.18420  0.87700  Biso   1.000  C
  C321     1.0000 0.34410  0.16060  0.13200  Biso   1.000  C
  C322     1.0000 0.34210  0.18320  0.12900  Biso   1.000  C
  C323     1.0000 0.24000  0.96090  0.02200  Biso   1.000  C
  C324     1.0000 0.28270  0.04200  0.97600  Biso   1.000  C
  C325     1.0000 0.27310  0.97270  0.00300  Biso   1.000  C
  C326     1.0000 0.29980  0.02570  0.99800  Biso   1.000  C
  C327     1.0000 0.29600  0.16570  0.00000  Biso   1.000  C
  C328     1.0000 0.29420  0.12930  0.00100  Biso   1.000  C
  C329     1.0000 0.32410  0.14480  0.99700  Biso   1.000  C
  C330     1.0000 0.32690  0.18150  0.99600  Biso   1.000  C
  Mn25     1.0000 0.33333  0.66667  0.21400  Biso   1.000  Mn
  Mn26     1.0000 0.33333  0.66667  0.79020  Biso   1.000  Mn
  Mn27     1.0000 0.66667  0.33333  0.78600  Biso   1.000  Mn
  Mn28     1.0000 0.66667  0.33333  0.20980  Biso   1.000  Mn
