data_image0
_cell_length_a       18.348
_cell_length_b       18.348
_cell_length_c       34.631
_cell_angle_alpha    90
_cell_angle_beta     90
_cell_angle_gamma    120

_symmetry_space_group_name_H-M    "P 1"
_symmetry_int_tables_number       1

loop_
  _symmetry_equiv_pos_as_xyz
  'x, y, z'

loop_
  _atom_site_label
  _atom_site_occupancy
  _atom_site_fract_x
  _atom_site_fract_y
  _atom_site_fract_z
  _atom_site_thermal_displace_type
  _atom_site_B_iso_or_equiv
  _atom_site_type_symbol
  O1       1.0000 0.70400  0.14440  0.16416  Biso   1.000  O
  O2       1.0000 0.74480  0.10120  0.11235  Biso   1.000  O
  N1       1.0000 0.76200  0.31120  0.24280  Biso   1.000  N
  C1       1.0000 0.59590  0.06040  0.07392  Biso   1.000  C
  H1       1.0000 0.63440  0.04940  0.06160  Biso   1.000  H
  C2       1.0000 0.61210  0.09240  0.11085  Biso   1.000  C
  C3       1.0000 0.69300  0.11350  0.13075  Biso   1.000  C
  C4       1.0000 0.85250  0.38440  0.24270  Biso   1.000  C
  C5       1.0000 0.72380  0.31970  0.28030  Biso   1.000  C
  O3       1.0000 0.37067  0.47773  0.49749  Biso   1.000  O
  O4       1.0000 0.41147  0.43453  0.44568  Biso   1.000  O
  N2       1.0000 0.42867  0.64453  0.57613  Biso   1.000  N
  C6       1.0000 0.26257  0.39373  0.40725  Biso   1.000  C
  H2       1.0000 0.30107  0.38273  0.39493  Biso   1.000  H
  C7       1.0000 0.27877  0.42573  0.44418  Biso   1.000  C
  C8       1.0000 0.35967  0.44683  0.46408  Biso   1.000  C
  C9       1.0000 0.51917  0.71773  0.57603  Biso   1.000  C
  C10      1.0000 0.39047  0.65303  0.61363  Biso   1.000  C
  O5       1.0000 0.03733  0.81107  0.83083  Biso   1.000  O
  O6       1.0000 0.07813  0.76787  0.77902  Biso   1.000  O
  N3       1.0000 0.09533  0.97787  0.90947  Biso   1.000  N
  C11      1.0000 0.92923  0.72707  0.74059  Biso   1.000  C
  H3       1.0000 0.96773  0.71607  0.72827  Biso   1.000  H
  C12      1.0000 0.94543  0.75907  0.77752  Biso   1.000  C
  C13      1.0000 0.02633  0.78017  0.79742  Biso   1.000  C
  C14      1.0000 0.18583  0.05107  0.90937  Biso   1.000  C
  C15      1.0000 0.05713  0.98637  0.94697  Biso   1.000  C
  O7       1.0000 0.85560  0.55960  0.16416  Biso   1.000  O
  O8       1.0000 0.89880  0.64360  0.11235  Biso   1.000  O
  N4       1.0000 0.68880  0.45080  0.24280  Biso   1.000  N
  C16      1.0000 0.93960  0.53550  0.07392  Biso   1.000  C
  H4       1.0000 0.95060  0.58500  0.06160  Biso   1.000  H
  C17      1.0000 0.90760  0.51970  0.11085  Biso   1.000  C
  C18      1.0000 0.88650  0.57950  0.13075  Biso   1.000  C
  C19      1.0000 0.61560  0.46810  0.24270  Biso   1.000  C
  C20      1.0000 0.68030  0.40410  0.28030  Biso   1.000  C
  O9       1.0000 0.52227  0.89293  0.49749  Biso   1.000  O
  O10      1.0000 0.56547  0.97693  0.44568  Biso   1.000  O
  N5       1.0000 0.35547  0.78413  0.57613  Biso   1.000  N
  C21      1.0000 0.60627  0.86883  0.40725  Biso   1.000  C
  H5       1.0000 0.61727  0.91833  0.39493  Biso   1.000  H
  C22      1.0000 0.57427  0.85303  0.44418  Biso   1.000  C
  C23      1.0000 0.55317  0.91283  0.46408  Biso   1.000  C
  C24      1.0000 0.28227  0.80143  0.57603  Biso   1.000  C
  C25      1.0000 0.34697  0.73743  0.61363  Biso   1.000  C
  O11      1.0000 0.18893  0.22627  0.83083  Biso   1.000  O
  O12      1.0000 0.23213  0.31027  0.77902  Biso   1.000  O
  N6       1.0000 0.02213  0.11747  0.90947  Biso   1.000  N
  C26      1.0000 0.27293  0.20217  0.74059  Biso   1.000  C
  H6       1.0000 0.28393  0.25167  0.72827  Biso   1.000  H
  C27      1.0000 0.24093  0.18637  0.77752  Biso   1.000  C
  C28      1.0000 0.21983  0.24617  0.79742  Biso   1.000  C
  C29      1.0000 0.94893  0.13477  0.90937  Biso   1.000  C
  C30      1.0000 0.01363  0.07077  0.94697  Biso   1.000  C
  O13      1.0000 0.44040  0.29600  0.16416  Biso   1.000  O
  O14      1.0000 0.35640  0.25520  0.11235  Biso   1.000  O
  N7       1.0000 0.54920  0.23800  0.24280  Biso   1.000  N
  C31      1.0000 0.46450  0.40410  0.07392  Biso   1.000  C
  H7       1.0000 0.41500  0.36560  0.06160  Biso   1.000  H
  C32      1.0000 0.48030  0.38790  0.11085  Biso   1.000  C
  C33      1.0000 0.42050  0.30700  0.13075  Biso   1.000  C
  C34      1.0000 0.53190  0.14750  0.24270  Biso   1.000  C
  C35      1.0000 0.59590  0.27620  0.28030  Biso   1.000  C
  O15      1.0000 0.10707  0.62933  0.49749  Biso   1.000  O
  O16      1.0000 0.02307  0.58853  0.44568  Biso   1.000  O
  N8       1.0000 0.21587  0.57133  0.57613  Biso   1.000  N
  C36      1.0000 0.13117  0.73743  0.40725  Biso   1.000  C
  H8       1.0000 0.08167  0.69893  0.39493  Biso   1.000  H
  C37      1.0000 0.14697  0.72123  0.44418  Biso   1.000  C
  C38      1.0000 0.08717  0.64033  0.46408  Biso   1.000  C
  C39      1.0000 0.19857  0.48083  0.57603  Biso   1.000  C
  C40      1.0000 0.26257  0.60953  0.61363  Biso   1.000  C
  O17      1.0000 0.77373  0.96267  0.83083  Biso   1.000  O
  O18      1.0000 0.68973  0.92187  0.77902  Biso   1.000  O
  N9       1.0000 0.88253  0.90467  0.90947  Biso   1.000  N
  C41      1.0000 0.79783  0.07077  0.74059  Biso   1.000  C
  H9       1.0000 0.74833  0.03227  0.72827  Biso   1.000  H
  C42      1.0000 0.81363  0.05457  0.77752  Biso   1.000  C
  C43      1.0000 0.75383  0.97367  0.79742  Biso   1.000  C
  C44      1.0000 0.86523  0.81417  0.90937  Biso   1.000  C
  C45      1.0000 0.92923  0.94287  0.94697  Biso   1.000  C
  O19      1.0000 0.14440  0.70400  0.83584  Biso   1.000  O
  O20      1.0000 0.10120  0.74480  0.88765  Biso   1.000  O
  N10      1.0000 0.31120  0.76200  0.75720  Biso   1.000  N
  C46      1.0000 0.06040  0.59590  0.92608  Biso   1.000  C
  H10      1.0000 0.04940  0.63440  0.93840  Biso   1.000  H
  C47      1.0000 0.09240  0.61210  0.88915  Biso   1.000  C
  C48      1.0000 0.11350  0.69300  0.86925  Biso   1.000  C
  C49      1.0000 0.38440  0.85250  0.75730  Biso   1.000  C
  C50      1.0000 0.31970  0.72380  0.71970  Biso   1.000  C
  O21      1.0000 0.81107  0.03733  0.16917  Biso   1.000  O
  O22      1.0000 0.76787  0.07813  0.22098  Biso   1.000  O
  N11      1.0000 0.97787  0.09533  0.09053  Biso   1.000  N
  C51      1.0000 0.72707  0.92923  0.25941  Biso   1.000  C
  H11      1.0000 0.71607  0.96773  0.27173  Biso   1.000  H
  C52      1.0000 0.75907  0.94543  0.22248  Biso   1.000  C
  C53      1.0000 0.78017  0.02633  0.20258  Biso   1.000  C
  C54      1.0000 0.05107  0.18583  0.09063  Biso   1.000  C
  C55      1.0000 0.98637  0.05713  0.05303  Biso   1.000  C
  O23      1.0000 0.47773  0.37067  0.50251  Biso   1.000  O
  O24      1.0000 0.43453  0.41147  0.55432  Biso   1.000  O
  N12      1.0000 0.64453  0.42867  0.42387  Biso   1.000  N
  C56      1.0000 0.39373  0.26257  0.59275  Biso   1.000  C
  H12      1.0000 0.38273  0.30107  0.60507  Biso   1.000  H
  C57      1.0000 0.42573  0.27877  0.55582  Biso   1.000  C
  C58      1.0000 0.44683  0.35967  0.53592  Biso   1.000  C
  C59      1.0000 0.71773  0.51917  0.42397  Biso   1.000  C
  C60      1.0000 0.65303  0.39047  0.38637  Biso   1.000  C
  O25      1.0000 0.55960  0.85560  0.83584  Biso   1.000  O
  O26      1.0000 0.64360  0.89880  0.88765  Biso   1.000  O
  N13      1.0000 0.45080  0.68880  0.75720  Biso   1.000  N
  C61      1.0000 0.53550  0.93960  0.92608  Biso   1.000  C
  H13      1.0000 0.58500  0.95060  0.93840  Biso   1.000  H
  C62      1.0000 0.51970  0.90760  0.88915  Biso   1.000  C
  C63      1.0000 0.57950  0.88650  0.86925  Biso   1.000  C
  C64      1.0000 0.46810  0.61560  0.75730  Biso   1.000  C
  C65      1.0000 0.40410  0.68030  0.71970  Biso   1.000  C
  O27      1.0000 0.22627  0.18893  0.16917  Biso   1.000  O
  O28      1.0000 0.31027  0.23213  0.22098  Biso   1.000  O
  N14      1.0000 0.11747  0.02213  0.09053  Biso   1.000  N
  C66      1.0000 0.20217  0.27293  0.25941  Biso   1.000  C
  H14      1.0000 0.25167  0.28393  0.27173  Biso   1.000  H
  C67      1.0000 0.18637  0.24093  0.22248  Biso   1.000  C
  C68      1.0000 0.24617  0.21983  0.20258  Biso   1.000  C
  C69      1.0000 0.13477  0.94893  0.09063  Biso   1.000  C
  C70      1.0000 0.07077  0.01363  0.05303  Biso   1.000  C
  O29      1.0000 0.89293  0.52227  0.50251  Biso   1.000  O
  O30      1.0000 0.97693  0.56547  0.55432  Biso   1.000  O
  N15      1.0000 0.78413  0.35547  0.42387  Biso   1.000  N
  C71      1.0000 0.86883  0.60627  0.59275  Biso   1.000  C
  H15      1.0000 0.91833  0.61727  0.60507  Biso   1.000  H
  C72      1.0000 0.85303  0.57427  0.55582  Biso   1.000  C
  C73      1.0000 0.91283  0.55317  0.53592  Biso   1.000  C
  C74      1.0000 0.80143  0.28227  0.42397  Biso   1.000  C
  C75      1.0000 0.73743  0.34697  0.38637  Biso   1.000  C
  O31      1.0000 0.29600  0.44040  0.83584  Biso   1.000  O
  O32      1.0000 0.25520  0.35640  0.88765  Biso   1.000  O
  N16      1.0000 0.23800  0.54920  0.75720  Biso   1.000  N
  C76      1.0000 0.40410  0.46450  0.92608  Biso   1.000  C
  H16      1.0000 0.36560  0.41500  0.93840  Biso   1.000  H
  C77      1.0000 0.38790  0.48030  0.88915  Biso   1.000  C
  C78      1.0000 0.30700  0.42050  0.86925  Biso   1.000  C
  C79      1.0000 0.14750  0.53190  0.75730  Biso   1.000  C
  C80      1.0000 0.27620  0.59590  0.71970  Biso   1.000  C
  O33      1.0000 0.96267  0.77373  0.16917  Biso   1.000  O
  O34      1.0000 0.92187  0.68973  0.22098  Biso   1.000  O
  N17      1.0000 0.90467  0.88253  0.09053  Biso   1.000  N
  C81      1.0000 0.07077  0.79783  0.25941  Biso   1.000  C
  H17      1.0000 0.03227  0.74833  0.27173  Biso   1.000  H
  C82      1.0000 0.05457  0.81363  0.22248  Biso   1.000  C
  C83      1.0000 0.97367  0.75383  0.20258  Biso   1.000  C
  C84      1.0000 0.81417  0.86523  0.09063  Biso   1.000  C
  C85      1.0000 0.94287  0.92923  0.05303  Biso   1.000  C
  O35      1.0000 0.62933  0.10707  0.50251  Biso   1.000  O
  O36      1.0000 0.58853  0.02307  0.55432  Biso   1.000  O
  N18      1.0000 0.57133  0.21587  0.42387  Biso   1.000  N
  C86      1.0000 0.73743  0.13117  0.59275  Biso   1.000  C
  H18      1.0000 0.69893  0.08167  0.60507  Biso   1.000  H
  C87      1.0000 0.72123  0.14697  0.55582  Biso   1.000  C
  C88      1.0000 0.64033  0.08717  0.53592  Biso   1.000  C
  C89      1.0000 0.48083  0.19857  0.42397  Biso   1.000  C
  C90      1.0000 0.60953  0.26257  0.38637  Biso   1.000  C
  O37      1.0000 0.29600  0.85560  0.83584  Biso   1.000  O
  O38      1.0000 0.25520  0.89880  0.88765  Biso   1.000  O
  N19      1.0000 0.23800  0.68880  0.75720  Biso   1.000  N
  C91      1.0000 0.40410  0.93960  0.92608  Biso   1.000  C
  H19      1.0000 0.36560  0.95060  0.93840  Biso   1.000  H
  C92      1.0000 0.38790  0.90760  0.88915  Biso   1.000  C
  C93      1.0000 0.30700  0.88650  0.86925  Biso   1.000  C
  C94      1.0000 0.14750  0.61560  0.75730  Biso   1.000  C
  C95      1.0000 0.27620  0.68030  0.71970  Biso   1.000  C
  O39      1.0000 0.96267  0.18893  0.16917  Biso   1.000  O
  O40      1.0000 0.92187  0.23213  0.22098  Biso   1.000  O
  N20      1.0000 0.90467  0.02213  0.09053  Biso   1.000  N
  C96      1.0000 0.07077  0.27293  0.25941  Biso   1.000  C
  H20      1.0000 0.03227  0.28393  0.27173  Biso   1.000  H
  C97      1.0000 0.05457  0.24093  0.22248  Biso   1.000  C
  C98      1.0000 0.97367  0.21983  0.20258  Biso   1.000  C
  C99      1.0000 0.81417  0.94893  0.09063  Biso   1.000  C
  C100     1.0000 0.94287  0.01363  0.05303  Biso   1.000  C
  O41      1.0000 0.62933  0.52227  0.50251  Biso   1.000  O
  O42      1.0000 0.58853  0.56547  0.55432  Biso   1.000  O
  N21      1.0000 0.57133  0.35547  0.42387  Biso   1.000  N
  C101     1.0000 0.73743  0.60627  0.59275  Biso   1.000  C
  H21      1.0000 0.69893  0.61727  0.60507  Biso   1.000  H
  C102     1.0000 0.72123  0.57427  0.55582  Biso   1.000  C
  C103     1.0000 0.64033  0.55317  0.53592  Biso   1.000  C
  C104     1.0000 0.48083  0.28227  0.42397  Biso   1.000  C
  C105     1.0000 0.60953  0.34697  0.38637  Biso   1.000  C
  O43      1.0000 0.14440  0.44040  0.83584  Biso   1.000  O
  O44      1.0000 0.10120  0.35640  0.88765  Biso   1.000  O
  N22      1.0000 0.31120  0.54920  0.75720  Biso   1.000  N
  C106     1.0000 0.06040  0.46450  0.92608  Biso   1.000  C
  H22      1.0000 0.04940  0.41500  0.93840  Biso   1.000  H
  C107     1.0000 0.09240  0.48030  0.88915  Biso   1.000  C
  C108     1.0000 0.11350  0.42050  0.86925  Biso   1.000  C
  C109     1.0000 0.38440  0.53190  0.75730  Biso   1.000  C
  C110     1.0000 0.31970  0.59590  0.71970  Biso   1.000  C
  O45      1.0000 0.81107  0.77373  0.16917  Biso   1.000  O
  O46      1.0000 0.76787  0.68973  0.22098  Biso   1.000  O
  N23      1.0000 0.97787  0.88253  0.09053  Biso   1.000  N
  C111     1.0000 0.72707  0.79783  0.25941  Biso   1.000  C
  H23      1.0000 0.71607  0.74833  0.27173  Biso   1.000  H
  C112     1.0000 0.75907  0.81363  0.22248  Biso   1.000  C
  C113     1.0000 0.78017  0.75383  0.20258  Biso   1.000  C
  C114     1.0000 0.05107  0.86523  0.09063  Biso   1.000  C
  C115     1.0000 0.98637  0.92923  0.05303  Biso   1.000  C
  O47      1.0000 0.47773  0.10707  0.50251  Biso   1.000  O
  O48      1.0000 0.43453  0.02307  0.55432  Biso   1.000  O
  N24      1.0000 0.64453  0.21587  0.42387  Biso   1.000  N
  C116     1.0000 0.39373  0.13117  0.59275  Biso   1.000  C
  H24      1.0000 0.38273  0.08167  0.60507  Biso   1.000  H
  C117     1.0000 0.42573  0.14697  0.55582  Biso   1.000  C
  C118     1.0000 0.44683  0.08717  0.53592  Biso   1.000  C
  C119     1.0000 0.71773  0.19857  0.42397  Biso   1.000  C
  C120     1.0000 0.65303  0.26257  0.38637  Biso   1.000  C
  O49      1.0000 0.55960  0.70400  0.83584  Biso   1.000  O
  O50      1.0000 0.64360  0.74480  0.88765  Biso   1.000  O
  N25      1.0000 0.45080  0.76200  0.75720  Biso   1.000  N
  C121     1.0000 0.53550  0.59590  0.92608  Biso   1.000  C
  H25      1.0000 0.58500  0.63440  0.93840  Biso   1.000  H
  C122     1.0000 0.51970  0.61210  0.88915  Biso   1.000  C
  C123     1.0000 0.57950  0.69300  0.86925  Biso   1.000  C
  C124     1.0000 0.46810  0.85250  0.75730  Biso   1.000  C
  C125     1.0000 0.40410  0.72380  0.71970  Biso   1.000  C
  O51      1.0000 0.22627  0.03733  0.16917  Biso   1.000  O
  O52      1.0000 0.31027  0.07813  0.22098  Biso   1.000  O
  N26      1.0000 0.11747  0.09533  0.09053  Biso   1.000  N
  C126     1.0000 0.20217  0.92923  0.25941  Biso   1.000  C
  H26      1.0000 0.25167  0.96773  0.27173  Biso   1.000  H
  C127     1.0000 0.18637  0.94543  0.22248  Biso   1.000  C
  C128     1.0000 0.24617  0.02633  0.20258  Biso   1.000  C
  C129     1.0000 0.13477  0.18583  0.09063  Biso   1.000  C
  C130     1.0000 0.07077  0.05713  0.05303  Biso   1.000  C
  O53      1.0000 0.89293  0.37067  0.50251  Biso   1.000  O
  O54      1.0000 0.97693  0.41147  0.55432  Biso   1.000  O
  N27      1.0000 0.78413  0.42867  0.42387  Biso   1.000  N
  C131     1.0000 0.86883  0.26257  0.59275  Biso   1.000  C
  H27      1.0000 0.91833  0.30107  0.60507  Biso   1.000  H
  C132     1.0000 0.85303  0.27877  0.55582  Biso   1.000  C
  C133     1.0000 0.91283  0.35967  0.53592  Biso   1.000  C
  C134     1.0000 0.80143  0.51917  0.42397  Biso   1.000  C
  C135     1.0000 0.73743  0.39047  0.38637  Biso   1.000  C
  O55      1.0000 0.85560  0.29600  0.16416  Biso   1.000  O
  O56      1.0000 0.89880  0.25520  0.11235  Biso   1.000  O
  N28      1.0000 0.68880  0.23800  0.24280  Biso   1.000  N
  C136     1.0000 0.93960  0.40410  0.07392  Biso   1.000  C
  H28      1.0000 0.95060  0.36560  0.06160  Biso   1.000  H
  C137     1.0000 0.90760  0.38790  0.11085  Biso   1.000  C
  C138     1.0000 0.88650  0.30700  0.13075  Biso   1.000  C
  C139     1.0000 0.61560  0.14750  0.24270  Biso   1.000  C
  C140     1.0000 0.68030  0.27620  0.28030  Biso   1.000  C
  O57      1.0000 0.52227  0.62933  0.49749  Biso   1.000  O
  O58      1.0000 0.56547  0.58853  0.44568  Biso   1.000  O
  N29      1.0000 0.35547  0.57133  0.57613  Biso   1.000  N
  C141     1.0000 0.60627  0.73743  0.40725  Biso   1.000  C
  H29      1.0000 0.61727  0.69893  0.39493  Biso   1.000  H
  C142     1.0000 0.57427  0.72123  0.44418  Biso   1.000  C
  C143     1.0000 0.55317  0.64033  0.46408  Biso   1.000  C
  C144     1.0000 0.28227  0.48083  0.57603  Biso   1.000  C
  C145     1.0000 0.34697  0.60953  0.61363  Biso   1.000  C
  O59      1.0000 0.18893  0.96267  0.83083  Biso   1.000  O
  O60      1.0000 0.23213  0.92187  0.77902  Biso   1.000  O
  N30      1.0000 0.02213  0.90467  0.90947  Biso   1.000  N
  C146     1.0000 0.27293  0.07077  0.74059  Biso   1.000  C
  H30      1.0000 0.28393  0.03227  0.72827  Biso   1.000  H
  C147     1.0000 0.24093  0.05457  0.77752  Biso   1.000  C
  C148     1.0000 0.21983  0.97367  0.79742  Biso   1.000  C
  C149     1.0000 0.94893  0.81417  0.90937  Biso   1.000  C
  C150     1.0000 0.01363  0.94287  0.94697  Biso   1.000  C
  O61      1.0000 0.44040  0.14440  0.16416  Biso   1.000  O
  O62      1.0000 0.35640  0.10120  0.11235  Biso   1.000  O
  N31      1.0000 0.54920  0.31120  0.24280  Biso   1.000  N
  C151     1.0000 0.46450  0.06040  0.07392  Biso   1.000  C
  H31      1.0000 0.41500  0.04940  0.06160  Biso   1.000  H
  C152     1.0000 0.48030  0.09240  0.11085  Biso   1.000  C
  C153     1.0000 0.42050  0.11350  0.13075  Biso   1.000  C
  C154     1.0000 0.53190  0.38440  0.24270  Biso   1.000  C
  C155     1.0000 0.59590  0.31970  0.28030  Biso   1.000  C
  O63      1.0000 0.10707  0.47773  0.49749  Biso   1.000  O
  O64      1.0000 0.02307  0.43453  0.44568  Biso   1.000  O
  N32      1.0000 0.21587  0.64453  0.57613  Biso   1.000  N
  C156     1.0000 0.13117  0.39373  0.40725  Biso   1.000  C
  H32      1.0000 0.08167  0.38273  0.39493  Biso   1.000  H
  C157     1.0000 0.14697  0.42573  0.44418  Biso   1.000  C
  C158     1.0000 0.08717  0.44683  0.46408  Biso   1.000  C
  C159     1.0000 0.19857  0.71773  0.57603  Biso   1.000  C
  C160     1.0000 0.26257  0.65303  0.61363  Biso   1.000  C
  O65      1.0000 0.77373  0.81107  0.83083  Biso   1.000  O
  O66      1.0000 0.68973  0.76787  0.77902  Biso   1.000  O
  N33      1.0000 0.88253  0.97787  0.90947  Biso   1.000  N
  C161     1.0000 0.79783  0.72707  0.74059  Biso   1.000  C
  H33      1.0000 0.74833  0.71607  0.72827  Biso   1.000  H
  C162     1.0000 0.81363  0.75907  0.77752  Biso   1.000  C
  C163     1.0000 0.75383  0.78017  0.79742  Biso   1.000  C
  C164     1.0000 0.86523  0.05107  0.90937  Biso   1.000  C
  C165     1.0000 0.92923  0.98637  0.94697  Biso   1.000  C
  O67      1.0000 0.70400  0.55960  0.16416  Biso   1.000  O
  O68      1.0000 0.74480  0.64360  0.11235  Biso   1.000  O
  N34      1.0000 0.76200  0.45080  0.24280  Biso   1.000  N
  C166     1.0000 0.59590  0.53550  0.07392  Biso   1.000  C
  H34      1.0000 0.63440  0.58500  0.06160  Biso   1.000  H
  C167     1.0000 0.61210  0.51970  0.11085  Biso   1.000  C
  C168     1.0000 0.69300  0.57950  0.13075  Biso   1.000  C
  C169     1.0000 0.85250  0.46810  0.24270  Biso   1.000  C
  C170     1.0000 0.72380  0.40410  0.28030  Biso   1.000  C
  O69      1.0000 0.37067  0.89293  0.49749  Biso   1.000  O
  O70      1.0000 0.41147  0.97693  0.44568  Biso   1.000  O
  N35      1.0000 0.42867  0.78413  0.57613  Biso   1.000  N
  C171     1.0000 0.26257  0.86883  0.40725  Biso   1.000  C
  H35      1.0000 0.30107  0.91833  0.39493  Biso   1.000  H
  C172     1.0000 0.27877  0.85303  0.44418  Biso   1.000  C
  C173     1.0000 0.35967  0.91283  0.46408  Biso   1.000  C
  C174     1.0000 0.51917  0.80143  0.57603  Biso   1.000  C
  C175     1.0000 0.39047  0.73743  0.61363  Biso   1.000  C
  O71      1.0000 0.03733  0.22627  0.83083  Biso   1.000  O
  O72      1.0000 0.07813  0.31027  0.77902  Biso   1.000  O
  N36      1.0000 0.09533  0.11747  0.90947  Biso   1.000  N
  C176     1.0000 0.92923  0.20217  0.74059  Biso   1.000  C
  H36      1.0000 0.96773  0.25167  0.72827  Biso   1.000  H
  C177     1.0000 0.94543  0.18637  0.77752  Biso   1.000  C
  C178     1.0000 0.02633  0.24617  0.79742  Biso   1.000  C
  C179     1.0000 0.18583  0.13477  0.90937  Biso   1.000  C
  C180     1.0000 0.05713  0.07077  0.94697  Biso   1.000  C
  Zn1      1.0000 0.80414  0.19586  0.20159  Biso   1.000  Zn
  O73      1.0000 0.76208  0.23792  0.24354  Biso   1.000  O
  C181     1.0000 0.69910  0.30090  0.20980  Biso   1.000  C
  Zn2      1.0000 0.47081  0.52919  0.53492  Biso   1.000  Zn
  O74      1.0000 0.42875  0.57125  0.57687  Biso   1.000  O
  C182     1.0000 0.36577  0.63423  0.54313  Biso   1.000  C
  Zn3      1.0000 0.13747  0.86253  0.86826  Biso   1.000  Zn
  O75      1.0000 0.09541  0.90459  0.91021  Biso   1.000  O
  C183     1.0000 0.03243  0.96757  0.87647  Biso   1.000  C
  Zn4      1.0000 0.80414  0.60828  0.20159  Biso   1.000  Zn
  O76      1.0000 0.76208  0.52416  0.24354  Biso   1.000  O
  C184     1.0000 0.69910  0.39820  0.20980  Biso   1.000  C
  Zn5      1.0000 0.47081  0.94162  0.53492  Biso   1.000  Zn
  O77      1.0000 0.42875  0.85749  0.57687  Biso   1.000  O
  C185     1.0000 0.36577  0.73153  0.54313  Biso   1.000  C
  Zn6      1.0000 0.13747  0.27495  0.86826  Biso   1.000  Zn
  O78      1.0000 0.09541  0.19083  0.91021  Biso   1.000  O
  C186     1.0000 0.03243  0.06487  0.87647  Biso   1.000  C
  Zn7      1.0000 0.39172  0.19586  0.20159  Biso   1.000  Zn
  O79      1.0000 0.47584  0.23792  0.24354  Biso   1.000  O
  C187     1.0000 0.60180  0.30090  0.20980  Biso   1.000  C
  Zn8      1.0000 0.05838  0.52919  0.53492  Biso   1.000  Zn
  O80      1.0000 0.14251  0.57125  0.57687  Biso   1.000  O
  C188     1.0000 0.26847  0.63423  0.54313  Biso   1.000  C
  Zn9      1.0000 0.72505  0.86253  0.86826  Biso   1.000  Zn
  O81      1.0000 0.80917  0.90459  0.91021  Biso   1.000  O
  C189     1.0000 0.93513  0.96757  0.87647  Biso   1.000  C
  Zn10     1.0000 0.19586  0.80414  0.79841  Biso   1.000  Zn
  O82      1.0000 0.23792  0.76208  0.75646  Biso   1.000  O
  C190     1.0000 0.30090  0.69910  0.79020  Biso   1.000  C
  Zn11     1.0000 0.86253  0.13747  0.13174  Biso   1.000  Zn
  O83      1.0000 0.90459  0.09541  0.08979  Biso   1.000  O
  C191     1.0000 0.96757  0.03243  0.12353  Biso   1.000  C
  Zn12     1.0000 0.52919  0.47081  0.46508  Biso   1.000  Zn
  O84      1.0000 0.57125  0.42875  0.42313  Biso   1.000  O
  C192     1.0000 0.63423  0.36577  0.45687  Biso   1.000  C
  Zn13     1.0000 0.60828  0.80414  0.79841  Biso   1.000  Zn
  O85      1.0000 0.52416  0.76208  0.75646  Biso   1.000  O
  C193     1.0000 0.39820  0.69910  0.79020  Biso   1.000  C
  Zn14     1.0000 0.27495  0.13747  0.13174  Biso   1.000  Zn
  O86      1.0000 0.19083  0.09541  0.08979  Biso   1.000  O
  C194     1.0000 0.06487  0.03243  0.12353  Biso   1.000  C
  Zn15     1.0000 0.94162  0.47081  0.46508  Biso   1.000  Zn
  O87      1.0000 0.85749  0.42875  0.42313  Biso   1.000  O
  C195     1.0000 0.73153  0.36577  0.45687  Biso   1.000  C
  Zn16     1.0000 0.19586  0.39172  0.79841  Biso   1.000  Zn
  O88      1.0000 0.23792  0.47584  0.75646  Biso   1.000  O
  C196     1.0000 0.30090  0.60180  0.79020  Biso   1.000  C
  Zn17     1.0000 0.86253  0.72505  0.13174  Biso   1.000  Zn
  O89      1.0000 0.90459  0.80917  0.08979  Biso   1.000  O
  C197     1.0000 0.96757  0.93513  0.12353  Biso   1.000  C
  Zn18     1.0000 0.52919  0.05838  0.46508  Biso   1.000  Zn
  O90      1.0000 0.57125  0.14251  0.42313  Biso   1.000  O
  C198     1.0000 0.63423  0.26847  0.45687  Biso   1.000  C
  C199     1.0000 0.50575  0.01150  0.01600  Biso   1.000  C
  C200     1.0000 0.52205  0.04410  0.05460  Biso   1.000  C
  C201     1.0000 0.55415  0.10830  0.12960  Biso   1.000  C
  H37      1.0000 0.56480  0.12960  0.15460  Biso   1.000  H
  C202     1.0000 0.17242  0.34483  0.34933  Biso   1.000  C
  C203     1.0000 0.18872  0.37743  0.38793  Biso   1.000  C
  C204     1.0000 0.22082  0.44163  0.46293  Biso   1.000  C
  H38      1.0000 0.23147  0.46293  0.48793  Biso   1.000  H
  C205     1.0000 0.83908  0.67817  0.68267  Biso   1.000  C
  C206     1.0000 0.85538  0.71077  0.72127  Biso   1.000  C
  C207     1.0000 0.88748  0.77497  0.79627  Biso   1.000  C
  H39      1.0000 0.89813  0.79627  0.82127  Biso   1.000  H
  C208     1.0000 0.98850  0.49425  0.01600  Biso   1.000  C
  C209     1.0000 0.95590  0.47795  0.05460  Biso   1.000  C
  C210     1.0000 0.89170  0.44585  0.12960  Biso   1.000  C
  H40      1.0000 0.87040  0.43520  0.15460  Biso   1.000  H
  C211     1.0000 0.65517  0.82758  0.34933  Biso   1.000  C
  C212     1.0000 0.62257  0.81128  0.38793  Biso   1.000  C
  C213     1.0000 0.55837  0.77918  0.46293  Biso   1.000  C
  H41      1.0000 0.53707  0.76853  0.48793  Biso   1.000  H
  C214     1.0000 0.32183  0.16092  0.68267  Biso   1.000  C
  C215     1.0000 0.28923  0.14462  0.72127  Biso   1.000  C
  C216     1.0000 0.22503  0.11252  0.79627  Biso   1.000  C
  H42      1.0000 0.20373  0.10187  0.82127  Biso   1.000  H
  C217     1.0000 0.50575  0.49425  0.01600  Biso   1.000  C
  C218     1.0000 0.52205  0.47795  0.05460  Biso   1.000  C
  C219     1.0000 0.55415  0.44585  0.12960  Biso   1.000  C
  H43      1.0000 0.56480  0.43520  0.15460  Biso   1.000  H
  C220     1.0000 0.17242  0.82758  0.34933  Biso   1.000  C
  C221     1.0000 0.18872  0.81128  0.38793  Biso   1.000  C
  C222     1.0000 0.22082  0.77918  0.46293  Biso   1.000  C
  H44      1.0000 0.23147  0.76853  0.48793  Biso   1.000  H
  C223     1.0000 0.83908  0.16092  0.68267  Biso   1.000  C
  C224     1.0000 0.85538  0.14462  0.72127  Biso   1.000  C
  C225     1.0000 0.88748  0.11252  0.79627  Biso   1.000  C
  H45      1.0000 0.89813  0.10187  0.82127  Biso   1.000  H
  C226     1.0000 0.01150  0.50575  0.98400  Biso   1.000  C
  C227     1.0000 0.04410  0.52205  0.94540  Biso   1.000  C
  C228     1.0000 0.10830  0.55415  0.87040  Biso   1.000  C
  H46      1.0000 0.12960  0.56480  0.84540  Biso   1.000  H
  C229     1.0000 0.67817  0.83908  0.31733  Biso   1.000  C
  C230     1.0000 0.71077  0.85538  0.27873  Biso   1.000  C
  C231     1.0000 0.77497  0.88748  0.20373  Biso   1.000  C
  H47      1.0000 0.79627  0.89813  0.17873  Biso   1.000  H
  C232     1.0000 0.34483  0.17242  0.65067  Biso   1.000  C
  C233     1.0000 0.37743  0.18872  0.61207  Biso   1.000  C
  C234     1.0000 0.44163  0.22082  0.53707  Biso   1.000  C
  H48      1.0000 0.46293  0.23147  0.51207  Biso   1.000  H
  C235     1.0000 0.49425  0.98850  0.98400  Biso   1.000  C
  C236     1.0000 0.47795  0.95590  0.94540  Biso   1.000  C
  C237     1.0000 0.44585  0.89170  0.87040  Biso   1.000  C
  H49      1.0000 0.43520  0.87040  0.84540  Biso   1.000  H
  C238     1.0000 0.16092  0.32183  0.31733  Biso   1.000  C
  C239     1.0000 0.14462  0.28923  0.27873  Biso   1.000  C
  C240     1.0000 0.11252  0.22503  0.20373  Biso   1.000  C
  H50      1.0000 0.10187  0.20373  0.17873  Biso   1.000  H
  C241     1.0000 0.82758  0.65517  0.65067  Biso   1.000  C
  C242     1.0000 0.81128  0.62257  0.61207  Biso   1.000  C
  C243     1.0000 0.77918  0.55837  0.53707  Biso   1.000  C
  H51      1.0000 0.76853  0.53707  0.51207  Biso   1.000  H
  C244     1.0000 0.49425  0.50575  0.98400  Biso   1.000  C
  C245     1.0000 0.47795  0.52205  0.94540  Biso   1.000  C
  C246     1.0000 0.44585  0.55415  0.87040  Biso   1.000  C
  H52      1.0000 0.43520  0.56480  0.84540  Biso   1.000  H
  C247     1.0000 0.16092  0.83908  0.31733  Biso   1.000  C
  C248     1.0000 0.14462  0.85538  0.27873  Biso   1.000  C
  C249     1.0000 0.11252  0.88748  0.20373  Biso   1.000  C
  H53      1.0000 0.10187  0.89813  0.17873  Biso   1.000  H
  C250     1.0000 0.82758  0.17242  0.65067  Biso   1.000  C
  C251     1.0000 0.81128  0.18872  0.61207  Biso   1.000  C
  C252     1.0000 0.77918  0.22082  0.53707  Biso   1.000  C
  H54      1.0000 0.76853  0.23147  0.51207  Biso   1.000  H
