data_image0
_cell_length_a       16.744
_cell_length_b       15.787
_cell_length_c       14.295
_cell_angle_alpha    90
_cell_angle_beta     90
_cell_angle_gamma    90

_symmetry_space_group_name_H-M    "P 1"
_symmetry_int_tables_number       1

loop_
  _symmetry_equiv_pos_as_xyz
  'x, y, z'

loop_
  _atom_site_label
  _atom_site_occupancy
  _atom_site_fract_x
  _atom_site_fract_y
  _atom_site_fract_z
  _atom_site_thermal_displace_type
  _atom_site_B_iso_or_equiv
  _atom_site_type_symbol
  Co1      1.0000 0.61403  0.06370  0.21371  Biso   1.000  Co
  C1       1.0000 0.73710  0.11740  0.08710  Biso   1.000  C
  C2       1.0000 0.77200  0.03530  0.12500  Biso   1.000  C
  H1       1.0000 0.78510  0.99870  0.07270  Biso   1.000  H
  H2       1.0000 0.82130  0.04810  0.15760  Biso   1.000  H
  C3       1.0000 0.75370  0.06340  0.33300  Biso   1.000  C
  C4       1.0000 0.75540  0.97840  0.28210  Biso   1.000  C
  H3       1.0000 0.81020  0.95920  0.27520  Biso   1.000  H
  H4       1.0000 0.72640  0.93630  0.31810  Biso   1.000  H
  C5       1.0000 0.68930  0.90840  0.14890  Biso   1.000  C
  H5       1.0000 0.66560  0.87360  0.19740  Biso   1.000  H
  H6       1.0000 0.73360  0.87740  0.12170  Biso   1.000  H
  C6       1.0000 0.62650  0.92790  0.07270  Biso   1.000  C
  H7       1.0000 0.65120  0.96010  0.02260  Biso   1.000  H
  H8       1.0000 0.60660  0.87530  0.04660  Biso   1.000  H
  C7       1.0000 0.50240  0.92320  0.16420  Biso   1.000  C
  H9       1.0000 0.51020  0.86480  0.14520  Biso   1.000  H
  H10      1.0000 0.44840  0.93930  0.14710  Biso   1.000  H
  C8       1.0000 0.51080  0.92880  0.27020  Biso   1.000  C
  C9       1.0000 0.51810  0.02740  0.03850  Biso   1.000  C
  H11      1.0000 0.55610  0.06630  0.01070  Biso   1.000  H
  H12      1.0000 0.47600  0.06080  0.06710  Biso   1.000  H
  N1       1.0000 0.71840  0.98860  0.18950  Biso   1.000  N
  N2       1.0000 0.55910  0.97710  0.11260  Biso   1.000  N
  N3       1.0000 0.52120  0.14160  0.23050  Biso   1.000  N
  O1       1.0000 0.66720  0.13880  0.11380  Biso   1.000  O
  O2       1.0000 0.77770  0.15880  0.03210  Biso   1.000  O
  O3       1.0000 0.69080  0.10940  0.31880  Biso   1.000  O
  O4       1.0000 0.80900  0.08650  0.38390  Biso   1.000  O
  O5       1.0000 0.56400  0.97480  0.30560  Biso   1.000  O
  O6       1.0000 0.46210  0.88480  0.31690  Biso   1.000  O
  C10      1.0000 0.46380  0.16270  0.25890  Biso   1.000  C
  S1       1.0000 0.37940  0.20580  0.30180  Biso   1.000  S
  C11      1.0000 0.46350  0.17710  0.22040  Biso   1.000  C
  S2       1.0000 0.37060  0.22200  0.21100  Biso   1.000  S
  Co2      1.0000 0.88597  0.43630  0.21371  Biso   1.000  Co
  C12      1.0000 0.76290  0.38260  0.08710  Biso   1.000  C
  C13      1.0000 0.72800  0.46470  0.12500  Biso   1.000  C
  H13      1.0000 0.71490  0.50130  0.07270  Biso   1.000  H
  H14      1.0000 0.67870  0.45190  0.15760  Biso   1.000  H
  C14      1.0000 0.74630  0.43660  0.33300  Biso   1.000  C
  C15      1.0000 0.74460  0.52160  0.28210  Biso   1.000  C
  H15      1.0000 0.68980  0.54080  0.27520  Biso   1.000  H
  H16      1.0000 0.77360  0.56370  0.31810  Biso   1.000  H
  C16      1.0000 0.81070  0.59160  0.14890  Biso   1.000  C
  H17      1.0000 0.83440  0.62640  0.19740  Biso   1.000  H
  H18      1.0000 0.76640  0.62260  0.12170  Biso   1.000  H
  C17      1.0000 0.87350  0.57210  0.07270  Biso   1.000  C
  H19      1.0000 0.84880  0.53990  0.02260  Biso   1.000  H
  H20      1.0000 0.89340  0.62470  0.04660  Biso   1.000  H
  C18      1.0000 0.99760  0.57680  0.16420  Biso   1.000  C
  H21      1.0000 0.98980  0.63520  0.14520  Biso   1.000  H
  H22      1.0000 0.05160  0.56070  0.14710  Biso   1.000  H
  C19      1.0000 0.98920  0.57120  0.27020  Biso   1.000  C
  C20      1.0000 0.98190  0.47260  0.03850  Biso   1.000  C
  H23      1.0000 0.94390  0.43370  0.01070  Biso   1.000  H
  H24      1.0000 0.02400  0.43920  0.06710  Biso   1.000  H
  N4       1.0000 0.78160  0.51140  0.18950  Biso   1.000  N
  N5       1.0000 0.94090  0.52290  0.11260  Biso   1.000  N
  N6       1.0000 0.97880  0.35840  0.23050  Biso   1.000  N
  O7       1.0000 0.83280  0.36120  0.11380  Biso   1.000  O
  O8       1.0000 0.72230  0.34120  0.03210  Biso   1.000  O
  O9       1.0000 0.80920  0.39060  0.31880  Biso   1.000  O
  O10      1.0000 0.69100  0.41350  0.38390  Biso   1.000  O
  O11      1.0000 0.93600  0.52520  0.30560  Biso   1.000  O
  O12      1.0000 0.03790  0.61520  0.31690  Biso   1.000  O
  C21      1.0000 0.03620  0.33730  0.25890  Biso   1.000  C
  S3       1.0000 0.12060  0.29420  0.30180  Biso   1.000  S
  C22      1.0000 0.03650  0.32290  0.22040  Biso   1.000  C
  S4       1.0000 0.12940  0.27800  0.21100  Biso   1.000  S
  Co3      1.0000 0.38597  0.56370  0.28629  Biso   1.000  Co
  C23      1.0000 0.26290  0.61740  0.41290  Biso   1.000  C
  C24      1.0000 0.22800  0.53530  0.37500  Biso   1.000  C
  H25      1.0000 0.21490  0.49870  0.42730  Biso   1.000  H
  H26      1.0000 0.17870  0.54810  0.34240  Biso   1.000  H
  C25      1.0000 0.24630  0.56340  0.16700  Biso   1.000  C
  C26      1.0000 0.24460  0.47840  0.21790  Biso   1.000  C
  H27      1.0000 0.18980  0.45920  0.22480  Biso   1.000  H
  H28      1.0000 0.27360  0.43630  0.18190  Biso   1.000  H
  C27      1.0000 0.31070  0.40840  0.35110  Biso   1.000  C
  H29      1.0000 0.33440  0.37360  0.30260  Biso   1.000  H
  H30      1.0000 0.26640  0.37740  0.37830  Biso   1.000  H
  C28      1.0000 0.37350  0.42790  0.42730  Biso   1.000  C
  H31      1.0000 0.34880  0.46010  0.47740  Biso   1.000  H
  H32      1.0000 0.39340  0.37530  0.45340  Biso   1.000  H
  C29      1.0000 0.49760  0.42320  0.33580  Biso   1.000  C
  H33      1.0000 0.48980  0.36480  0.35480  Biso   1.000  H
  H34      1.0000 0.55160  0.43930  0.35290  Biso   1.000  H
  C30      1.0000 0.48920  0.42880  0.22980  Biso   1.000  C
  C31      1.0000 0.48190  0.52740  0.46150  Biso   1.000  C
  H35      1.0000 0.44390  0.56630  0.48930  Biso   1.000  H
  H36      1.0000 0.52400  0.56080  0.43290  Biso   1.000  H
  N7       1.0000 0.28160  0.48860  0.31050  Biso   1.000  N
  N8       1.0000 0.44090  0.47710  0.38740  Biso   1.000  N
  N9       1.0000 0.47880  0.64160  0.26950  Biso   1.000  N
  O13      1.0000 0.33280  0.63880  0.38620  Biso   1.000  O
  O14      1.0000 0.22230  0.65880  0.46790  Biso   1.000  O
  O15      1.0000 0.30920  0.60940  0.18120  Biso   1.000  O
  O16      1.0000 0.19100  0.58650  0.11610  Biso   1.000  O
  O17      1.0000 0.43600  0.47480  0.19440  Biso   1.000  O
  O18      1.0000 0.53790  0.38480  0.18310  Biso   1.000  O
  C32      1.0000 0.53620  0.66270  0.24110  Biso   1.000  C
  S5       1.0000 0.62060  0.70580  0.19820  Biso   1.000  S
  C33      1.0000 0.53650  0.67710  0.27960  Biso   1.000  C
  S6       1.0000 0.62940  0.72200  0.28900  Biso   1.000  S
  Co4      1.0000 0.11403  0.93630  0.28629  Biso   1.000  Co
  C34      1.0000 0.23710  0.88260  0.41290  Biso   1.000  C
  C35      1.0000 0.27200  0.96470  0.37500  Biso   1.000  C
  H37      1.0000 0.28510  0.00130  0.42730  Biso   1.000  H
  H38      1.0000 0.32130  0.95190  0.34240  Biso   1.000  H
  C36      1.0000 0.25370  0.93660  0.16700  Biso   1.000  C
  C37      1.0000 0.25540  0.02160  0.21790  Biso   1.000  C
  H39      1.0000 0.31020  0.04080  0.22480  Biso   1.000  H
  H40      1.0000 0.22640  0.06370  0.18190  Biso   1.000  H
  C38      1.0000 0.18930  0.09160  0.35110  Biso   1.000  C
  H41      1.0000 0.16560  0.12640  0.30260  Biso   1.000  H
  H42      1.0000 0.23360  0.12260  0.37830  Biso   1.000  H
  C39      1.0000 0.12650  0.07210  0.42730  Biso   1.000  C
  H43      1.0000 0.15120  0.03990  0.47740  Biso   1.000  H
  H44      1.0000 0.10660  0.12470  0.45340  Biso   1.000  H
  C40      1.0000 0.00240  0.07680  0.33580  Biso   1.000  C
  H45      1.0000 0.01020  0.13520  0.35480  Biso   1.000  H
  H46      1.0000 0.94840  0.06070  0.35290  Biso   1.000  H
  C41      1.0000 0.01080  0.07120  0.22980  Biso   1.000  C
  C42      1.0000 0.01810  0.97260  0.46150  Biso   1.000  C
  H47      1.0000 0.05610  0.93370  0.48930  Biso   1.000  H
  H48      1.0000 0.97600  0.93920  0.43290  Biso   1.000  H
  N10      1.0000 0.21840  0.01140  0.31050  Biso   1.000  N
  N11      1.0000 0.05910  0.02290  0.38740  Biso   1.000  N
  N12      1.0000 0.02120  0.85840  0.26950  Biso   1.000  N
  O19      1.0000 0.16720  0.86120  0.38620  Biso   1.000  O
  O20      1.0000 0.27770  0.84120  0.46790  Biso   1.000  O
  O21      1.0000 0.19080  0.89060  0.18120  Biso   1.000  O
  O22      1.0000 0.30900  0.91350  0.11610  Biso   1.000  O
  O23      1.0000 0.06400  0.02520  0.19440  Biso   1.000  O
  O24      1.0000 0.96210  0.11520  0.18310  Biso   1.000  O
  C43      1.0000 0.96380  0.83730  0.24110  Biso   1.000  C
  S7       1.0000 0.87940  0.79420  0.19820  Biso   1.000  S
  C44      1.0000 0.96350  0.82290  0.27960  Biso   1.000  C
  S8       1.0000 0.87060  0.77800  0.28900  Biso   1.000  S
  Co5      1.0000 0.38597  0.93630  0.78629  Biso   1.000  Co
  C45      1.0000 0.26290  0.88260  0.91290  Biso   1.000  C
  C46      1.0000 0.22800  0.96470  0.87500  Biso   1.000  C
  H49      1.0000 0.21490  0.00130  0.92730  Biso   1.000  H
  H50      1.0000 0.17870  0.95190  0.84240  Biso   1.000  H
  C47      1.0000 0.24630  0.93660  0.66700  Biso   1.000  C
  C48      1.0000 0.24460  0.02160  0.71790  Biso   1.000  C
  H51      1.0000 0.18980  0.04080  0.72480  Biso   1.000  H
  H52      1.0000 0.27360  0.06370  0.68190  Biso   1.000  H
  C49      1.0000 0.31070  0.09160  0.85110  Biso   1.000  C
  H53      1.0000 0.33440  0.12640  0.80260  Biso   1.000  H
  H54      1.0000 0.26640  0.12260  0.87830  Biso   1.000  H
  C50      1.0000 0.37350  0.07210  0.92730  Biso   1.000  C
  H55      1.0000 0.34880  0.03990  0.97740  Biso   1.000  H
  H56      1.0000 0.39340  0.12470  0.95340  Biso   1.000  H
  C51      1.0000 0.49760  0.07680  0.83580  Biso   1.000  C
  H57      1.0000 0.48980  0.13520  0.85480  Biso   1.000  H
  H58      1.0000 0.55160  0.06070  0.85290  Biso   1.000  H
  C52      1.0000 0.48920  0.07120  0.72980  Biso   1.000  C
  C53      1.0000 0.48190  0.97260  0.96150  Biso   1.000  C
  H59      1.0000 0.44390  0.93370  0.98930  Biso   1.000  H
  H60      1.0000 0.52400  0.93920  0.93290  Biso   1.000  H
  N13      1.0000 0.28160  0.01140  0.81050  Biso   1.000  N
  N14      1.0000 0.44090  0.02290  0.88740  Biso   1.000  N
  N15      1.0000 0.47880  0.85840  0.76950  Biso   1.000  N
  O25      1.0000 0.33280  0.86120  0.88620  Biso   1.000  O
  O26      1.0000 0.22230  0.84120  0.96790  Biso   1.000  O
  O27      1.0000 0.30920  0.89060  0.68120  Biso   1.000  O
  O28      1.0000 0.19100  0.91350  0.61610  Biso   1.000  O
  O29      1.0000 0.43600  0.02520  0.69440  Biso   1.000  O
  O30      1.0000 0.53790  0.11520  0.68310  Biso   1.000  O
  C54      1.0000 0.53620  0.83730  0.74110  Biso   1.000  C
  S9       1.0000 0.62060  0.79420  0.69820  Biso   1.000  S
  C55      1.0000 0.53650  0.82290  0.77960  Biso   1.000  C
  S10      1.0000 0.62940  0.77800  0.78900  Biso   1.000  S
  Co6      1.0000 0.11403  0.56370  0.78629  Biso   1.000  Co
  C56      1.0000 0.23710  0.61740  0.91290  Biso   1.000  C
  C57      1.0000 0.27200  0.53530  0.87500  Biso   1.000  C
  H61      1.0000 0.28510  0.49870  0.92730  Biso   1.000  H
  H62      1.0000 0.32130  0.54810  0.84240  Biso   1.000  H
  C58      1.0000 0.25370  0.56340  0.66700  Biso   1.000  C
  C59      1.0000 0.25540  0.47840  0.71790  Biso   1.000  C
  H63      1.0000 0.31020  0.45920  0.72480  Biso   1.000  H
  H64      1.0000 0.22640  0.43630  0.68190  Biso   1.000  H
  C60      1.0000 0.18930  0.40840  0.85110  Biso   1.000  C
  H65      1.0000 0.16560  0.37360  0.80260  Biso   1.000  H
  H66      1.0000 0.23360  0.37740  0.87830  Biso   1.000  H
  C61      1.0000 0.12650  0.42790  0.92730  Biso   1.000  C
  H67      1.0000 0.15120  0.46010  0.97740  Biso   1.000  H
  H68      1.0000 0.10660  0.37530  0.95340  Biso   1.000  H
  C62      1.0000 0.00240  0.42320  0.83580  Biso   1.000  C
  H69      1.0000 0.01020  0.36480  0.85480  Biso   1.000  H
  H70      1.0000 0.94840  0.43930  0.85290  Biso   1.000  H
  C63      1.0000 0.01080  0.42880  0.72980  Biso   1.000  C
  C64      1.0000 0.01810  0.52740  0.96150  Biso   1.000  C
  H71      1.0000 0.05610  0.56630  0.98930  Biso   1.000  H
  H72      1.0000 0.97600  0.56080  0.93290  Biso   1.000  H
  N16      1.0000 0.21840  0.48860  0.81050  Biso   1.000  N
  N17      1.0000 0.05910  0.47710  0.88740  Biso   1.000  N
  N18      1.0000 0.02120  0.64160  0.76950  Biso   1.000  N
  O31      1.0000 0.16720  0.63880  0.88620  Biso   1.000  O
  O32      1.0000 0.27770  0.65880  0.96790  Biso   1.000  O
  O33      1.0000 0.19080  0.60940  0.68120  Biso   1.000  O
  O34      1.0000 0.30900  0.58650  0.61610  Biso   1.000  O
  O35      1.0000 0.06400  0.47480  0.69440  Biso   1.000  O
  O36      1.0000 0.96210  0.38480  0.68310  Biso   1.000  O
  C65      1.0000 0.96380  0.66270  0.74110  Biso   1.000  C
  S11      1.0000 0.87940  0.70580  0.69820  Biso   1.000  S
  C66      1.0000 0.96350  0.67710  0.77960  Biso   1.000  C
  S12      1.0000 0.87060  0.72200  0.78900  Biso   1.000  S
  Co7      1.0000 0.61403  0.43630  0.71371  Biso   1.000  Co
  C67      1.0000 0.73710  0.38260  0.58710  Biso   1.000  C
  C68      1.0000 0.77200  0.46470  0.62500  Biso   1.000  C
  H73      1.0000 0.78510  0.50130  0.57270  Biso   1.000  H
  H74      1.0000 0.82130  0.45190  0.65760  Biso   1.000  H
  C69      1.0000 0.75370  0.43660  0.83300  Biso   1.000  C
  C70      1.0000 0.75540  0.52160  0.78210  Biso   1.000  C
  H75      1.0000 0.81020  0.54080  0.77520  Biso   1.000  H
  H76      1.0000 0.72640  0.56370  0.81810  Biso   1.000  H
  C71      1.0000 0.68930  0.59160  0.64890  Biso   1.000  C
  H77      1.0000 0.66560  0.62640  0.69740  Biso   1.000  H
  H78      1.0000 0.73360  0.62260  0.62170  Biso   1.000  H
  C72      1.0000 0.62650  0.57210  0.57270  Biso   1.000  C
  H79      1.0000 0.65120  0.53990  0.52260  Biso   1.000  H
  H80      1.0000 0.60660  0.62470  0.54660  Biso   1.000  H
  C73      1.0000 0.50240  0.57680  0.66420  Biso   1.000  C
  H81      1.0000 0.51020  0.63520  0.64520  Biso   1.000  H
  H82      1.0000 0.44840  0.56070  0.64710  Biso   1.000  H
  C74      1.0000 0.51080  0.57120  0.77020  Biso   1.000  C
  C75      1.0000 0.51810  0.47260  0.53850  Biso   1.000  C
  H83      1.0000 0.55610  0.43370  0.51070  Biso   1.000  H
  H84      1.0000 0.47600  0.43920  0.56710  Biso   1.000  H
  N19      1.0000 0.71840  0.51140  0.68950  Biso   1.000  N
  N20      1.0000 0.55910  0.52290  0.61260  Biso   1.000  N
  N21      1.0000 0.52120  0.35840  0.73050  Biso   1.000  N
  O37      1.0000 0.66720  0.36120  0.61380  Biso   1.000  O
  O38      1.0000 0.77770  0.34120  0.53210  Biso   1.000  O
  O39      1.0000 0.69080  0.39060  0.81880  Biso   1.000  O
  O40      1.0000 0.80900  0.41350  0.88390  Biso   1.000  O
  O41      1.0000 0.56400  0.52520  0.80560  Biso   1.000  O
  O42      1.0000 0.46210  0.61520  0.81690  Biso   1.000  O
  C76      1.0000 0.46380  0.33730  0.75890  Biso   1.000  C
  S13      1.0000 0.37940  0.29420  0.80180  Biso   1.000  S
  C77      1.0000 0.46350  0.32290  0.72040  Biso   1.000  C
  S14      1.0000 0.37060  0.27800  0.71100  Biso   1.000  S
  Co8      1.0000 0.88597  0.06370  0.71371  Biso   1.000  Co
  C78      1.0000 0.76290  0.11740  0.58710  Biso   1.000  C
  C79      1.0000 0.72800  0.03530  0.62500  Biso   1.000  C
  H85      1.0000 0.71490  0.99870  0.57270  Biso   1.000  H
  H86      1.0000 0.67870  0.04810  0.65760  Biso   1.000  H
  C80      1.0000 0.74630  0.06340  0.83300  Biso   1.000  C
  C81      1.0000 0.74460  0.97840  0.78210  Biso   1.000  C
  H87      1.0000 0.68980  0.95920  0.77520  Biso   1.000  H
  H88      1.0000 0.77360  0.93630  0.81810  Biso   1.000  H
  C82      1.0000 0.81070  0.90840  0.64890  Biso   1.000  C
  H89      1.0000 0.83440  0.87360  0.69740  Biso   1.000  H
  H90      1.0000 0.76640  0.87740  0.62170  Biso   1.000  H
  C83      1.0000 0.87350  0.92790  0.57270  Biso   1.000  C
  H91      1.0000 0.84880  0.96010  0.52260  Biso   1.000  H
  H92      1.0000 0.89340  0.87530  0.54660  Biso   1.000  H
  C84      1.0000 0.99760  0.92320  0.66420  Biso   1.000  C
  H93      1.0000 0.98980  0.86480  0.64520  Biso   1.000  H
  H94      1.0000 0.05160  0.93930  0.64710  Biso   1.000  H
  C85      1.0000 0.98920  0.92880  0.77020  Biso   1.000  C
  C86      1.0000 0.98190  0.02740  0.53850  Biso   1.000  C
  H95      1.0000 0.94390  0.06630  0.51070  Biso   1.000  H
  H96      1.0000 0.02400  0.06080  0.56710  Biso   1.000  H
  N22      1.0000 0.78160  0.98860  0.68950  Biso   1.000  N
  N23      1.0000 0.94090  0.97710  0.61260  Biso   1.000  N
  N24      1.0000 0.97880  0.14160  0.73050  Biso   1.000  N
  O43      1.0000 0.83280  0.13880  0.61380  Biso   1.000  O
  O44      1.0000 0.72230  0.15880  0.53210  Biso   1.000  O
  O45      1.0000 0.80920  0.10940  0.81880  Biso   1.000  O
  O46      1.0000 0.69100  0.08650  0.88390  Biso   1.000  O
  O47      1.0000 0.93600  0.97480  0.80560  Biso   1.000  O
  O48      1.0000 0.03790  0.88480  0.81690  Biso   1.000  O
  C87      1.0000 0.03620  0.16270  0.75890  Biso   1.000  C
  S15      1.0000 0.12060  0.20580  0.80180  Biso   1.000  S
  C88      1.0000 0.03650  0.17710  0.72040  Biso   1.000  C
  S16      1.0000 0.12940  0.22200  0.71100  Biso   1.000  S
  La1      1.0000 0.75000  0.25000  0.89163  Biso   1.000  La
  La2      1.0000 0.25000  0.75000  0.60837  Biso   1.000  La
  La3      1.0000 0.25000  0.75000  0.10837  Biso   1.000  La
  La4      1.0000 0.75000  0.25000  0.39163  Biso   1.000  La
