data_image0
_cell_length_a       18.786
_cell_length_b       16.768
_cell_length_c       12.803
_cell_angle_alpha    90
_cell_angle_beta     100.02
_cell_angle_gamma    90

_symmetry_space_group_name_H-M    "P 1"
_symmetry_int_tables_number       1

loop_
  _symmetry_equiv_pos_as_xyz
  'x, y, z'

loop_
  _atom_site_label
  _atom_site_occupancy
  _atom_site_fract_x
  _atom_site_fract_y
  _atom_site_fract_z
  _atom_site_thermal_displace_type
  _atom_site_B_iso_or_equiv
  _atom_site_type_symbol
  Zn1      1.0000 0.78935  0.55165  0.66777  Biso   1.000  Zn
  O1       1.0000 0.81810  0.64690  0.60270  Biso   1.000  O
  O2       1.0000 0.83280  0.55640  0.51190  Biso   1.000  O
  O3       1.0000 0.79350  0.67830  0.55740  Biso   1.000  O
  O4       1.0000 0.84620  0.56530  0.55900  Biso   1.000  O
  O5       1.0000 0.76760  0.42450  0.81670  Biso   1.000  O
  O6       1.0000 0.85070  0.46190  0.73190  Biso   1.000  O
  O7       1.0000 0.97360  0.86600  0.21960  Biso   1.000  O
  N1       1.0000 0.68430  0.52580  0.60040  Biso   1.000  N
  C1       1.0000 0.64010  0.49430  0.65540  Biso   1.000  C
  H1       1.0000 0.65900  0.47870  0.72430  Biso   1.000  H
  C2       1.0000 0.56880  0.48200  0.62140  Biso   1.000  C
  H2       1.0000 0.54070  0.45850  0.66600  Biso   1.000  H
  C3       1.0000 0.53790  0.50480  0.51980  Biso   1.000  C
  C4       1.0000 0.58560  0.53840  0.46190  Biso   1.000  C
  H3       1.0000 0.56870  0.55530  0.39290  Biso   1.000  H
  C5       1.0000 0.65730  0.54760  0.50380  Biso   1.000  C
  H4       1.0000 0.68790  0.57010  0.46190  Biso   1.000  H
  N2       1.0000 0.77570  0.62330  0.79130  Biso   1.000  N
  C6       1.0000 0.75730  0.72140  0.95510  Biso   1.000  C
  C7       1.0000 0.81530  0.60600  0.88830  Biso   1.000  C
  H5       1.0000 0.84780  0.56360  0.89760  Biso   1.000  H
  C8       1.0000 0.80530  0.65380  0.97190  Biso   1.000  C
  H6       1.0000 0.82980  0.64250  0.03980  Biso   1.000  H
  C9       1.0000 0.72160  0.73180  0.85700  Biso   1.000  C
  H7       1.0000 0.69040  0.77470  0.84010  Biso   1.000  H
  C10      1.0000 0.73250  0.67570  0.77950  Biso   1.000  C
  H8       1.0000 0.70340  0.68010  0.71320  Biso   1.000  H
  C11      1.0000 0.76000  0.60000  0.88560  Biso   1.000  C
  H9       1.0000 0.76090  0.54530  0.89740  Biso   1.000  H
  C12      1.0000 0.74310  0.64570  0.96640  Biso   1.000  C
  H10      1.0000 0.72360  0.62540  0.02290  Biso   1.000  H
  C13      1.0000 0.75660  0.75880  0.85820  Biso   1.000  C
  H11      1.0000 0.75100  0.81330  0.84660  Biso   1.000  H
  C14      1.0000 0.76590  0.70070  0.77780  Biso   1.000  C
  H12      1.0000 0.76480  0.72010  0.70950  Biso   1.000  H
  C15      1.0000 0.95260  0.77800  0.41470  Biso   1.000  C
  H13      1.0000 0.97470  0.82600  0.43750  Biso   1.000  H
  C16      1.0000 0.91210  0.73820  0.47960  Biso   1.000  C
  H14      1.0000 0.90950  0.75880  0.54620  Biso   1.000  H
  C17      1.0000 0.87660  0.67050  0.44760  Biso   1.000  C
  C18      1.0000 0.87870  0.64360  0.34470  Biso   1.000  C
  C19      1.0000 0.92270  0.68180  0.28500  Biso   1.000  C
  H15      1.0000 0.92680  0.66150  0.21870  Biso   1.000  H
  C20      1.0000 0.96030  0.74900  0.32110  Biso   1.000  C
  C21      1.0000 0.98290  0.79150  0.22820  Biso   1.000  C
  C22      1.0000 0.83490  0.63000  0.52120  Biso   1.000  C
  C23      1.0000 0.82950  0.41830  0.79610  Biso   1.000  C
  Zn2      1.0000 0.28935  0.05165  0.66777  Biso   1.000  Zn
  O8       1.0000 0.31810  0.14690  0.60270  Biso   1.000  O
  O9       1.0000 0.33280  0.05640  0.51190  Biso   1.000  O
  O10      1.0000 0.29350  0.17830  0.55740  Biso   1.000  O
  O11      1.0000 0.34620  0.06530  0.55900  Biso   1.000  O
  O12      1.0000 0.26760  0.92450  0.81670  Biso   1.000  O
  O13      1.0000 0.35070  0.96190  0.73190  Biso   1.000  O
  O14      1.0000 0.47360  0.36600  0.21960  Biso   1.000  O
  N3       1.0000 0.18430  0.02580  0.60040  Biso   1.000  N
  C24      1.0000 0.14010  0.99430  0.65540  Biso   1.000  C
  H16      1.0000 0.15900  0.97870  0.72430  Biso   1.000  H
  C25      1.0000 0.06880  0.98200  0.62140  Biso   1.000  C
  H17      1.0000 0.04070  0.95850  0.66600  Biso   1.000  H
  C26      1.0000 0.03790  0.00480  0.51980  Biso   1.000  C
  C27      1.0000 0.08560  0.03840  0.46190  Biso   1.000  C
  H18      1.0000 0.06870  0.05530  0.39290  Biso   1.000  H
  C28      1.0000 0.15730  0.04760  0.50380  Biso   1.000  C
  H19      1.0000 0.18790  0.07010  0.46190  Biso   1.000  H
  N4       1.0000 0.27570  0.12330  0.79130  Biso   1.000  N
  C29      1.0000 0.25730  0.22140  0.95510  Biso   1.000  C
  C30      1.0000 0.31530  0.10600  0.88830  Biso   1.000  C
  H20      1.0000 0.34780  0.06360  0.89760  Biso   1.000  H
  C31      1.0000 0.30530  0.15380  0.97190  Biso   1.000  C
  H21      1.0000 0.32980  0.14250  0.03980  Biso   1.000  H
  C32      1.0000 0.22160  0.23180  0.85700  Biso   1.000  C
  H22      1.0000 0.19040  0.27470  0.84010  Biso   1.000  H
  C33      1.0000 0.23250  0.17570  0.77950  Biso   1.000  C
  H23      1.0000 0.20340  0.18010  0.71320  Biso   1.000  H
  C34      1.0000 0.26000  0.10000  0.88560  Biso   1.000  C
  H24      1.0000 0.26090  0.04530  0.89740  Biso   1.000  H
  C35      1.0000 0.24310  0.14570  0.96640  Biso   1.000  C
  H25      1.0000 0.22360  0.12540  0.02290  Biso   1.000  H
  C36      1.0000 0.25660  0.25880  0.85820  Biso   1.000  C
  H26      1.0000 0.25100  0.31330  0.84660  Biso   1.000  H
  C37      1.0000 0.26590  0.20070  0.77780  Biso   1.000  C
  H27      1.0000 0.26480  0.22010  0.70950  Biso   1.000  H
  C38      1.0000 0.45260  0.27800  0.41470  Biso   1.000  C
  H28      1.0000 0.47470  0.32600  0.43750  Biso   1.000  H
  C39      1.0000 0.41210  0.23820  0.47960  Biso   1.000  C
  H29      1.0000 0.40950  0.25880  0.54620  Biso   1.000  H
  C40      1.0000 0.37660  0.17050  0.44760  Biso   1.000  C
  C41      1.0000 0.37870  0.14360  0.34470  Biso   1.000  C
  C42      1.0000 0.42270  0.18180  0.28500  Biso   1.000  C
  H30      1.0000 0.42680  0.16150  0.21870  Biso   1.000  H
  C43      1.0000 0.46030  0.24900  0.32110  Biso   1.000  C
  C44      1.0000 0.48290  0.29150  0.22820  Biso   1.000  C
  C45      1.0000 0.33490  0.13000  0.52120  Biso   1.000  C
  C46      1.0000 0.32950  0.91830  0.79610  Biso   1.000  C
  Zn3      1.0000 0.21065  0.55165  0.83223  Biso   1.000  Zn
  O15      1.0000 0.18190  0.64690  0.89730  Biso   1.000  O
  O16      1.0000 0.16720  0.55640  0.98810  Biso   1.000  O
  O17      1.0000 0.20650  0.67830  0.94260  Biso   1.000  O
  O18      1.0000 0.15380  0.56530  0.94100  Biso   1.000  O
  O19      1.0000 0.23240  0.42450  0.68330  Biso   1.000  O
  O20      1.0000 0.14930  0.46190  0.76810  Biso   1.000  O
  O21      1.0000 0.02640  0.86600  0.28040  Biso   1.000  O
  N5       1.0000 0.31570  0.52580  0.89960  Biso   1.000  N
  C47      1.0000 0.35990  0.49430  0.84460  Biso   1.000  C
  H31      1.0000 0.34100  0.47870  0.77570  Biso   1.000  H
  C48      1.0000 0.43120  0.48200  0.87860  Biso   1.000  C
  H32      1.0000 0.45930  0.45850  0.83400  Biso   1.000  H
  C49      1.0000 0.46210  0.50480  0.98020  Biso   1.000  C
  C50      1.0000 0.41440  0.53840  0.03810  Biso   1.000  C
  H33      1.0000 0.43130  0.55530  0.10710  Biso   1.000  H
  C51      1.0000 0.34270  0.54760  0.99620  Biso   1.000  C
  H34      1.0000 0.31210  0.57010  0.03810  Biso   1.000  H
  N6       1.0000 0.22430  0.62330  0.70870  Biso   1.000  N
  C52      1.0000 0.24270  0.72140  0.54490  Biso   1.000  C
  C53      1.0000 0.18470  0.60600  0.61170  Biso   1.000  C
  H35      1.0000 0.15220  0.56360  0.60240  Biso   1.000  H
  C54      1.0000 0.19470  0.65380  0.52810  Biso   1.000  C
  H36      1.0000 0.17020  0.64250  0.46020  Biso   1.000  H
  C55      1.0000 0.27840  0.73180  0.64300  Biso   1.000  C
  H37      1.0000 0.30960  0.77470  0.65990  Biso   1.000  H
  C56      1.0000 0.26750  0.67570  0.72050  Biso   1.000  C
  H38      1.0000 0.29660  0.68010  0.78680  Biso   1.000  H
  C57      1.0000 0.24000  0.60000  0.61440  Biso   1.000  C
  H39      1.0000 0.23910  0.54530  0.60260  Biso   1.000  H
  C58      1.0000 0.25690  0.64570  0.53360  Biso   1.000  C
  H40      1.0000 0.27640  0.62540  0.47710  Biso   1.000  H
  C59      1.0000 0.24340  0.75880  0.64180  Biso   1.000  C
  H41      1.0000 0.24900  0.81330  0.65340  Biso   1.000  H
  C60      1.0000 0.23410  0.70070  0.72220  Biso   1.000  C
  H42      1.0000 0.23520  0.72010  0.79050  Biso   1.000  H
  C61      1.0000 0.04740  0.77800  0.08530  Biso   1.000  C
  H43      1.0000 0.02530  0.82600  0.06250  Biso   1.000  H
  C62      1.0000 0.08790  0.73820  0.02040  Biso   1.000  C
  H44      1.0000 0.09050  0.75880  0.95380  Biso   1.000  H
  C63      1.0000 0.12340  0.67050  0.05240  Biso   1.000  C
  C64      1.0000 0.12130  0.64360  0.15530  Biso   1.000  C
  C65      1.0000 0.07730  0.68180  0.21500  Biso   1.000  C
  H45      1.0000 0.07320  0.66150  0.28130  Biso   1.000  H
  C66      1.0000 0.03970  0.74900  0.17890  Biso   1.000  C
  C67      1.0000 0.01710  0.79150  0.27180  Biso   1.000  C
  C68      1.0000 0.16510  0.63000  0.97880  Biso   1.000  C
  C69      1.0000 0.17050  0.41830  0.70390  Biso   1.000  C
  Zn4      1.0000 0.71065  0.05165  0.83223  Biso   1.000  Zn
  O22      1.0000 0.68190  0.14690  0.89730  Biso   1.000  O
  O23      1.0000 0.66720  0.05640  0.98810  Biso   1.000  O
  O24      1.0000 0.70650  0.17830  0.94260  Biso   1.000  O
  O25      1.0000 0.65380  0.06530  0.94100  Biso   1.000  O
  O26      1.0000 0.73240  0.92450  0.68330  Biso   1.000  O
  O27      1.0000 0.64930  0.96190  0.76810  Biso   1.000  O
  O28      1.0000 0.52640  0.36600  0.28040  Biso   1.000  O
  N7       1.0000 0.81570  0.02580  0.89960  Biso   1.000  N
  C70      1.0000 0.85990  0.99430  0.84460  Biso   1.000  C
  H46      1.0000 0.84100  0.97870  0.77570  Biso   1.000  H
  C71      1.0000 0.93120  0.98200  0.87860  Biso   1.000  C
  H47      1.0000 0.95930  0.95850  0.83400  Biso   1.000  H
  C72      1.0000 0.96210  0.00480  0.98020  Biso   1.000  C
  C73      1.0000 0.91440  0.03840  0.03810  Biso   1.000  C
  H48      1.0000 0.93130  0.05530  0.10710  Biso   1.000  H
  C74      1.0000 0.84270  0.04760  0.99620  Biso   1.000  C
  H49      1.0000 0.81210  0.07010  0.03810  Biso   1.000  H
  N8       1.0000 0.72430  0.12330  0.70870  Biso   1.000  N
  C75      1.0000 0.74270  0.22140  0.54490  Biso   1.000  C
  C76      1.0000 0.68470  0.10600  0.61170  Biso   1.000  C
  H50      1.0000 0.65220  0.06360  0.60240  Biso   1.000  H
  C77      1.0000 0.69470  0.15380  0.52810  Biso   1.000  C
  H51      1.0000 0.67020  0.14250  0.46020  Biso   1.000  H
  C78      1.0000 0.77840  0.23180  0.64300  Biso   1.000  C
  H52      1.0000 0.80960  0.27470  0.65990  Biso   1.000  H
  C79      1.0000 0.76750  0.17570  0.72050  Biso   1.000  C
  H53      1.0000 0.79660  0.18010  0.78680  Biso   1.000  H
  C80      1.0000 0.74000  0.10000  0.61440  Biso   1.000  C
  H54      1.0000 0.73910  0.04530  0.60260  Biso   1.000  H
  C81      1.0000 0.75690  0.14570  0.53360  Biso   1.000  C
  H55      1.0000 0.77640  0.12540  0.47710  Biso   1.000  H
  C82      1.0000 0.74340  0.25880  0.64180  Biso   1.000  C
  H56      1.0000 0.74900  0.31330  0.65340  Biso   1.000  H
  C83      1.0000 0.73410  0.20070  0.72220  Biso   1.000  C
  H57      1.0000 0.73520  0.22010  0.79050  Biso   1.000  H
  C84      1.0000 0.54740  0.27800  0.08530  Biso   1.000  C
  H58      1.0000 0.52530  0.32600  0.06250  Biso   1.000  H
  C85      1.0000 0.58790  0.23820  0.02040  Biso   1.000  C
  H59      1.0000 0.59050  0.25880  0.95380  Biso   1.000  H
  C86      1.0000 0.62340  0.17050  0.05240  Biso   1.000  C
  C87      1.0000 0.62130  0.14360  0.15530  Biso   1.000  C
  C88      1.0000 0.57730  0.18180  0.21500  Biso   1.000  C
  H60      1.0000 0.57320  0.16150  0.28130  Biso   1.000  H
  C89      1.0000 0.53970  0.24900  0.17890  Biso   1.000  C
  C90      1.0000 0.51710  0.29150  0.27180  Biso   1.000  C
  C91      1.0000 0.66510  0.13000  0.97880  Biso   1.000  C
  C92      1.0000 0.67050  0.91830  0.70390  Biso   1.000  C
  Zn5      1.0000 0.21065  0.44835  0.33223  Biso   1.000  Zn
  O29      1.0000 0.18190  0.35310  0.39730  Biso   1.000  O
  O30      1.0000 0.16720  0.44360  0.48810  Biso   1.000  O
  O31      1.0000 0.20650  0.32170  0.44260  Biso   1.000  O
  O32      1.0000 0.15380  0.43470  0.44100  Biso   1.000  O
  O33      1.0000 0.23240  0.57550  0.18330  Biso   1.000  O
  O34      1.0000 0.14930  0.53810  0.26810  Biso   1.000  O
  O35      1.0000 0.02640  0.13400  0.78040  Biso   1.000  O
  N9       1.0000 0.31570  0.47420  0.39960  Biso   1.000  N
  C93      1.0000 0.35990  0.50570  0.34460  Biso   1.000  C
  H61      1.0000 0.34100  0.52130  0.27570  Biso   1.000  H
  C94      1.0000 0.43120  0.51800  0.37860  Biso   1.000  C
  H62      1.0000 0.45930  0.54150  0.33400  Biso   1.000  H
  C95      1.0000 0.46210  0.49520  0.48020  Biso   1.000  C
  C96      1.0000 0.41440  0.46160  0.53810  Biso   1.000  C
  H63      1.0000 0.43130  0.44470  0.60710  Biso   1.000  H
  C97      1.0000 0.34270  0.45240  0.49620  Biso   1.000  C
  H64      1.0000 0.31210  0.42990  0.53810  Biso   1.000  H
  N10      1.0000 0.22430  0.37670  0.20870  Biso   1.000  N
  C98      1.0000 0.24270  0.27860  0.04490  Biso   1.000  C
  C99      1.0000 0.18470  0.39400  0.11170  Biso   1.000  C
  H65      1.0000 0.15220  0.43640  0.10240  Biso   1.000  H
  C100     1.0000 0.19470  0.34620  0.02810  Biso   1.000  C
  H66      1.0000 0.17020  0.35750  0.96020  Biso   1.000  H
  C101     1.0000 0.27840  0.26820  0.14300  Biso   1.000  C
  H67      1.0000 0.30960  0.22530  0.15990  Biso   1.000  H
  C102     1.0000 0.26750  0.32430  0.22050  Biso   1.000  C
  H68      1.0000 0.29660  0.31990  0.28680  Biso   1.000  H
  C103     1.0000 0.24000  0.40000  0.11440  Biso   1.000  C
  H69      1.0000 0.23910  0.45470  0.10260  Biso   1.000  H
  C104     1.0000 0.25690  0.35430  0.03360  Biso   1.000  C
  H70      1.0000 0.27640  0.37460  0.97710  Biso   1.000  H
  C105     1.0000 0.24340  0.24120  0.14180  Biso   1.000  C
  H71      1.0000 0.24900  0.18670  0.15340  Biso   1.000  H
  C106     1.0000 0.23410  0.29930  0.22220  Biso   1.000  C
  H72      1.0000 0.23520  0.27990  0.29050  Biso   1.000  H
  C107     1.0000 0.04740  0.22200  0.58530  Biso   1.000  C
  H73      1.0000 0.02530  0.17400  0.56250  Biso   1.000  H
  C108     1.0000 0.08790  0.26180  0.52040  Biso   1.000  C
  H74      1.0000 0.09050  0.24120  0.45380  Biso   1.000  H
  C109     1.0000 0.12340  0.32950  0.55240  Biso   1.000  C
  C110     1.0000 0.12130  0.35640  0.65530  Biso   1.000  C
  C111     1.0000 0.07730  0.31820  0.71500  Biso   1.000  C
  H75      1.0000 0.07320  0.33850  0.78130  Biso   1.000  H
  C112     1.0000 0.03970  0.25100  0.67890  Biso   1.000  C
  C113     1.0000 0.01710  0.20850  0.77180  Biso   1.000  C
  C114     1.0000 0.16510  0.37000  0.47880  Biso   1.000  C
  C115     1.0000 0.17050  0.58170  0.20390  Biso   1.000  C
  Zn6      1.0000 0.71065  0.94835  0.33223  Biso   1.000  Zn
  O36      1.0000 0.68190  0.85310  0.39730  Biso   1.000  O
  O37      1.0000 0.66720  0.94360  0.48810  Biso   1.000  O
  O38      1.0000 0.70650  0.82170  0.44260  Biso   1.000  O
  O39      1.0000 0.65380  0.93470  0.44100  Biso   1.000  O
  O40      1.0000 0.73240  0.07550  0.18330  Biso   1.000  O
  O41      1.0000 0.64930  0.03810  0.26810  Biso   1.000  O
  O42      1.0000 0.52640  0.63400  0.78040  Biso   1.000  O
  N11      1.0000 0.81570  0.97420  0.39960  Biso   1.000  N
  C116     1.0000 0.85990  0.00570  0.34460  Biso   1.000  C
  H76      1.0000 0.84100  0.02130  0.27570  Biso   1.000  H
  C117     1.0000 0.93120  0.01800  0.37860  Biso   1.000  C
  H77      1.0000 0.95930  0.04150  0.33400  Biso   1.000  H
  C118     1.0000 0.96210  0.99520  0.48020  Biso   1.000  C
  C119     1.0000 0.91440  0.96160  0.53810  Biso   1.000  C
  H78      1.0000 0.93130  0.94470  0.60710  Biso   1.000  H
  C120     1.0000 0.84270  0.95240  0.49620  Biso   1.000  C
  H79      1.0000 0.81210  0.92990  0.53810  Biso   1.000  H
  N12      1.0000 0.72430  0.87670  0.20870  Biso   1.000  N
  C121     1.0000 0.74270  0.77860  0.04490  Biso   1.000  C
  C122     1.0000 0.68470  0.89400  0.11170  Biso   1.000  C
  H80      1.0000 0.65220  0.93640  0.10240  Biso   1.000  H
  C123     1.0000 0.69470  0.84620  0.02810  Biso   1.000  C
  H81      1.0000 0.67020  0.85750  0.96020  Biso   1.000  H
  C124     1.0000 0.77840  0.76820  0.14300  Biso   1.000  C
  H82      1.0000 0.80960  0.72530  0.15990  Biso   1.000  H
  C125     1.0000 0.76750  0.82430  0.22050  Biso   1.000  C
  H83      1.0000 0.79660  0.81990  0.28680  Biso   1.000  H
  C126     1.0000 0.74000  0.90000  0.11440  Biso   1.000  C
  H84      1.0000 0.73910  0.95470  0.10260  Biso   1.000  H
  C127     1.0000 0.75690  0.85430  0.03360  Biso   1.000  C
  H85      1.0000 0.77640  0.87460  0.97710  Biso   1.000  H
  C128     1.0000 0.74340  0.74120  0.14180  Biso   1.000  C
  H86      1.0000 0.74900  0.68670  0.15340  Biso   1.000  H
  C129     1.0000 0.73410  0.79930  0.22220  Biso   1.000  C
  H87      1.0000 0.73520  0.77990  0.29050  Biso   1.000  H
  C130     1.0000 0.54740  0.72200  0.58530  Biso   1.000  C
  H88      1.0000 0.52530  0.67400  0.56250  Biso   1.000  H
  C131     1.0000 0.58790  0.76180  0.52040  Biso   1.000  C
  H89      1.0000 0.59050  0.74120  0.45380  Biso   1.000  H
  C132     1.0000 0.62340  0.82950  0.55240  Biso   1.000  C
  C133     1.0000 0.62130  0.85640  0.65530  Biso   1.000  C
  C134     1.0000 0.57730  0.81820  0.71500  Biso   1.000  C
  H90      1.0000 0.57320  0.83850  0.78130  Biso   1.000  H
  C135     1.0000 0.53970  0.75100  0.67890  Biso   1.000  C
  C136     1.0000 0.51710  0.70850  0.77180  Biso   1.000  C
  C137     1.0000 0.66510  0.87000  0.47880  Biso   1.000  C
  C138     1.0000 0.67050  0.08170  0.20390  Biso   1.000  C
  Zn7      1.0000 0.78935  0.44835  0.16777  Biso   1.000  Zn
  O43      1.0000 0.81810  0.35310  0.10270  Biso   1.000  O
  O44      1.0000 0.83280  0.44360  0.01190  Biso   1.000  O
  O45      1.0000 0.79350  0.32170  0.05740  Biso   1.000  O
  O46      1.0000 0.84620  0.43470  0.05900  Biso   1.000  O
  O47      1.0000 0.76760  0.57550  0.31670  Biso   1.000  O
  O48      1.0000 0.85070  0.53810  0.23190  Biso   1.000  O
  O49      1.0000 0.97360  0.13400  0.71960  Biso   1.000  O
  N13      1.0000 0.68430  0.47420  0.10040  Biso   1.000  N
  C139     1.0000 0.64010  0.50570  0.15540  Biso   1.000  C
  H91      1.0000 0.65900  0.52130  0.22430  Biso   1.000  H
  C140     1.0000 0.56880  0.51800  0.12140  Biso   1.000  C
  H92      1.0000 0.54070  0.54150  0.16600  Biso   1.000  H
  C141     1.0000 0.53790  0.49520  0.01980  Biso   1.000  C
  C142     1.0000 0.58560  0.46160  0.96190  Biso   1.000  C
  H93      1.0000 0.56870  0.44470  0.89290  Biso   1.000  H
  C143     1.0000 0.65730  0.45240  0.00380  Biso   1.000  C
  H94      1.0000 0.68790  0.42990  0.96190  Biso   1.000  H
  N14      1.0000 0.77570  0.37670  0.29130  Biso   1.000  N
  C144     1.0000 0.75730  0.27860  0.45510  Biso   1.000  C
  C145     1.0000 0.81530  0.39400  0.38830  Biso   1.000  C
  H95      1.0000 0.84780  0.43640  0.39760  Biso   1.000  H
  C146     1.0000 0.80530  0.34620  0.47190  Biso   1.000  C
  H96      1.0000 0.82980  0.35750  0.53980  Biso   1.000  H
  C147     1.0000 0.72160  0.26820  0.35700  Biso   1.000  C
  H97      1.0000 0.69040  0.22530  0.34010  Biso   1.000  H
  C148     1.0000 0.73250  0.32430  0.27950  Biso   1.000  C
  H98      1.0000 0.70340  0.31990  0.21320  Biso   1.000  H
  C149     1.0000 0.76000  0.40000  0.38560  Biso   1.000  C
  H99      1.0000 0.76090  0.45470  0.39740  Biso   1.000  H
  C150     1.0000 0.74310  0.35430  0.46640  Biso   1.000  C
  H100     1.0000 0.72360  0.37460  0.52290  Biso   1.000  H
  C151     1.0000 0.75660  0.24120  0.35820  Biso   1.000  C
  H101     1.0000 0.75100  0.18670  0.34660  Biso   1.000  H
  C152     1.0000 0.76590  0.29930  0.27780  Biso   1.000  C
  H102     1.0000 0.76480  0.27990  0.20950  Biso   1.000  H
  C153     1.0000 0.95260  0.22200  0.91470  Biso   1.000  C
  H103     1.0000 0.97470  0.17400  0.93750  Biso   1.000  H
  C154     1.0000 0.91210  0.26180  0.97960  Biso   1.000  C
  H104     1.0000 0.90950  0.24120  0.04620  Biso   1.000  H
  C155     1.0000 0.87660  0.32950  0.94760  Biso   1.000  C
  C156     1.0000 0.87870  0.35640  0.84470  Biso   1.000  C
  C157     1.0000 0.92270  0.31820  0.78500  Biso   1.000  C
  H105     1.0000 0.92680  0.33850  0.71870  Biso   1.000  H
  C158     1.0000 0.96030  0.25100  0.82110  Biso   1.000  C
  C159     1.0000 0.98290  0.20850  0.72820  Biso   1.000  C
  C160     1.0000 0.83490  0.37000  0.02120  Biso   1.000  C
  C161     1.0000 0.82950  0.58170  0.29610  Biso   1.000  C
  Zn8      1.0000 0.28935  0.94835  0.16777  Biso   1.000  Zn
  O50      1.0000 0.31810  0.85310  0.10270  Biso   1.000  O
  O51      1.0000 0.33280  0.94360  0.01190  Biso   1.000  O
  O52      1.0000 0.29350  0.82170  0.05740  Biso   1.000  O
  O53      1.0000 0.34620  0.93470  0.05900  Biso   1.000  O
  O54      1.0000 0.26760  0.07550  0.31670  Biso   1.000  O
  O55      1.0000 0.35070  0.03810  0.23190  Biso   1.000  O
  O56      1.0000 0.47360  0.63400  0.71960  Biso   1.000  O
  N15      1.0000 0.18430  0.97420  0.10040  Biso   1.000  N
  C162     1.0000 0.14010  0.00570  0.15540  Biso   1.000  C
  H106     1.0000 0.15900  0.02130  0.22430  Biso   1.000  H
  C163     1.0000 0.06880  0.01800  0.12140  Biso   1.000  C
  H107     1.0000 0.04070  0.04150  0.16600  Biso   1.000  H
  C164     1.0000 0.03790  0.99520  0.01980  Biso   1.000  C
  C165     1.0000 0.08560  0.96160  0.96190  Biso   1.000  C
  H108     1.0000 0.06870  0.94470  0.89290  Biso   1.000  H
  C166     1.0000 0.15730  0.95240  0.00380  Biso   1.000  C
  H109     1.0000 0.18790  0.92990  0.96190  Biso   1.000  H
  N16      1.0000 0.27570  0.87670  0.29130  Biso   1.000  N
  C167     1.0000 0.25730  0.77860  0.45510  Biso   1.000  C
  C168     1.0000 0.31530  0.89400  0.38830  Biso   1.000  C
  H110     1.0000 0.34780  0.93640  0.39760  Biso   1.000  H
  C169     1.0000 0.30530  0.84620  0.47190  Biso   1.000  C
  H111     1.0000 0.32980  0.85750  0.53980  Biso   1.000  H
  C170     1.0000 0.22160  0.76820  0.35700  Biso   1.000  C
  H112     1.0000 0.19040  0.72530  0.34010  Biso   1.000  H
  C171     1.0000 0.23250  0.82430  0.27950  Biso   1.000  C
  H113     1.0000 0.20340  0.81990  0.21320  Biso   1.000  H
  C172     1.0000 0.26000  0.90000  0.38560  Biso   1.000  C
  H114     1.0000 0.26090  0.95470  0.39740  Biso   1.000  H
  C173     1.0000 0.24310  0.85430  0.46640  Biso   1.000  C
  H115     1.0000 0.22360  0.87460  0.52290  Biso   1.000  H
  C174     1.0000 0.25660  0.74120  0.35820  Biso   1.000  C
  H116     1.0000 0.25100  0.68670  0.34660  Biso   1.000  H
  C175     1.0000 0.26590  0.79930  0.27780  Biso   1.000  C
  H117     1.0000 0.26480  0.77990  0.20950  Biso   1.000  H
  C176     1.0000 0.45260  0.72200  0.91470  Biso   1.000  C
  H118     1.0000 0.47470  0.67400  0.93750  Biso   1.000  H
  C177     1.0000 0.41210  0.76180  0.97960  Biso   1.000  C
  H119     1.0000 0.40950  0.74120  0.04620  Biso   1.000  H
  C178     1.0000 0.37660  0.82950  0.94760  Biso   1.000  C
  C179     1.0000 0.37870  0.85640  0.84470  Biso   1.000  C
  C180     1.0000 0.42270  0.81820  0.78500  Biso   1.000  C
  H120     1.0000 0.42680  0.83850  0.71870  Biso   1.000  H
  C181     1.0000 0.46030  0.75100  0.82110  Biso   1.000  C
  C182     1.0000 0.48290  0.70850  0.72820  Biso   1.000  C
  C183     1.0000 0.33490  0.87000  0.02120  Biso   1.000  C
  C184     1.0000 0.32950  0.08170  0.29610  Biso   1.000  C
