data_image0
_cell_length_a       13.0959
_cell_length_b       13.0959
_cell_length_c       13.65
_cell_angle_alpha    90
_cell_angle_beta     90
_cell_angle_gamma    120

_symmetry_space_group_name_H-M    "P 1"
_symmetry_int_tables_number       1

loop_
  _symmetry_equiv_pos_as_xyz
  'x, y, z'

loop_
  _atom_site_label
  _atom_site_occupancy
  _atom_site_fract_x
  _atom_site_fract_y
  _atom_site_fract_z
  _atom_site_thermal_displace_type
  _atom_site_B_iso_or_equiv
  _atom_site_type_symbol
  N1       1.0000 0.05000  0.52520  0.16860  Biso   1.000  N
  N2       1.0000 0.16330  0.58140  0.20270  Biso   1.000  N
  N3       1.0000 0.86130  0.55920  0.03280  Biso   1.000  N
  N4       1.0000 0.75180  0.50470  0.00070  Biso   1.000  N
  N5       1.0000 0.69890  0.56000  0.03330  Biso   1.000  N
  N6       1.0000 0.77610  0.65030  0.08500  Biso   1.000  N
  C1       1.0000 0.87550  0.64980  0.08570  Biso   1.000  C
  C2       1.0000 0.97700  0.74700  0.13800  Biso   1.000  C
  H1       1.0000 0.01830  0.81270  0.09450  Biso   1.000  H
  H2       1.0000 0.02890  0.72040  0.16050  Biso   1.000  H
  H3       1.0000 0.94820  0.77110  0.19330  Biso   1.000  H
  C3       1.0000 0.77000  0.74700  0.13800  Biso   1.000  C
  H4       1.0000 0.81680  0.76670  0.19670  Biso   1.000  H
  H5       1.0000 0.68960  0.72120  0.15520  Biso   1.000  H
  H6       1.0000 0.79970  0.81520  0.09670  Biso   1.000  H
  H7       1.0000 0.82410  0.34300  0.25380  Biso   1.000  H
  H8       1.0000 0.82410  0.44310  0.19080  Biso   1.000  H
  H9       1.0000 0.82410  0.44990  0.30550  Biso   1.000  H
  N7       1.0000 0.47480  0.52480  0.16860  Biso   1.000  N
  N8       1.0000 0.41860  0.58190  0.20270  Biso   1.000  N
  N9       1.0000 0.44080  0.30210  0.03280  Biso   1.000  N
  N10      1.0000 0.49530  0.24710  0.00070  Biso   1.000  N
  N11      1.0000 0.44000  0.13890  0.03330  Biso   1.000  N
  N12      1.0000 0.34970  0.12580  0.08500  Biso   1.000  N
  C4       1.0000 0.35020  0.22570  0.08570  Biso   1.000  C
  C5       1.0000 0.25300  0.23000  0.13800  Biso   1.000  C
  H10      1.0000 0.18730  0.20560  0.09450  Biso   1.000  H
  H11      1.0000 0.27960  0.30850  0.16050  Biso   1.000  H
  H12      1.0000 0.22890  0.17710  0.19330  Biso   1.000  H
  C6       1.0000 0.25300  0.02300  0.13800  Biso   1.000  C
  H13      1.0000 0.23330  0.05010  0.19670  Biso   1.000  H
  H14      1.0000 0.27880  0.96840  0.15520  Biso   1.000  H
  H15      1.0000 0.18480  0.98450  0.09670  Biso   1.000  H
  H16      1.0000 0.65700  0.48110  0.25380  Biso   1.000  H
  H17      1.0000 0.55690  0.38100  0.19080  Biso   1.000  H
  H18      1.0000 0.55010  0.37420  0.30550  Biso   1.000  H
  N13      1.0000 0.47520  0.95000  0.16860  Biso   1.000  N
  N14      1.0000 0.41810  0.83670  0.20270  Biso   1.000  N
  N15      1.0000 0.69790  0.13870  0.03280  Biso   1.000  N
  N16      1.0000 0.75290  0.24820  0.00070  Biso   1.000  N
  N17      1.0000 0.86110  0.30110  0.03330  Biso   1.000  N
  N18      1.0000 0.87420  0.22390  0.08500  Biso   1.000  N
  C7       1.0000 0.77430  0.12450  0.08570  Biso   1.000  C
  C8       1.0000 0.77000  0.02300  0.13800  Biso   1.000  C
  H19      1.0000 0.79440  0.98170  0.09450  Biso   1.000  H
  H20      1.0000 0.69150  0.97110  0.16050  Biso   1.000  H
  H21      1.0000 0.82290  0.05180  0.19330  Biso   1.000  H
  C9       1.0000 0.97700  0.23000  0.13800  Biso   1.000  C
  H22      1.0000 0.94990  0.18320  0.19670  Biso   1.000  H
  H23      1.0000 0.03160  0.31040  0.15520  Biso   1.000  H
  H24      1.0000 0.01550  0.20030  0.09670  Biso   1.000  H
  H25      1.0000 0.51890  0.17590  0.25380  Biso   1.000  H
  H26      1.0000 0.61900  0.17590  0.19080  Biso   1.000  H
  H27      1.0000 0.62580  0.17590  0.30550  Biso   1.000  H
  N19      1.0000 0.47480  0.95000  0.33140  Biso   1.000  N
  N20      1.0000 0.41860  0.83670  0.29730  Biso   1.000  N
  N21      1.0000 0.44080  0.13870  0.46720  Biso   1.000  N
  N22      1.0000 0.49530  0.24820  0.49930  Biso   1.000  N
  N23      1.0000 0.44000  0.30110  0.46670  Biso   1.000  N
  N24      1.0000 0.34970  0.22390  0.41500  Biso   1.000  N
  C10      1.0000 0.35020  0.12450  0.41430  Biso   1.000  C
  C11      1.0000 0.25300  0.02300  0.36200  Biso   1.000  C
  H28      1.0000 0.18730  0.98170  0.40550  Biso   1.000  H
  H29      1.0000 0.27960  0.97110  0.33950  Biso   1.000  H
  H30      1.0000 0.22890  0.05180  0.30670  Biso   1.000  H
  C12      1.0000 0.25300  0.23000  0.36200  Biso   1.000  C
  H31      1.0000 0.23330  0.18320  0.30330  Biso   1.000  H
  H32      1.0000 0.27880  0.31040  0.34480  Biso   1.000  H
  H33      1.0000 0.18480  0.20030  0.40330  Biso   1.000  H
  H34      1.0000 0.65700  0.17590  0.24620  Biso   1.000  H
  H35      1.0000 0.55690  0.17590  0.30920  Biso   1.000  H
  H36      1.0000 0.55010  0.17590  0.19450  Biso   1.000  H
  N25      1.0000 0.47520  0.52520  0.33140  Biso   1.000  N
  N26      1.0000 0.41810  0.58140  0.29730  Biso   1.000  N
  N27      1.0000 0.69790  0.55920  0.46720  Biso   1.000  N
  N28      1.0000 0.75290  0.50470  0.49930  Biso   1.000  N
  N29      1.0000 0.86110  0.56000  0.46670  Biso   1.000  N
  N30      1.0000 0.87420  0.65030  0.41500  Biso   1.000  N
  C13      1.0000 0.77430  0.64980  0.41430  Biso   1.000  C
  C14      1.0000 0.77000  0.74700  0.36200  Biso   1.000  C
  H37      1.0000 0.79440  0.81270  0.40550  Biso   1.000  H
  H38      1.0000 0.69150  0.72040  0.33950  Biso   1.000  H
  H39      1.0000 0.82290  0.77110  0.30670  Biso   1.000  H
  C15      1.0000 0.97700  0.74700  0.36200  Biso   1.000  C
  H40      1.0000 0.94990  0.76670  0.30330  Biso   1.000  H
  H41      1.0000 0.03160  0.72120  0.34480  Biso   1.000  H
  H42      1.0000 0.01550  0.81520  0.40330  Biso   1.000  H
  H43      1.0000 0.51890  0.34300  0.24620  Biso   1.000  H
  H44      1.0000 0.61900  0.44310  0.30920  Biso   1.000  H
  H45      1.0000 0.62580  0.44990  0.19450  Biso   1.000  H
  N31      1.0000 0.05000  0.52480  0.33140  Biso   1.000  N
  N32      1.0000 0.16330  0.58190  0.29730  Biso   1.000  N
  N33      1.0000 0.86130  0.30210  0.46720  Biso   1.000  N
  N34      1.0000 0.75180  0.24710  0.49930  Biso   1.000  N
  N35      1.0000 0.69890  0.13890  0.46670  Biso   1.000  N
  N36      1.0000 0.77610  0.12580  0.41500  Biso   1.000  N
  C16      1.0000 0.87550  0.22570  0.41430  Biso   1.000  C
  C17      1.0000 0.97700  0.23000  0.36200  Biso   1.000  C
  H46      1.0000 0.01830  0.20560  0.40550  Biso   1.000  H
  H47      1.0000 0.02890  0.30850  0.33950  Biso   1.000  H
  H48      1.0000 0.94820  0.17710  0.30670  Biso   1.000  H
  C18      1.0000 0.77000  0.02300  0.36200  Biso   1.000  C
  H49      1.0000 0.81680  0.05010  0.30330  Biso   1.000  H
  H50      1.0000 0.68960  0.96840  0.34480  Biso   1.000  H
  H51      1.0000 0.79970  0.98450  0.40330  Biso   1.000  H
  H52      1.0000 0.82410  0.48110  0.24620  Biso   1.000  H
  H53      1.0000 0.82410  0.38100  0.30920  Biso   1.000  H
  H54      1.0000 0.82410  0.37420  0.19450  Biso   1.000  H
  N37      1.0000 0.95000  0.47480  0.83140  Biso   1.000  N
  N38      1.0000 0.83670  0.41860  0.79730  Biso   1.000  N
  N39      1.0000 0.13870  0.44080  0.96720  Biso   1.000  N
  N40      1.0000 0.24820  0.49530  0.99930  Biso   1.000  N
  N41      1.0000 0.30110  0.44000  0.96670  Biso   1.000  N
  N42      1.0000 0.22390  0.34970  0.91500  Biso   1.000  N
  C19      1.0000 0.12450  0.35020  0.91430  Biso   1.000  C
  C20      1.0000 0.02300  0.25300  0.86200  Biso   1.000  C
  H55      1.0000 0.98170  0.18730  0.90550  Biso   1.000  H
  H56      1.0000 0.97110  0.27960  0.83950  Biso   1.000  H
  H57      1.0000 0.05180  0.22890  0.80670  Biso   1.000  H
  C21      1.0000 0.23000  0.25300  0.86200  Biso   1.000  C
  H58      1.0000 0.18320  0.23330  0.80330  Biso   1.000  H
  H59      1.0000 0.31040  0.27880  0.84480  Biso   1.000  H
  H60      1.0000 0.20030  0.18480  0.90330  Biso   1.000  H
  H61      1.0000 0.17590  0.65700  0.74620  Biso   1.000  H
  H62      1.0000 0.17590  0.55690  0.80920  Biso   1.000  H
  H63      1.0000 0.17590  0.55010  0.69450  Biso   1.000  H
  N43      1.0000 0.52520  0.47520  0.83140  Biso   1.000  N
  N44      1.0000 0.58140  0.41810  0.79730  Biso   1.000  N
  N45      1.0000 0.55920  0.69790  0.96720  Biso   1.000  N
  N46      1.0000 0.50470  0.75290  0.99930  Biso   1.000  N
  N47      1.0000 0.56000  0.86110  0.96670  Biso   1.000  N
  N48      1.0000 0.65030  0.87420  0.91500  Biso   1.000  N
  C22      1.0000 0.64980  0.77430  0.91430  Biso   1.000  C
  C23      1.0000 0.74700  0.77000  0.86200  Biso   1.000  C
  H64      1.0000 0.81270  0.79440  0.90550  Biso   1.000  H
  H65      1.0000 0.72040  0.69150  0.83950  Biso   1.000  H
  H66      1.0000 0.77110  0.82290  0.80670  Biso   1.000  H
  C24      1.0000 0.74700  0.97700  0.86200  Biso   1.000  C
  H67      1.0000 0.76670  0.94990  0.80330  Biso   1.000  H
  H68      1.0000 0.72120  0.03160  0.84480  Biso   1.000  H
  H69      1.0000 0.81520  0.01550  0.90330  Biso   1.000  H
  H70      1.0000 0.34300  0.51890  0.74620  Biso   1.000  H
  H71      1.0000 0.44310  0.61900  0.80920  Biso   1.000  H
  H72      1.0000 0.44990  0.62580  0.69450  Biso   1.000  H
  N49      1.0000 0.52480  0.05000  0.83140  Biso   1.000  N
  N50      1.0000 0.58190  0.16330  0.79730  Biso   1.000  N
  N51      1.0000 0.30210  0.86130  0.96720  Biso   1.000  N
  N52      1.0000 0.24710  0.75180  0.99930  Biso   1.000  N
  N53      1.0000 0.13890  0.69890  0.96670  Biso   1.000  N
  N54      1.0000 0.12580  0.77610  0.91500  Biso   1.000  N
  C25      1.0000 0.22570  0.87550  0.91430  Biso   1.000  C
  C26      1.0000 0.23000  0.97700  0.86200  Biso   1.000  C
  H73      1.0000 0.20560  0.01830  0.90550  Biso   1.000  H
  H74      1.0000 0.30850  0.02890  0.83950  Biso   1.000  H
  H75      1.0000 0.17710  0.94820  0.80670  Biso   1.000  H
  C27      1.0000 0.02300  0.77000  0.86200  Biso   1.000  C
  H76      1.0000 0.05010  0.81680  0.80330  Biso   1.000  H
  H77      1.0000 0.96840  0.68960  0.84480  Biso   1.000  H
  H78      1.0000 0.98450  0.79970  0.90330  Biso   1.000  H
  H79      1.0000 0.48110  0.82410  0.74620  Biso   1.000  H
  H80      1.0000 0.38100  0.82410  0.80920  Biso   1.000  H
  H81      1.0000 0.37420  0.82410  0.69450  Biso   1.000  H
  N55      1.0000 0.52520  0.05000  0.66860  Biso   1.000  N
  N56      1.0000 0.58140  0.16330  0.70270  Biso   1.000  N
  N57      1.0000 0.55920  0.86130  0.53280  Biso   1.000  N
  N58      1.0000 0.50470  0.75180  0.50070  Biso   1.000  N
  N59      1.0000 0.56000  0.69890  0.53330  Biso   1.000  N
  N60      1.0000 0.65030  0.77610  0.58500  Biso   1.000  N
  C28      1.0000 0.64980  0.87550  0.58570  Biso   1.000  C
  C29      1.0000 0.74700  0.97700  0.63800  Biso   1.000  C
  H82      1.0000 0.81270  0.01830  0.59450  Biso   1.000  H
  H83      1.0000 0.72040  0.02890  0.66050  Biso   1.000  H
  H84      1.0000 0.77110  0.94820  0.69330  Biso   1.000  H
  C30      1.0000 0.74700  0.77000  0.63800  Biso   1.000  C
  H85      1.0000 0.76670  0.81680  0.69670  Biso   1.000  H
  H86      1.0000 0.72120  0.68960  0.65520  Biso   1.000  H
  H87      1.0000 0.81520  0.79970  0.59670  Biso   1.000  H
  H88      1.0000 0.34300  0.82410  0.75380  Biso   1.000  H
  H89      1.0000 0.44310  0.82410  0.69080  Biso   1.000  H
  H90      1.0000 0.44990  0.82410  0.80550  Biso   1.000  H
  N61      1.0000 0.52480  0.47480  0.66860  Biso   1.000  N
  N62      1.0000 0.58190  0.41860  0.70270  Biso   1.000  N
  N63      1.0000 0.30210  0.44080  0.53280  Biso   1.000  N
  N64      1.0000 0.24710  0.49530  0.50070  Biso   1.000  N
  N65      1.0000 0.13890  0.44000  0.53330  Biso   1.000  N
  N66      1.0000 0.12580  0.34970  0.58500  Biso   1.000  N
  C31      1.0000 0.22570  0.35020  0.58570  Biso   1.000  C
  C32      1.0000 0.23000  0.25300  0.63800  Biso   1.000  C
  H91      1.0000 0.20560  0.18730  0.59450  Biso   1.000  H
  H92      1.0000 0.30850  0.27960  0.66050  Biso   1.000  H
  H93      1.0000 0.17710  0.22890  0.69330  Biso   1.000  H
  C33      1.0000 0.02300  0.25300  0.63800  Biso   1.000  C
  H94      1.0000 0.05010  0.23330  0.69670  Biso   1.000  H
  H95      1.0000 0.96840  0.27880  0.65520  Biso   1.000  H
  H96      1.0000 0.98450  0.18480  0.59670  Biso   1.000  H
  H97      1.0000 0.48110  0.65700  0.75380  Biso   1.000  H
  H98      1.0000 0.38100  0.55690  0.69080  Biso   1.000  H
  H99      1.0000 0.37420  0.55010  0.80550  Biso   1.000  H
  N67      1.0000 0.95000  0.47520  0.66860  Biso   1.000  N
  N68      1.0000 0.83670  0.41810  0.70270  Biso   1.000  N
  N69      1.0000 0.13870  0.69790  0.53280  Biso   1.000  N
  N70      1.0000 0.24820  0.75290  0.50070  Biso   1.000  N
  N71      1.0000 0.30110  0.86110  0.53330  Biso   1.000  N
  N72      1.0000 0.22390  0.87420  0.58500  Biso   1.000  N
  C34      1.0000 0.12450  0.77430  0.58570  Biso   1.000  C
  C35      1.0000 0.02300  0.77000  0.63800  Biso   1.000  C
  H100     1.0000 0.98170  0.79440  0.59450  Biso   1.000  H
  H101     1.0000 0.97110  0.69150  0.66050  Biso   1.000  H
  H102     1.0000 0.05180  0.82290  0.69330  Biso   1.000  H
  C36      1.0000 0.23000  0.97700  0.63800  Biso   1.000  C
  H103     1.0000 0.18320  0.94990  0.69670  Biso   1.000  H
  H104     1.0000 0.31040  0.03160  0.65520  Biso   1.000  H
  H105     1.0000 0.20030  0.01550  0.59670  Biso   1.000  H
  H106     1.0000 0.17590  0.51890  0.75380  Biso   1.000  H
  H107     1.0000 0.17590  0.61900  0.69080  Biso   1.000  H
  H108     1.0000 0.17590  0.62580  0.80550  Biso   1.000  H
  Cd1      1.0000 0.00000  0.50000  0.00000  Biso   1.000  Cd
  Cd2      1.0000 0.50000  0.50000  0.00000  Biso   1.000  Cd
  Cd3      1.0000 0.50000  0.00000  0.00000  Biso   1.000  Cd
  Cd4      1.0000 0.50000  0.00000  0.50000  Biso   1.000  Cd
  Cd5      1.0000 0.50000  0.50000  0.50000  Biso   1.000  Cd
  Cd6      1.0000 0.00000  0.50000  0.50000  Biso   1.000  Cd
  Cd7      1.0000 0.33333  0.66667  0.10370  Biso   1.000  Cd
  Cd8      1.0000 0.33333  0.66667  0.39630  Biso   1.000  Cd
  Cd9      1.0000 0.66667  0.33333  0.89630  Biso   1.000  Cd
  Cd10     1.0000 0.66667  0.33333  0.60370  Biso   1.000  Cd
  C37      1.0000 0.97900  0.48950  0.25000  Biso   1.000  C
  C38      1.0000 0.85200  0.42600  0.25000  Biso   1.000  C
  C39      1.0000 0.51050  0.48950  0.25000  Biso   1.000  C
  C40      1.0000 0.57400  0.42600  0.25000  Biso   1.000  C
  C41      1.0000 0.51050  0.02100  0.25000  Biso   1.000  C
  C42      1.0000 0.57400  0.14800  0.25000  Biso   1.000  C
  C43      1.0000 0.02100  0.51050  0.75000  Biso   1.000  C
  C44      1.0000 0.14800  0.57400  0.75000  Biso   1.000  C
  C45      1.0000 0.48950  0.51050  0.75000  Biso   1.000  C
  C46      1.0000 0.42600  0.57400  0.75000  Biso   1.000  C
  C47      1.0000 0.48950  0.97900  0.75000  Biso   1.000  C
  C48      1.0000 0.42600  0.85200  0.75000  Biso   1.000  C
