data_image0
_cell_length_a       19.895
_cell_length_b       16.077
_cell_length_c       21.851
_cell_angle_alpha    90
_cell_angle_beta     90
_cell_angle_gamma    90

_symmetry_space_group_name_H-M    "P 1"
_symmetry_int_tables_number       1

loop_
  _symmetry_equiv_pos_as_xyz
  'x, y, z'

loop_
  _atom_site_label
  _atom_site_occupancy
  _atom_site_fract_x
  _atom_site_fract_y
  _atom_site_fract_z
  _atom_site_thermal_displace_type
  _atom_site_B_iso_or_equiv
  _atom_site_type_symbol
  Zn1      1.0000 0.10920  0.66156  0.73249  Biso   1.000  Zn
  O1       1.0000 0.03980  0.67027  0.80041  Biso   1.000  O
  O2       1.0000 0.03778  0.80306  0.82775  Biso   1.000  O
  O3       1.0000 0.68105  0.67184  0.20160  Biso   1.000  O
  O4       1.0000 0.67974  0.80255  0.17075  Biso   1.000  O
  C1       1.0000 0.02030  0.72830  0.83320  Biso   1.000  C
  C2       1.0000 0.97140  0.70830  0.88350  Biso   1.000  C
  C3       1.0000 0.93960  0.76960  0.91510  Biso   1.000  C
  C4       1.0000 0.96240  0.62420  0.89880  Biso   1.000  C
  H1       1.0000 0.94710  0.82530  0.90600  Biso   1.000  H
  C5       1.0000 0.89590  0.74700  0.96100  Biso   1.000  C
  C6       1.0000 0.91950  0.60290  0.94480  Biso   1.000  C
  H2       1.0000 0.98560  0.58310  0.87750  Biso   1.000  H
  C7       1.0000 0.88470  0.66520  0.97670  Biso   1.000  C
  N1       1.0000 0.85683  0.79660  0.99816  Biso   1.000  N
  H3       1.0000 0.91330  0.54730  0.95500  Biso   1.000  H
  C8       1.0000 0.83890  0.66370  0.02730  Biso   1.000  C
  C9       1.0000 0.82180  0.74710  0.03850  Biso   1.000  C
  H4       1.0000 0.85470  0.85000  0.99640  Biso   1.000  H
  C10      1.0000 0.80900  0.60250  0.06310  Biso   1.000  C
  C11      1.0000 0.77600  0.76930  0.08325  Biso   1.000  C
  C12      1.0000 0.76450  0.62520  0.10700  Biso   1.000  C
  H5       1.0000 0.81940  0.54670  0.05700  Biso   1.000  H
  H6       1.0000 0.76470  0.82470  0.08970  Biso   1.000  H
  C13      1.0000 0.74790  0.70780  0.11774  Biso   1.000  C
  H7       1.0000 0.74450  0.58400  0.13080  Biso   1.000  H
  C14      1.0000 0.69894  0.72900  0.16699  Biso   1.000  C
  N2       1.0000 0.11020  0.53800  0.72820  Biso   1.000  N
  C15      1.0000 0.14700  0.49620  0.70120  Biso   1.000  C
  C16      1.0000 0.07320  0.49340  0.75550  Biso   1.000  C
  H8       1.0000 0.17910  0.52440  0.67830  Biso   1.000  H
  C17      1.0000 0.15040  0.40880  0.69800  Biso   1.000  C
  C18      1.0000 0.07230  0.40580  0.75820  Biso   1.000  C
  H9       1.0000 0.04010  0.52010  0.77820  Biso   1.000  H
  H10      1.0000 0.18180  0.38460  0.67200  Biso   1.000  H
  C19      1.0000 0.11420  0.36400  0.72780  Biso   1.000  C
  H11      1.0000 0.04080  0.37890  0.78260  Biso   1.000  H
  C20      1.0000 0.09570  0.26940  0.71780  Biso   1.000  C
  N3       1.0000 0.10940  0.96340  0.77550  Biso   1.000  N
  C21      1.0000 0.05050  0.00480  0.79110  Biso   1.000  C
  H12      1.0000 0.01200  0.97470  0.80080  Biso   1.000  H
  C22      1.0000 0.04910  0.09120  0.79230  Biso   1.000  C
  H13      1.0000 0.00960  0.11890  0.80270  Biso   1.000  H
  C23      1.0000 0.10650  0.13630  0.77780  Biso   1.000  C
  C24      1.0000 0.16540  0.09490  0.76220  Biso   1.000  C
  H14      1.0000 0.20390  0.12510  0.75250  Biso   1.000  H
  C25      1.0000 0.16690  0.00850  0.76100  Biso   1.000  C
  H15      1.0000 0.20630  0.98080  0.75060  Biso   1.000  H
  H16      1.0000 0.04800  0.24290  0.77990  Biso   1.000  H
  H17      1.0000 0.11240  0.25070  0.82120  Biso   1.000  H
  H18      1.0000 0.17920  0.26680  0.73800  Biso   1.000  H
  H19      1.0000 0.11960  0.24590  0.69370  Biso   1.000  H
  C26      1.0000 0.13120  0.27280  0.73200  Biso   1.000  C
  Zn2      1.0000 0.10920  0.83844  0.76751  Biso   1.000  Zn
  O5       1.0000 0.03980  0.82973  0.69959  Biso   1.000  O
  O6       1.0000 0.03778  0.69694  0.67225  Biso   1.000  O
  O7       1.0000 0.68105  0.82816  0.29840  Biso   1.000  O
  O8       1.0000 0.67974  0.69745  0.32925  Biso   1.000  O
  C27      1.0000 0.02030  0.77170  0.66680  Biso   1.000  C
  C28      1.0000 0.97140  0.79170  0.61650  Biso   1.000  C
  C29      1.0000 0.93960  0.73040  0.58490  Biso   1.000  C
  C30      1.0000 0.96240  0.87580  0.60120  Biso   1.000  C
  H20      1.0000 0.94710  0.67470  0.59400  Biso   1.000  H
  C31      1.0000 0.89590  0.75300  0.53900  Biso   1.000  C
  C32      1.0000 0.91950  0.89710  0.55520  Biso   1.000  C
  H21      1.0000 0.98560  0.91690  0.62250  Biso   1.000  H
  C33      1.0000 0.88470  0.83480  0.52330  Biso   1.000  C
  N4       1.0000 0.85683  0.70340  0.50184  Biso   1.000  N
  H22      1.0000 0.91330  0.95270  0.54500  Biso   1.000  H
  C34      1.0000 0.83890  0.83630  0.47270  Biso   1.000  C
  C35      1.0000 0.82180  0.75290  0.46150  Biso   1.000  C
  H23      1.0000 0.85470  0.65000  0.50360  Biso   1.000  H
  C36      1.0000 0.80900  0.89750  0.43690  Biso   1.000  C
  C37      1.0000 0.77600  0.73070  0.41675  Biso   1.000  C
  C38      1.0000 0.76450  0.87480  0.39300  Biso   1.000  C
  H24      1.0000 0.81940  0.95330  0.44300  Biso   1.000  H
  H25      1.0000 0.76470  0.67530  0.41030  Biso   1.000  H
  C39      1.0000 0.74790  0.79220  0.38226  Biso   1.000  C
  H26      1.0000 0.74450  0.91600  0.36920  Biso   1.000  H
  C40      1.0000 0.69894  0.77100  0.33301  Biso   1.000  C
  N5       1.0000 0.11020  0.96200  0.77180  Biso   1.000  N
  C41      1.0000 0.14700  0.00380  0.79880  Biso   1.000  C
  C42      1.0000 0.07320  0.00660  0.74450  Biso   1.000  C
  H27      1.0000 0.17910  0.97560  0.82170  Biso   1.000  H
  C43      1.0000 0.15040  0.09120  0.80200  Biso   1.000  C
  C44      1.0000 0.07230  0.09420  0.74180  Biso   1.000  C
  H28      1.0000 0.04010  0.97990  0.72180  Biso   1.000  H
  H29      1.0000 0.18180  0.11540  0.82800  Biso   1.000  H
  C45      1.0000 0.11420  0.13600  0.77220  Biso   1.000  C
  H30      1.0000 0.04080  0.12110  0.71740  Biso   1.000  H
  C46      1.0000 0.09570  0.23060  0.78220  Biso   1.000  C
  N6       1.0000 0.10940  0.53660  0.72450  Biso   1.000  N
  C47      1.0000 0.05050  0.49520  0.70890  Biso   1.000  C
  H31      1.0000 0.01200  0.52530  0.69920  Biso   1.000  H
  C48      1.0000 0.04910  0.40880  0.70770  Biso   1.000  C
  H32      1.0000 0.00960  0.38110  0.69730  Biso   1.000  H
  C49      1.0000 0.10650  0.36370  0.72220  Biso   1.000  C
  C50      1.0000 0.16540  0.40510  0.73780  Biso   1.000  C
  H33      1.0000 0.20390  0.37490  0.74750  Biso   1.000  H
  C51      1.0000 0.16690  0.49150  0.73900  Biso   1.000  C
  H34      1.0000 0.20630  0.51920  0.74940  Biso   1.000  H
  H35      1.0000 0.04800  0.25710  0.72010  Biso   1.000  H
  H36      1.0000 0.11240  0.24930  0.67880  Biso   1.000  H
  H37      1.0000 0.17920  0.23320  0.76200  Biso   1.000  H
  H38      1.0000 0.11960  0.25410  0.80630  Biso   1.000  H
  C52      1.0000 0.13120  0.22720  0.76800  Biso   1.000  C
  Zn3      1.0000 0.60920  0.66156  0.26751  Biso   1.000  Zn
  O9       1.0000 0.53980  0.67027  0.19959  Biso   1.000  O
  O10      1.0000 0.53778  0.80306  0.17225  Biso   1.000  O
  O11      1.0000 0.18105  0.67184  0.79840  Biso   1.000  O
  O12      1.0000 0.17974  0.80255  0.82925  Biso   1.000  O
  C53      1.0000 0.52030  0.72830  0.16680  Biso   1.000  C
  C54      1.0000 0.47140  0.70830  0.11650  Biso   1.000  C
  C55      1.0000 0.43960  0.76960  0.08490  Biso   1.000  C
  C56      1.0000 0.46240  0.62420  0.10120  Biso   1.000  C
  H39      1.0000 0.44710  0.82530  0.09400  Biso   1.000  H
  C57      1.0000 0.39590  0.74700  0.03900  Biso   1.000  C
  C58      1.0000 0.41950  0.60290  0.05520  Biso   1.000  C
  H40      1.0000 0.48560  0.58310  0.12250  Biso   1.000  H
  C59      1.0000 0.38470  0.66520  0.02330  Biso   1.000  C
  N7       1.0000 0.35683  0.79660  0.00184  Biso   1.000  N
  H41      1.0000 0.41330  0.54730  0.04500  Biso   1.000  H
  C60      1.0000 0.33890  0.66370  0.97270  Biso   1.000  C
  C61      1.0000 0.32180  0.74710  0.96150  Biso   1.000  C
  H42      1.0000 0.35470  0.85000  0.00360  Biso   1.000  H
  C62      1.0000 0.30900  0.60250  0.93690  Biso   1.000  C
  C63      1.0000 0.27600  0.76930  0.91675  Biso   1.000  C
  C64      1.0000 0.26450  0.62520  0.89300  Biso   1.000  C
  H43      1.0000 0.31940  0.54670  0.94300  Biso   1.000  H
  H44      1.0000 0.26470  0.82470  0.91030  Biso   1.000  H
  C65      1.0000 0.24790  0.70780  0.88226  Biso   1.000  C
  H45      1.0000 0.24450  0.58400  0.86920  Biso   1.000  H
  C66      1.0000 0.19894  0.72900  0.83301  Biso   1.000  C
  N8       1.0000 0.61020  0.53800  0.27180  Biso   1.000  N
  C67      1.0000 0.64700  0.49620  0.29880  Biso   1.000  C
  C68      1.0000 0.57320  0.49340  0.24450  Biso   1.000  C
  H46      1.0000 0.67910  0.52440  0.32170  Biso   1.000  H
  C69      1.0000 0.65040  0.40880  0.30200  Biso   1.000  C
  C70      1.0000 0.57230  0.40580  0.24180  Biso   1.000  C
  H47      1.0000 0.54010  0.52010  0.22180  Biso   1.000  H
  H48      1.0000 0.68180  0.38460  0.32800  Biso   1.000  H
  C71      1.0000 0.61420  0.36400  0.27220  Biso   1.000  C
  H49      1.0000 0.54080  0.37890  0.21740  Biso   1.000  H
  C72      1.0000 0.59570  0.26940  0.28220  Biso   1.000  C
  N9       1.0000 0.60940  0.96340  0.22450  Biso   1.000  N
  C73      1.0000 0.55050  0.00480  0.20890  Biso   1.000  C
  H50      1.0000 0.51200  0.97470  0.19920  Biso   1.000  H
  C74      1.0000 0.54910  0.09120  0.20770  Biso   1.000  C
  H51      1.0000 0.50960  0.11890  0.19730  Biso   1.000  H
  C75      1.0000 0.60650  0.13630  0.22220  Biso   1.000  C
  C76      1.0000 0.66540  0.09490  0.23780  Biso   1.000  C
  H52      1.0000 0.70390  0.12510  0.24750  Biso   1.000  H
  C77      1.0000 0.66690  0.00850  0.23900  Biso   1.000  C
  H53      1.0000 0.70630  0.98080  0.24940  Biso   1.000  H
  H54      1.0000 0.54800  0.24290  0.22010  Biso   1.000  H
  H55      1.0000 0.61240  0.25070  0.17880  Biso   1.000  H
  H56      1.0000 0.67920  0.26680  0.26200  Biso   1.000  H
  H57      1.0000 0.61960  0.24590  0.30630  Biso   1.000  H
  C78      1.0000 0.63120  0.27280  0.26800  Biso   1.000  C
  Zn4      1.0000 0.60920  0.83844  0.23249  Biso   1.000  Zn
  O13      1.0000 0.53980  0.82973  0.30041  Biso   1.000  O
  O14      1.0000 0.53778  0.69694  0.32775  Biso   1.000  O
  O15      1.0000 0.18105  0.82816  0.70160  Biso   1.000  O
  O16      1.0000 0.17974  0.69745  0.67075  Biso   1.000  O
  C79      1.0000 0.52030  0.77170  0.33320  Biso   1.000  C
  C80      1.0000 0.47140  0.79170  0.38350  Biso   1.000  C
  C81      1.0000 0.43960  0.73040  0.41510  Biso   1.000  C
  C82      1.0000 0.46240  0.87580  0.39880  Biso   1.000  C
  H58      1.0000 0.44710  0.67470  0.40600  Biso   1.000  H
  C83      1.0000 0.39590  0.75300  0.46100  Biso   1.000  C
  C84      1.0000 0.41950  0.89710  0.44480  Biso   1.000  C
  H59      1.0000 0.48560  0.91690  0.37750  Biso   1.000  H
  C85      1.0000 0.38470  0.83480  0.47670  Biso   1.000  C
  N10      1.0000 0.35683  0.70340  0.49816  Biso   1.000  N
  H60      1.0000 0.41330  0.95270  0.45500  Biso   1.000  H
  C86      1.0000 0.33890  0.83630  0.52730  Biso   1.000  C
  C87      1.0000 0.32180  0.75290  0.53850  Biso   1.000  C
  H61      1.0000 0.35470  0.65000  0.49640  Biso   1.000  H
  C88      1.0000 0.30900  0.89750  0.56310  Biso   1.000  C
  C89      1.0000 0.27600  0.73070  0.58325  Biso   1.000  C
  C90      1.0000 0.26450  0.87480  0.60700  Biso   1.000  C
  H62      1.0000 0.31940  0.95330  0.55700  Biso   1.000  H
  H63      1.0000 0.26470  0.67530  0.58970  Biso   1.000  H
  C91      1.0000 0.24790  0.79220  0.61774  Biso   1.000  C
  H64      1.0000 0.24450  0.91600  0.63080  Biso   1.000  H
  C92      1.0000 0.19894  0.77100  0.66699  Biso   1.000  C
  N11      1.0000 0.61020  0.96200  0.22820  Biso   1.000  N
  C93      1.0000 0.64700  0.00380  0.20120  Biso   1.000  C
  C94      1.0000 0.57320  0.00660  0.25550  Biso   1.000  C
  H65      1.0000 0.67910  0.97560  0.17830  Biso   1.000  H
  C95      1.0000 0.65040  0.09120  0.19800  Biso   1.000  C
  C96      1.0000 0.57230  0.09420  0.25820  Biso   1.000  C
  H66      1.0000 0.54010  0.97990  0.27820  Biso   1.000  H
  H67      1.0000 0.68180  0.11540  0.17200  Biso   1.000  H
  C97      1.0000 0.61420  0.13600  0.22780  Biso   1.000  C
  H68      1.0000 0.54080  0.12110  0.28260  Biso   1.000  H
  C98      1.0000 0.59570  0.23060  0.21780  Biso   1.000  C
  N12      1.0000 0.60940  0.53660  0.27550  Biso   1.000  N
  C99      1.0000 0.55050  0.49520  0.29110  Biso   1.000  C
  H69      1.0000 0.51200  0.52530  0.30080  Biso   1.000  H
  C100     1.0000 0.54910  0.40880  0.29230  Biso   1.000  C
  H70      1.0000 0.50960  0.38110  0.30270  Biso   1.000  H
  C101     1.0000 0.60650  0.36370  0.27780  Biso   1.000  C
  C102     1.0000 0.66540  0.40510  0.26220  Biso   1.000  C
  H71      1.0000 0.70390  0.37490  0.25250  Biso   1.000  H
  C103     1.0000 0.66690  0.49150  0.26100  Biso   1.000  C
  H72      1.0000 0.70630  0.51920  0.25060  Biso   1.000  H
  H73      1.0000 0.54800  0.25710  0.27990  Biso   1.000  H
  H74      1.0000 0.61240  0.24930  0.32120  Biso   1.000  H
  H75      1.0000 0.67920  0.23320  0.23800  Biso   1.000  H
  H76      1.0000 0.61960  0.25410  0.19370  Biso   1.000  H
  C104     1.0000 0.63120  0.22720  0.23200  Biso   1.000  C
  Zn5      1.0000 0.39080  0.33844  0.73249  Biso   1.000  Zn
  O17      1.0000 0.46020  0.32973  0.80041  Biso   1.000  O
  O18      1.0000 0.46222  0.19694  0.82775  Biso   1.000  O
  O19      1.0000 0.81895  0.32816  0.20160  Biso   1.000  O
  O20      1.0000 0.82026  0.19745  0.17075  Biso   1.000  O
  C105     1.0000 0.47970  0.27170  0.83320  Biso   1.000  C
  C106     1.0000 0.52860  0.29170  0.88350  Biso   1.000  C
  C107     1.0000 0.56040  0.23040  0.91510  Biso   1.000  C
  C108     1.0000 0.53760  0.37580  0.89880  Biso   1.000  C
  H77      1.0000 0.55290  0.17470  0.90600  Biso   1.000  H
  C109     1.0000 0.60410  0.25300  0.96100  Biso   1.000  C
  C110     1.0000 0.58050  0.39710  0.94480  Biso   1.000  C
  H78      1.0000 0.51440  0.41690  0.87750  Biso   1.000  H
  C111     1.0000 0.61530  0.33480  0.97670  Biso   1.000  C
  N13      1.0000 0.64317  0.20340  0.99816  Biso   1.000  N
  H79      1.0000 0.58670  0.45270  0.95500  Biso   1.000  H
  C112     1.0000 0.66110  0.33630  0.02730  Biso   1.000  C
  C113     1.0000 0.67820  0.25290  0.03850  Biso   1.000  C
  H80      1.0000 0.64530  0.15000  0.99640  Biso   1.000  H
  C114     1.0000 0.69100  0.39750  0.06310  Biso   1.000  C
  C115     1.0000 0.72400  0.23070  0.08325  Biso   1.000  C
  C116     1.0000 0.73550  0.37480  0.10700  Biso   1.000  C
  H81      1.0000 0.68060  0.45330  0.05700  Biso   1.000  H
  H82      1.0000 0.73530  0.17530  0.08970  Biso   1.000  H
  C117     1.0000 0.75210  0.29220  0.11774  Biso   1.000  C
  H83      1.0000 0.75550  0.41600  0.13080  Biso   1.000  H
  C118     1.0000 0.80106  0.27100  0.16699  Biso   1.000  C
  N14      1.0000 0.38980  0.46200  0.72820  Biso   1.000  N
  C119     1.0000 0.35300  0.50380  0.70120  Biso   1.000  C
  C120     1.0000 0.42680  0.50660  0.75550  Biso   1.000  C
  H84      1.0000 0.32090  0.47560  0.67830  Biso   1.000  H
  C121     1.0000 0.34960  0.59120  0.69800  Biso   1.000  C
  C122     1.0000 0.42770  0.59420  0.75820  Biso   1.000  C
  H85      1.0000 0.45990  0.47990  0.77820  Biso   1.000  H
  H86      1.0000 0.31820  0.61540  0.67200  Biso   1.000  H
  C123     1.0000 0.38580  0.63600  0.72780  Biso   1.000  C
  H87      1.0000 0.45920  0.62110  0.78260  Biso   1.000  H
  C124     1.0000 0.40430  0.73060  0.71780  Biso   1.000  C
  N15      1.0000 0.39060  0.03660  0.77550  Biso   1.000  N
  C125     1.0000 0.44950  0.99520  0.79110  Biso   1.000  C
  H88      1.0000 0.48800  0.02530  0.80080  Biso   1.000  H
  C126     1.0000 0.45090  0.90880  0.79230  Biso   1.000  C
  H89      1.0000 0.49040  0.88110  0.80270  Biso   1.000  H
  C127     1.0000 0.39350  0.86370  0.77780  Biso   1.000  C
  C128     1.0000 0.33460  0.90510  0.76220  Biso   1.000  C
  H90      1.0000 0.29610  0.87490  0.75250  Biso   1.000  H
  C129     1.0000 0.33310  0.99150  0.76100  Biso   1.000  C
  H91      1.0000 0.29370  0.01920  0.75060  Biso   1.000  H
  H92      1.0000 0.45200  0.75710  0.77990  Biso   1.000  H
  H93      1.0000 0.38760  0.74930  0.82120  Biso   1.000  H
  H94      1.0000 0.32080  0.73320  0.73800  Biso   1.000  H
  H95      1.0000 0.38040  0.75410  0.69370  Biso   1.000  H
  C130     1.0000 0.36880  0.72720  0.73200  Biso   1.000  C
  Zn6      1.0000 0.39080  0.16156  0.76751  Biso   1.000  Zn
  O21      1.0000 0.46020  0.17027  0.69959  Biso   1.000  O
  O22      1.0000 0.46222  0.30306  0.67225  Biso   1.000  O
  O23      1.0000 0.81895  0.17184  0.29840  Biso   1.000  O
  O24      1.0000 0.82026  0.30255  0.32925  Biso   1.000  O
  C131     1.0000 0.47970  0.22830  0.66680  Biso   1.000  C
  C132     1.0000 0.52860  0.20830  0.61650  Biso   1.000  C
  C133     1.0000 0.56040  0.26960  0.58490  Biso   1.000  C
  C134     1.0000 0.53760  0.12420  0.60120  Biso   1.000  C
  H96      1.0000 0.55290  0.32530  0.59400  Biso   1.000  H
  C135     1.0000 0.60410  0.24700  0.53900  Biso   1.000  C
  C136     1.0000 0.58050  0.10290  0.55520  Biso   1.000  C
  H97      1.0000 0.51440  0.08310  0.62250  Biso   1.000  H
  C137     1.0000 0.61530  0.16520  0.52330  Biso   1.000  C
  N16      1.0000 0.64317  0.29660  0.50184  Biso   1.000  N
  H98      1.0000 0.58670  0.04730  0.54500  Biso   1.000  H
  C138     1.0000 0.66110  0.16370  0.47270  Biso   1.000  C
  C139     1.0000 0.67820  0.24710  0.46150  Biso   1.000  C
  H99      1.0000 0.64530  0.35000  0.50360  Biso   1.000  H
  C140     1.0000 0.69100  0.10250  0.43690  Biso   1.000  C
  C141     1.0000 0.72400  0.26930  0.41675  Biso   1.000  C
  C142     1.0000 0.73550  0.12520  0.39300  Biso   1.000  C
  H100     1.0000 0.68060  0.04670  0.44300  Biso   1.000  H
  H101     1.0000 0.73530  0.32470  0.41030  Biso   1.000  H
  C143     1.0000 0.75210  0.20780  0.38226  Biso   1.000  C
  H102     1.0000 0.75550  0.08400  0.36920  Biso   1.000  H
  C144     1.0000 0.80106  0.22900  0.33301  Biso   1.000  C
  N17      1.0000 0.38980  0.03800  0.77180  Biso   1.000  N
  C145     1.0000 0.35300  0.99620  0.79880  Biso   1.000  C
  C146     1.0000 0.42680  0.99340  0.74450  Biso   1.000  C
  H103     1.0000 0.32090  0.02440  0.82170  Biso   1.000  H
  C147     1.0000 0.34960  0.90880  0.80200  Biso   1.000  C
  C148     1.0000 0.42770  0.90580  0.74180  Biso   1.000  C
  H104     1.0000 0.45990  0.02010  0.72180  Biso   1.000  H
  H105     1.0000 0.31820  0.88460  0.82800  Biso   1.000  H
  C149     1.0000 0.38580  0.86400  0.77220  Biso   1.000  C
  H106     1.0000 0.45920  0.87890  0.71740  Biso   1.000  H
  C150     1.0000 0.40430  0.76940  0.78220  Biso   1.000  C
  N18      1.0000 0.39060  0.46340  0.72450  Biso   1.000  N
  C151     1.0000 0.44950  0.50480  0.70890  Biso   1.000  C
  H107     1.0000 0.48800  0.47470  0.69920  Biso   1.000  H
  C152     1.0000 0.45090  0.59120  0.70770  Biso   1.000  C
  H108     1.0000 0.49040  0.61890  0.69730  Biso   1.000  H
  C153     1.0000 0.39350  0.63630  0.72220  Biso   1.000  C
  C154     1.0000 0.33460  0.59490  0.73780  Biso   1.000  C
  H109     1.0000 0.29610  0.62510  0.74750  Biso   1.000  H
  C155     1.0000 0.33310  0.50850  0.73900  Biso   1.000  C
  H110     1.0000 0.29370  0.48080  0.74940  Biso   1.000  H
  H111     1.0000 0.45200  0.74290  0.72010  Biso   1.000  H
  H112     1.0000 0.38760  0.75070  0.67880  Biso   1.000  H
  H113     1.0000 0.32080  0.76680  0.76200  Biso   1.000  H
  H114     1.0000 0.38040  0.74590  0.80630  Biso   1.000  H
  C156     1.0000 0.36880  0.77280  0.76800  Biso   1.000  C
  Zn7      1.0000 0.89080  0.33844  0.26751  Biso   1.000  Zn
  O25      1.0000 0.96020  0.32973  0.19959  Biso   1.000  O
  O26      1.0000 0.96222  0.19694  0.17225  Biso   1.000  O
  O27      1.0000 0.31895  0.32816  0.79840  Biso   1.000  O
  O28      1.0000 0.32026  0.19745  0.82925  Biso   1.000  O
  C157     1.0000 0.97970  0.27170  0.16680  Biso   1.000  C
  C158     1.0000 0.02860  0.29170  0.11650  Biso   1.000  C
  C159     1.0000 0.06040  0.23040  0.08490  Biso   1.000  C
  C160     1.0000 0.03760  0.37580  0.10120  Biso   1.000  C
  H115     1.0000 0.05290  0.17470  0.09400  Biso   1.000  H
  C161     1.0000 0.10410  0.25300  0.03900  Biso   1.000  C
  C162     1.0000 0.08050  0.39710  0.05520  Biso   1.000  C
  H116     1.0000 0.01440  0.41690  0.12250  Biso   1.000  H
  C163     1.0000 0.11530  0.33480  0.02330  Biso   1.000  C
  N19      1.0000 0.14317  0.20340  0.00184  Biso   1.000  N
  H117     1.0000 0.08670  0.45270  0.04500  Biso   1.000  H
  C164     1.0000 0.16110  0.33630  0.97270  Biso   1.000  C
  C165     1.0000 0.17820  0.25290  0.96150  Biso   1.000  C
  H118     1.0000 0.14530  0.15000  0.00360  Biso   1.000  H
  C166     1.0000 0.19100  0.39750  0.93690  Biso   1.000  C
  C167     1.0000 0.22400  0.23070  0.91675  Biso   1.000  C
  C168     1.0000 0.23550  0.37480  0.89300  Biso   1.000  C
  H119     1.0000 0.18060  0.45330  0.94300  Biso   1.000  H
  H120     1.0000 0.23530  0.17530  0.91030  Biso   1.000  H
  C169     1.0000 0.25210  0.29220  0.88226  Biso   1.000  C
  H121     1.0000 0.25550  0.41600  0.86920  Biso   1.000  H
  C170     1.0000 0.30106  0.27100  0.83301  Biso   1.000  C
  N20      1.0000 0.88980  0.46200  0.27180  Biso   1.000  N
  C171     1.0000 0.85300  0.50380  0.29880  Biso   1.000  C
  C172     1.0000 0.92680  0.50660  0.24450  Biso   1.000  C
  H122     1.0000 0.82090  0.47560  0.32170  Biso   1.000  H
  C173     1.0000 0.84960  0.59120  0.30200  Biso   1.000  C
  C174     1.0000 0.92770  0.59420  0.24180  Biso   1.000  C
  H123     1.0000 0.95990  0.47990  0.22180  Biso   1.000  H
  H124     1.0000 0.81820  0.61540  0.32800  Biso   1.000  H
  C175     1.0000 0.88580  0.63600  0.27220  Biso   1.000  C
  H125     1.0000 0.95920  0.62110  0.21740  Biso   1.000  H
  C176     1.0000 0.90430  0.73060  0.28220  Biso   1.000  C
  N21      1.0000 0.89060  0.03660  0.22450  Biso   1.000  N
  C177     1.0000 0.94950  0.99520  0.20890  Biso   1.000  C
  H126     1.0000 0.98800  0.02530  0.19920  Biso   1.000  H
  C178     1.0000 0.95090  0.90880  0.20770  Biso   1.000  C
  H127     1.0000 0.99040  0.88110  0.19730  Biso   1.000  H
  C179     1.0000 0.89350  0.86370  0.22220  Biso   1.000  C
  C180     1.0000 0.83460  0.90510  0.23780  Biso   1.000  C
  H128     1.0000 0.79610  0.87490  0.24750  Biso   1.000  H
  C181     1.0000 0.83310  0.99150  0.23900  Biso   1.000  C
  H129     1.0000 0.79370  0.01920  0.24940  Biso   1.000  H
  H130     1.0000 0.95200  0.75710  0.22010  Biso   1.000  H
  H131     1.0000 0.88760  0.74930  0.17880  Biso   1.000  H
  H132     1.0000 0.82080  0.73320  0.26200  Biso   1.000  H
  H133     1.0000 0.88040  0.75410  0.30630  Biso   1.000  H
  C182     1.0000 0.86880  0.72720  0.26800  Biso   1.000  C
  Zn8      1.0000 0.89080  0.16156  0.23249  Biso   1.000  Zn
  O29      1.0000 0.96020  0.17027  0.30041  Biso   1.000  O
  O30      1.0000 0.96222  0.30306  0.32775  Biso   1.000  O
  O31      1.0000 0.31895  0.17184  0.70160  Biso   1.000  O
  O32      1.0000 0.32026  0.30255  0.67075  Biso   1.000  O
  C183     1.0000 0.97970  0.22830  0.33320  Biso   1.000  C
  C184     1.0000 0.02860  0.20830  0.38350  Biso   1.000  C
  C185     1.0000 0.06040  0.26960  0.41510  Biso   1.000  C
  C186     1.0000 0.03760  0.12420  0.39880  Biso   1.000  C
  H134     1.0000 0.05290  0.32530  0.40600  Biso   1.000  H
  C187     1.0000 0.10410  0.24700  0.46100  Biso   1.000  C
  C188     1.0000 0.08050  0.10290  0.44480  Biso   1.000  C
  H135     1.0000 0.01440  0.08310  0.37750  Biso   1.000  H
  C189     1.0000 0.11530  0.16520  0.47670  Biso   1.000  C
  N22      1.0000 0.14317  0.29660  0.49816  Biso   1.000  N
  H136     1.0000 0.08670  0.04730  0.45500  Biso   1.000  H
  C190     1.0000 0.16110  0.16370  0.52730  Biso   1.000  C
  C191     1.0000 0.17820  0.24710  0.53850  Biso   1.000  C
  H137     1.0000 0.14530  0.35000  0.49640  Biso   1.000  H
  C192     1.0000 0.19100  0.10250  0.56310  Biso   1.000  C
  C193     1.0000 0.22400  0.26930  0.58325  Biso   1.000  C
  C194     1.0000 0.23550  0.12520  0.60700  Biso   1.000  C
  H138     1.0000 0.18060  0.04670  0.55700  Biso   1.000  H
  H139     1.0000 0.23530  0.32470  0.58970  Biso   1.000  H
  C195     1.0000 0.25210  0.20780  0.61774  Biso   1.000  C
  H140     1.0000 0.25550  0.08400  0.63080  Biso   1.000  H
  C196     1.0000 0.30106  0.22900  0.66699  Biso   1.000  C
  N23      1.0000 0.88980  0.03800  0.22820  Biso   1.000  N
  C197     1.0000 0.85300  0.99620  0.20120  Biso   1.000  C
  C198     1.0000 0.92680  0.99340  0.25550  Biso   1.000  C
  H141     1.0000 0.82090  0.02440  0.17830  Biso   1.000  H
  C199     1.0000 0.84960  0.90880  0.19800  Biso   1.000  C
  C200     1.0000 0.92770  0.90580  0.25820  Biso   1.000  C
  H142     1.0000 0.95990  0.02010  0.27820  Biso   1.000  H
  H143     1.0000 0.81820  0.88460  0.17200  Biso   1.000  H
  C201     1.0000 0.88580  0.86400  0.22780  Biso   1.000  C
  H144     1.0000 0.95920  0.87890  0.28260  Biso   1.000  H
  C202     1.0000 0.90430  0.76940  0.21780  Biso   1.000  C
  N24      1.0000 0.89060  0.46340  0.27550  Biso   1.000  N
  C203     1.0000 0.94950  0.50480  0.29110  Biso   1.000  C
  H145     1.0000 0.98800  0.47470  0.30080  Biso   1.000  H
  C204     1.0000 0.95090  0.59120  0.29230  Biso   1.000  C
  H146     1.0000 0.99040  0.61890  0.30270  Biso   1.000  H
  C205     1.0000 0.89350  0.63630  0.27780  Biso   1.000  C
  C206     1.0000 0.83460  0.59490  0.26220  Biso   1.000  C
  H147     1.0000 0.79610  0.62510  0.25250  Biso   1.000  H
  C207     1.0000 0.83310  0.50850  0.26100  Biso   1.000  C
  H148     1.0000 0.79370  0.48080  0.25060  Biso   1.000  H
  H149     1.0000 0.95200  0.74290  0.27990  Biso   1.000  H
  H150     1.0000 0.88760  0.75070  0.32120  Biso   1.000  H
  H151     1.0000 0.82080  0.76680  0.23800  Biso   1.000  H
  H152     1.0000 0.88040  0.74590  0.19370  Biso   1.000  H
  C208     1.0000 0.86880  0.77280  0.23200  Biso   1.000  C
