data_image0
_cell_length_a       13.1941
_cell_length_b       14.9897
_cell_length_c       27.8746
_cell_angle_alpha    90
_cell_angle_beta     90
_cell_angle_gamma    90

_symmetry_space_group_name_H-M    "P 1"
_symmetry_int_tables_number       1

loop_
  _symmetry_equiv_pos_as_xyz
  'x, y, z'

loop_
  _atom_site_label
  _atom_site_occupancy
  _atom_site_fract_x
  _atom_site_fract_y
  _atom_site_fract_z
  _atom_site_thermal_displace_type
  _atom_site_B_iso_or_equiv
  _atom_site_type_symbol
  Na1      1.0000 0.49374  0.67064  0.31167  Biso   1.000  Na
  Na2      1.0000 0.00737  0.66425  0.32647  Biso   1.000  Na
  C1       1.0000 0.53950  0.94030  0.43666  Biso   1.000  C
  H1       1.0000 0.55880  0.99670  0.45100  Biso   1.000  H
  H2       1.0000 0.49380  0.91050  0.45870  Biso   1.000  H
  C2       1.0000 0.48260  0.95920  0.39012  Biso   1.000  C
  C3       1.0000 0.44890  0.87210  0.36642  Biso   1.000  C
  H3       1.0000 0.40130  0.84230  0.38760  Biso   1.000  H
  H4       1.0000 0.41320  0.88640  0.33700  Biso   1.000  H
  C4       1.0000 0.54790  0.01430  0.35580  Biso   1.000  C
  H5       1.0000 0.50880  0.02640  0.32710  Biso   1.000  H
  H6       1.0000 0.56280  0.07120  0.37090  Biso   1.000  H
  C5       1.0000 0.38760  0.01160  0.40130  Biso   1.000  C
  H7       1.0000 0.40540  0.06530  0.41820  Biso   1.000  H
  H8       1.0000 0.34350  0.97620  0.42100  Biso   1.000  H
  H9       1.0000 0.35360  0.02670  0.37200  Biso   1.000  H
  C6       1.0000 0.63390  0.57440  0.39616  Biso   1.000  C
  H10      1.0000 0.63460  0.52550  0.37340  Biso   1.000  H
  H11      1.0000 0.57340  0.56840  0.41570  Biso   1.000  H
  C7       1.0000 0.72610  0.56720  0.42810  Biso   1.000  C
  C8       1.0000 0.82410  0.56920  0.40007  Biso   1.000  C
  H12      1.0000 0.88000  0.56250  0.42240  Biso   1.000  H
  H13      1.0000 0.82530  0.51820  0.37870  Biso   1.000  H
  C9       1.0000 0.72280  0.64160  0.46695  Biso   1.000  C
  H14      1.0000 0.66200  0.63360  0.48610  Biso   1.000  H
  H15      1.0000 0.78050  0.63410  0.48810  Biso   1.000  H
  C10      1.0000 0.72170  0.47570  0.45420  Biso   1.000  C
  H16      1.0000 0.65730  0.46930  0.46980  Biso   1.000  H
  H17      1.0000 0.77490  0.47260  0.47760  Biso   1.000  H
  H18      1.0000 0.73020  0.42860  0.43120  Biso   1.000  H
  C11      1.0000 0.95020  0.01200  0.35784  Biso   1.000  C
  C12      1.0000 0.00400  0.95660  0.39579  Biso   1.000  C
  C13      1.0000 0.04220  0.86790  0.37619  Biso   1.000  C
  C14      1.0000 0.93730  0.94800  0.44180  Biso   1.000  C
  C15      1.0000 0.09910  0.00970  0.41090  Biso   1.000  C
  H19      1.0000 0.13510  0.97730  0.43520  Biso   1.000  H
  H20      1.0000 0.07900  0.06680  0.42330  Biso   1.000  H
  H21      1.0000 0.14230  0.01810  0.38360  Biso   1.000  H
  C16      1.0000 0.76400  0.86400  0.21626  Biso   1.000  C
  H22      1.0000 0.82310  0.88920  0.20070  Biso   1.000  H
  H23      1.0000 0.70450  0.88810  0.20040  Biso   1.000  H
  C17      1.0000 0.76530  0.76320  0.20890  Biso   1.000  C
  C18      1.0000 0.85830  0.72170  0.23228  Biso   1.000  C
  H24      1.0000 0.85790  0.65800  0.22600  Biso   1.000  H
  H25      1.0000 0.91850  0.74640  0.21740  Biso   1.000  H
  C19      1.0000 0.66740  0.72280  0.22742  Biso   1.000  C
  H26      1.0000 0.61110  0.75170  0.21130  Biso   1.000  H
  H27      1.0000 0.66600  0.66020  0.21860  Biso   1.000  H
  C20      1.0000 0.77050  0.74250  0.15514  Biso   1.000  C
  H28      1.0000 0.82610  0.77450  0.14100  Biso   1.000  H
  H29      1.0000 0.70840  0.76030  0.14000  Biso   1.000  H
  H30      1.0000 0.78050  0.67960  0.15060  Biso   1.000  H
  O1       1.0000 0.07120  0.60740  0.39854  Biso   1.000  O
  H31      1.0000 0.09400  0.64150  0.37820  Biso   1.000  H
  C21      1.0000 0.13570  0.53060  0.40240  Biso   1.000  C
  H32      1.0000 0.13010  0.49590  0.37310  Biso   1.000  H
  H33      1.0000 0.11200  0.49370  0.42870  Biso   1.000  H
  C22      1.0000 0.24630  0.55360  0.41071  Biso   1.000  C
  C23      1.0000 0.30920  0.46890  0.40930  Biso   1.000  C
  H34      1.0000 0.28730  0.42940  0.43440  Biso   1.000  H
  H35      1.0000 0.37940  0.48350  0.41400  Biso   1.000  H
  H36      1.0000 0.30070  0.44020  0.37880  Biso   1.000  H
  C24      1.0000 0.27980  0.61660  0.37186  Biso   1.000  C
  H37      1.0000 0.26590  0.58940  0.34100  Biso   1.000  H
  H38      1.0000 0.23980  0.67070  0.37400  Biso   1.000  H
  O2       1.0000 0.38330  0.63960  0.37373  Biso   1.000  O
  H39      1.0000 0.39930  0.65050  0.40150  Biso   1.000  H
  C25      1.0000 0.25830  0.59580  0.46046  Biso   1.000  C
  H40      1.0000 0.23230  0.55510  0.48460  Biso   1.000  H
  H41      1.0000 0.32970  0.60550  0.46690  Biso   1.000  H
  O3       1.0000 0.41560  0.68170  0.23805  Biso   1.000  O
  H42      1.0000 0.38300  0.63550  0.24110  Biso   1.000  H
  C26      1.0000 0.36010  0.74310  0.20905  Biso   1.000  C
  H43      1.0000 0.37310  0.73000  0.17550  Biso   1.000  H
  H44      1.0000 0.38430  0.80300  0.21540  Biso   1.000  H
  C27      1.0000 0.24670  0.74010  0.21779  Biso   1.000  C
  C28      1.0000 0.20600  0.64840  0.20738  Biso   1.000  C
  H45      1.0000 0.13280  0.64900  0.21030  Biso   1.000  H
  H46      1.0000 0.22280  0.63200  0.17470  Biso   1.000  H
  O4       1.0000 0.12180  0.75320  0.28350  Biso   1.000  O
  H47      1.0000 0.08920  0.79580  0.27330  Biso   1.000  H
  C29      1.0000 0.22670  0.76380  0.27084  Biso   1.000  C
  H48      1.0000 0.26780  0.72580  0.29120  Biso   1.000  H
  H49      1.0000 0.24690  0.82520  0.27660  Biso   1.000  H
  O5       1.0000 0.20690  0.67680  0.46371  Biso   1.000  O
  H50      1.0000 0.23400  0.70820  0.48410  Biso   1.000  H
  O6       1.0000 0.24640  0.58430  0.23908  Biso   1.000  O
  H51      1.0000 0.26840  0.54200  0.22370  Biso   1.000  H
  C30      1.0000 0.19670  0.80820  0.18380  Biso   1.000  C
  H52      1.0000 0.22020  0.86710  0.19150  Biso   1.000  H
  H53      1.0000 0.12440  0.80570  0.18740  Biso   1.000  H
  H54      1.0000 0.21430  0.79430  0.15120  Biso   1.000  H
  N1       1.0000 0.74550  0.55240  0.29384  Biso   1.000  N
  N2       1.0000 0.74700  0.52420  0.25434  Biso   1.000  N
  N3       1.0000 0.74810  0.49440  0.21608  Biso   1.000  N
  N4       1.0000 0.99850  0.52810  0.28430  Biso   1.000  N
  N5       1.0000 0.00670  0.39720  0.23951  Biso   1.000  N
  N6       1.0000 0.00260  0.46410  0.26236  Biso   1.000  N
  N7       1.0000 0.46470  0.38880  0.24011  Biso   1.000  N
  N8       1.0000 0.46950  0.45440  0.26452  Biso   1.000  N
  N9       1.0000 0.48250  0.51590  0.28810  Biso   1.000  N
  N10      1.0000 0.99310  0.77670  0.54703  Biso   1.000  N
  N11      1.0000 0.97600  0.75270  0.50755  Biso   1.000  N
  N12      1.0000 0.95960  0.72750  0.46808  Biso   1.000  N
  O7       1.0000 0.26190  0.31590  0.14584  Biso   1.000  O
  O8       1.0000 0.62850  0.88660  0.43124  Biso   1.000  O
  O9       1.0000 0.53000  0.81090  0.35528  Biso   1.000  O
  O10      1.0000 0.64150  0.97340  0.34206  Biso   1.000  O
  O11      1.0000 0.62890  0.65790  0.37013  Biso   1.000  O
  O12      1.0000 0.84070  0.64760  0.37249  Biso   1.000  O
  O13      1.0000 0.72370  0.73040  0.44885  Biso   1.000  O
  O14      1.0000 0.85860  0.96890  0.34070  Biso   1.000  O
  O15      1.0000 0.96000  0.81190  0.35846  Biso   1.000  O
  O16      1.0000 0.84370  0.89930  0.43278  Biso   1.000  O
  O17      1.0000 0.76310  0.89250  0.26536  Biso   1.000  O
  O18      1.0000 0.86460  0.73550  0.28358  Biso   1.000  O
  O19      1.0000 0.65130  0.72950  0.27860  Biso   1.000  O
  Mn1      1.0000 0.36068  0.35716  0.19358  Biso   1.000  Mn
  Mn2      1.0000 0.12565  0.35683  0.19240  Biso   1.000  Mn
  Mn3      1.0000 0.74682  0.67626  0.32195  Biso   1.000  Mn
  Mn4      1.0000 0.85877  0.76663  0.41230  Biso   1.000  Mn
  Mn5      1.0000 0.61772  0.76826  0.40577  Biso   1.000  Mn
  Mn6      1.0000 0.74360  0.94881  0.39095  Biso   1.000  Mn
  N13      1.0000 0.74350  0.07000  0.42150  Biso   1.000  N
  N14      1.0000 0.71970  0.13070  0.42350  Biso   1.000  N
  N15      1.0000 0.68550  0.21040  0.41940  Biso   1.000  N
  N16      1.0000 0.73590  0.09870  0.44760  Biso   1.000  N
  N17      1.0000 0.71570  0.13040  0.48820  Biso   1.000  N
  Na3      1.0000 0.00626  0.32936  0.81167  Biso   1.000  Na
  Na4      1.0000 0.49263  0.33575  0.82647  Biso   1.000  Na
  C31      1.0000 0.96050  0.05970  0.93666  Biso   1.000  C
  H55      1.0000 0.94120  0.00330  0.95100  Biso   1.000  H
  H56      1.0000 0.00620  0.08950  0.95870  Biso   1.000  H
  C32      1.0000 0.01740  0.04080  0.89012  Biso   1.000  C
  C33      1.0000 0.05110  0.12790  0.86642  Biso   1.000  C
  H57      1.0000 0.09870  0.15770  0.88760  Biso   1.000  H
  H58      1.0000 0.08680  0.11360  0.83700  Biso   1.000  H
  C34      1.0000 0.95210  0.98570  0.85580  Biso   1.000  C
  H59      1.0000 0.99120  0.97360  0.82710  Biso   1.000  H
  H60      1.0000 0.93720  0.92880  0.87090  Biso   1.000  H
  C35      1.0000 0.11240  0.98840  0.90130  Biso   1.000  C
  H61      1.0000 0.09460  0.93470  0.91820  Biso   1.000  H
  H62      1.0000 0.15650  0.02380  0.92100  Biso   1.000  H
  H63      1.0000 0.14640  0.97330  0.87200  Biso   1.000  H
  C36      1.0000 0.86610  0.42560  0.89616  Biso   1.000  C
  H64      1.0000 0.86540  0.47450  0.87340  Biso   1.000  H
  H65      1.0000 0.92660  0.43160  0.91570  Biso   1.000  H
  C37      1.0000 0.77390  0.43280  0.92810  Biso   1.000  C
  C38      1.0000 0.67590  0.43080  0.90007  Biso   1.000  C
  H66      1.0000 0.62000  0.43750  0.92240  Biso   1.000  H
  H67      1.0000 0.67470  0.48180  0.87870  Biso   1.000  H
  C39      1.0000 0.77720  0.35840  0.96695  Biso   1.000  C
  H68      1.0000 0.83800  0.36640  0.98610  Biso   1.000  H
  H69      1.0000 0.71950  0.36590  0.98810  Biso   1.000  H
  C40      1.0000 0.77830  0.52430  0.95420  Biso   1.000  C
  H70      1.0000 0.84270  0.53070  0.96980  Biso   1.000  H
  H71      1.0000 0.72510  0.52740  0.97760  Biso   1.000  H
  H72      1.0000 0.76980  0.57140  0.93120  Biso   1.000  H
  C41      1.0000 0.54980  0.98800  0.85784  Biso   1.000  C
  C42      1.0000 0.49600  0.04340  0.89579  Biso   1.000  C
  C43      1.0000 0.45780  0.13210  0.87619  Biso   1.000  C
  C44      1.0000 0.56270  0.05200  0.94180  Biso   1.000  C
  C45      1.0000 0.40090  0.99030  0.91090  Biso   1.000  C
  H73      1.0000 0.36490  0.02270  0.93520  Biso   1.000  H
  H74      1.0000 0.42100  0.93320  0.92330  Biso   1.000  H
  H75      1.0000 0.35770  0.98190  0.88360  Biso   1.000  H
  C46      1.0000 0.73600  0.13600  0.71626  Biso   1.000  C
  H76      1.0000 0.67690  0.11080  0.70070  Biso   1.000  H
  H77      1.0000 0.79550  0.11190  0.70040  Biso   1.000  H
  C47      1.0000 0.73470  0.23680  0.70890  Biso   1.000  C
  C48      1.0000 0.64170  0.27830  0.73228  Biso   1.000  C
  H78      1.0000 0.64210  0.34200  0.72600  Biso   1.000  H
  H79      1.0000 0.58150  0.25360  0.71740  Biso   1.000  H
  C49      1.0000 0.83260  0.27720  0.72742  Biso   1.000  C
  H80      1.0000 0.88890  0.24830  0.71130  Biso   1.000  H
  H81      1.0000 0.83400  0.33980  0.71860  Biso   1.000  H
  C50      1.0000 0.72950  0.25750  0.65514  Biso   1.000  C
  H82      1.0000 0.67390  0.22550  0.64100  Biso   1.000  H
  H83      1.0000 0.79160  0.23970  0.64000  Biso   1.000  H
  H84      1.0000 0.71950  0.32040  0.65060  Biso   1.000  H
  O20      1.0000 0.42880  0.39260  0.89854  Biso   1.000  O
  H85      1.0000 0.40600  0.35850  0.87820  Biso   1.000  H
  C51      1.0000 0.36430  0.46940  0.90240  Biso   1.000  C
  H86      1.0000 0.36990  0.50410  0.87310  Biso   1.000  H
  H87      1.0000 0.38800  0.50630  0.92870  Biso   1.000  H
  C52      1.0000 0.25370  0.44640  0.91071  Biso   1.000  C
  C53      1.0000 0.19080  0.53110  0.90930  Biso   1.000  C
  H88      1.0000 0.21270  0.57060  0.93440  Biso   1.000  H
  H89      1.0000 0.12060  0.51650  0.91400  Biso   1.000  H
  H90      1.0000 0.19930  0.55980  0.87880  Biso   1.000  H
  C54      1.0000 0.22020  0.38340  0.87186  Biso   1.000  C
  H91      1.0000 0.23410  0.41060  0.84100  Biso   1.000  H
  H92      1.0000 0.26020  0.32930  0.87400  Biso   1.000  H
  O21      1.0000 0.11670  0.36040  0.87373  Biso   1.000  O
  H93      1.0000 0.10070  0.34950  0.90150  Biso   1.000  H
  C55      1.0000 0.24170  0.40420  0.96046  Biso   1.000  C
  H94      1.0000 0.26770  0.44490  0.98460  Biso   1.000  H
  H95      1.0000 0.17030  0.39450  0.96690  Biso   1.000  H
  O22      1.0000 0.08440  0.31830  0.73805  Biso   1.000  O
  H96      1.0000 0.11700  0.36450  0.74110  Biso   1.000  H
  C56      1.0000 0.13990  0.25690  0.70905  Biso   1.000  C
  H97      1.0000 0.12690  0.27000  0.67550  Biso   1.000  H
  H98      1.0000 0.11570  0.19700  0.71540  Biso   1.000  H
  C57      1.0000 0.25330  0.25990  0.71779  Biso   1.000  C
  C58      1.0000 0.29400  0.35160  0.70738  Biso   1.000  C
  H99      1.0000 0.36720  0.35100  0.71030  Biso   1.000  H
  H100     1.0000 0.27720  0.36800  0.67470  Biso   1.000  H
  O23      1.0000 0.37820  0.24680  0.78350  Biso   1.000  O
  H101     1.0000 0.41080  0.20420  0.77330  Biso   1.000  H
  C59      1.0000 0.27330  0.23620  0.77084  Biso   1.000  C
  H102     1.0000 0.23220  0.27420  0.79120  Biso   1.000  H
  H103     1.0000 0.25310  0.17480  0.77660  Biso   1.000  H
  O24      1.0000 0.29310  0.32320  0.96371  Biso   1.000  O
  H104     1.0000 0.26600  0.29180  0.98410  Biso   1.000  H
  O25      1.0000 0.25360  0.41570  0.73908  Biso   1.000  O
  H105     1.0000 0.23160  0.45800  0.72370  Biso   1.000  H
  C60      1.0000 0.30330  0.19180  0.68380  Biso   1.000  C
  H106     1.0000 0.27980  0.13290  0.69150  Biso   1.000  H
  H107     1.0000 0.37560  0.19430  0.68740  Biso   1.000  H
  H108     1.0000 0.28570  0.20570  0.65120  Biso   1.000  H
  N18      1.0000 0.75450  0.44760  0.79384  Biso   1.000  N
  N19      1.0000 0.75300  0.47580  0.75434  Biso   1.000  N
  N20      1.0000 0.75190  0.50560  0.71608  Biso   1.000  N
  N21      1.0000 0.50150  0.47190  0.78430  Biso   1.000  N
  N22      1.0000 0.49330  0.60280  0.73951  Biso   1.000  N
  N23      1.0000 0.49740  0.53590  0.76236  Biso   1.000  N
  N24      1.0000 0.03530  0.61120  0.74011  Biso   1.000  N
  N25      1.0000 0.03050  0.54560  0.76452  Biso   1.000  N
  N26      1.0000 0.01750  0.48410  0.78810  Biso   1.000  N
  N27      1.0000 0.50690  0.22330  0.04703  Biso   1.000  N
  N28      1.0000 0.52400  0.24730  0.00755  Biso   1.000  N
  N29      1.0000 0.54040  0.27250  0.96808  Biso   1.000  N
  O26      1.0000 0.23810  0.68410  0.64584  Biso   1.000  O
  O27      1.0000 0.87150  0.11340  0.93124  Biso   1.000  O
  O28      1.0000 0.97000  0.18910  0.85528  Biso   1.000  O
  O29      1.0000 0.85850  0.02660  0.84206  Biso   1.000  O
  O30      1.0000 0.87110  0.34210  0.87013  Biso   1.000  O
  O31      1.0000 0.65930  0.35240  0.87249  Biso   1.000  O
  O32      1.0000 0.77630  0.26960  0.94885  Biso   1.000  O
  O33      1.0000 0.64140  0.03110  0.84070  Biso   1.000  O
  O34      1.0000 0.54000  0.18810  0.85846  Biso   1.000  O
  O35      1.0000 0.65630  0.10070  0.93278  Biso   1.000  O
  O36      1.0000 0.73690  0.10750  0.76536  Biso   1.000  O
  O37      1.0000 0.63540  0.26450  0.78358  Biso   1.000  O
  O38      1.0000 0.84870  0.27050  0.77860  Biso   1.000  O
  Mn7      1.0000 0.13932  0.64284  0.69358  Biso   1.000  Mn
  Mn8      1.0000 0.37435  0.64317  0.69240  Biso   1.000  Mn
  Mn9      1.0000 0.75318  0.32374  0.82195  Biso   1.000  Mn
  Mn10     1.0000 0.64123  0.23337  0.91230  Biso   1.000  Mn
  Mn11     1.0000 0.88228  0.23174  0.90577  Biso   1.000  Mn
  Mn12     1.0000 0.75640  0.05119  0.89095  Biso   1.000  Mn
  N30      1.0000 0.75650  0.93000  0.92150  Biso   1.000  N
  N31      1.0000 0.78030  0.86930  0.92350  Biso   1.000  N
  N32      1.0000 0.81450  0.78960  0.91940  Biso   1.000  N
  N33      1.0000 0.76410  0.90130  0.94760  Biso   1.000  N
  N34      1.0000 0.78430  0.86960  0.98820  Biso   1.000  N
  Na5      1.0000 0.50626  0.17064  0.18833  Biso   1.000  Na
  Na6      1.0000 0.99263  0.16425  0.17353  Biso   1.000  Na
  C61      1.0000 0.46050  0.44030  0.06334  Biso   1.000  C
  H109     1.0000 0.44120  0.49670  0.04900  Biso   1.000  H
  H110     1.0000 0.50620  0.41050  0.04130  Biso   1.000  H
  C62      1.0000 0.51740  0.45920  0.10988  Biso   1.000  C
  C63      1.0000 0.55110  0.37210  0.13358  Biso   1.000  C
  H111     1.0000 0.59870  0.34230  0.11240  Biso   1.000  H
  H112     1.0000 0.58680  0.38640  0.16300  Biso   1.000  H
  C64      1.0000 0.45210  0.51430  0.14420  Biso   1.000  C
  H113     1.0000 0.49120  0.52640  0.17290  Biso   1.000  H
  H114     1.0000 0.43720  0.57120  0.12910  Biso   1.000  H
  C65      1.0000 0.61240  0.51160  0.09870  Biso   1.000  C
  H115     1.0000 0.59460  0.56530  0.08180  Biso   1.000  H
  H116     1.0000 0.65650  0.47620  0.07900  Biso   1.000  H
  H117     1.0000 0.64640  0.52670  0.12800  Biso   1.000  H
  C66      1.0000 0.36610  0.07440  0.10384  Biso   1.000  C
  H118     1.0000 0.36540  0.02550  0.12660  Biso   1.000  H
  H119     1.0000 0.42660  0.06840  0.08430  Biso   1.000  H
  C67      1.0000 0.27390  0.06720  0.07190  Biso   1.000  C
  C68      1.0000 0.17590  0.06920  0.09993  Biso   1.000  C
  H120     1.0000 0.12000  0.06250  0.07760  Biso   1.000  H
  H121     1.0000 0.17470  0.01820  0.12130  Biso   1.000  H
  C69      1.0000 0.27720  0.14160  0.03305  Biso   1.000  C
  H122     1.0000 0.33800  0.13360  0.01390  Biso   1.000  H
  H123     1.0000 0.21950  0.13410  0.01190  Biso   1.000  H
  C70      1.0000 0.27830  0.97570  0.04580  Biso   1.000  C
  H124     1.0000 0.34270  0.96930  0.03020  Biso   1.000  H
  H125     1.0000 0.22510  0.97260  0.02240  Biso   1.000  H
  H126     1.0000 0.26980  0.92860  0.06880  Biso   1.000  H
  C71      1.0000 0.04980  0.51200  0.14216  Biso   1.000  C
  C72      1.0000 0.99600  0.45660  0.10421  Biso   1.000  C
  C73      1.0000 0.95780  0.36790  0.12381  Biso   1.000  C
  C74      1.0000 0.06270  0.44800  0.05820  Biso   1.000  C
  C75      1.0000 0.90090  0.50970  0.08910  Biso   1.000  C
  H127     1.0000 0.86490  0.47730  0.06480  Biso   1.000  H
  H128     1.0000 0.92100  0.56680  0.07670  Biso   1.000  H
  H129     1.0000 0.85770  0.51810  0.11640  Biso   1.000  H
  C76      1.0000 0.23600  0.36400  0.28374  Biso   1.000  C
  H130     1.0000 0.17690  0.38920  0.29930  Biso   1.000  H
  H131     1.0000 0.29550  0.38810  0.29960  Biso   1.000  H
  C77      1.0000 0.23470  0.26320  0.29110  Biso   1.000  C
  C78      1.0000 0.14170  0.22170  0.26772  Biso   1.000  C
  H132     1.0000 0.14210  0.15800  0.27400  Biso   1.000  H
  H133     1.0000 0.08150  0.24640  0.28260  Biso   1.000  H
  C79      1.0000 0.33260  0.22280  0.27258  Biso   1.000  C
  H134     1.0000 0.38890  0.25170  0.28870  Biso   1.000  H
  H135     1.0000 0.33400  0.16020  0.28140  Biso   1.000  H
  C80      1.0000 0.22950  0.24250  0.34486  Biso   1.000  C
  H136     1.0000 0.17390  0.27450  0.35900  Biso   1.000  H
  H137     1.0000 0.29160  0.26030  0.36000  Biso   1.000  H
  H138     1.0000 0.21950  0.17960  0.34940  Biso   1.000  H
  O39      1.0000 0.92880  0.10740  0.10146  Biso   1.000  O
  H139     1.0000 0.90600  0.14150  0.12180  Biso   1.000  H
  C81      1.0000 0.86430  0.03060  0.09760  Biso   1.000  C
  H140     1.0000 0.86990  0.99590  0.12690  Biso   1.000  H
  H141     1.0000 0.88800  0.99370  0.07130  Biso   1.000  H
  C82      1.0000 0.75370  0.05360  0.08929  Biso   1.000  C
  C83      1.0000 0.69080  0.96890  0.09070  Biso   1.000  C
  H142     1.0000 0.71270  0.92940  0.06560  Biso   1.000  H
  H143     1.0000 0.62060  0.98350  0.08600  Biso   1.000  H
  H144     1.0000 0.69930  0.94020  0.12120  Biso   1.000  H
  C84      1.0000 0.72020  0.11660  0.12814  Biso   1.000  C
  H145     1.0000 0.73410  0.08940  0.15900  Biso   1.000  H
  H146     1.0000 0.76020  0.17070  0.12600  Biso   1.000  H
  O40      1.0000 0.61670  0.13960  0.12627  Biso   1.000  O
  H147     1.0000 0.60070  0.15050  0.09850  Biso   1.000  H
  C85      1.0000 0.74170  0.09580  0.03954  Biso   1.000  C
  H148     1.0000 0.76770  0.05510  0.01540  Biso   1.000  H
  H149     1.0000 0.67030  0.10550  0.03310  Biso   1.000  H
  O41      1.0000 0.58440  0.18170  0.26195  Biso   1.000  O
  H150     1.0000 0.61700  0.13550  0.25890  Biso   1.000  H
  C86      1.0000 0.63990  0.24310  0.29095  Biso   1.000  C
  H151     1.0000 0.62690  0.23000  0.32450  Biso   1.000  H
  H152     1.0000 0.61570  0.30300  0.28460  Biso   1.000  H
  C87      1.0000 0.75330  0.24010  0.28221  Biso   1.000  C
  C88      1.0000 0.79400  0.14840  0.29262  Biso   1.000  C
  H153     1.0000 0.86720  0.14900  0.28970  Biso   1.000  H
  H154     1.0000 0.77720  0.13200  0.32530  Biso   1.000  H
  O42      1.0000 0.87820  0.25320  0.21650  Biso   1.000  O
  H155     1.0000 0.91080  0.29580  0.22670  Biso   1.000  H
  C89      1.0000 0.77330  0.26380  0.22916  Biso   1.000  C
  H156     1.0000 0.73220  0.22580  0.20880  Biso   1.000  H
  H157     1.0000 0.75310  0.32520  0.22340  Biso   1.000  H
  O43      1.0000 0.79310  0.17680  0.03629  Biso   1.000  O
  H158     1.0000 0.76600  0.20820  0.01590  Biso   1.000  H
  O44      1.0000 0.75360  0.08430  0.26092  Biso   1.000  O
  H159     1.0000 0.73160  0.04200  0.27630  Biso   1.000  H
  C90      1.0000 0.80330  0.30820  0.31620  Biso   1.000  C
  H160     1.0000 0.77980  0.36710  0.30850  Biso   1.000  H
  H161     1.0000 0.87560  0.30570  0.31260  Biso   1.000  H
  H162     1.0000 0.78570  0.29430  0.34880  Biso   1.000  H
  N35      1.0000 0.25450  0.05240  0.20616  Biso   1.000  N
  N36      1.0000 0.25300  0.02420  0.24566  Biso   1.000  N
  N37      1.0000 0.25190  0.99440  0.28392  Biso   1.000  N
  N38      1.0000 0.00150  0.02810  0.21570  Biso   1.000  N
  N39      1.0000 0.99330  0.89720  0.26049  Biso   1.000  N
  N40      1.0000 0.99740  0.96410  0.23764  Biso   1.000  N
  N41      1.0000 0.53530  0.88880  0.25989  Biso   1.000  N
  N42      1.0000 0.53050  0.95440  0.23548  Biso   1.000  N
  N43      1.0000 0.51750  0.01590  0.21190  Biso   1.000  N
  N44      1.0000 0.00690  0.27670  0.95297  Biso   1.000  N
  N45      1.0000 0.02400  0.25270  0.99245  Biso   1.000  N
  N46      1.0000 0.04040  0.22750  0.03192  Biso   1.000  N
  O45      1.0000 0.73810  0.81590  0.35416  Biso   1.000  O
  O46      1.0000 0.37150  0.38660  0.06876  Biso   1.000  O
  O47      1.0000 0.47000  0.31090  0.14472  Biso   1.000  O
  O48      1.0000 0.35850  0.47340  0.15794  Biso   1.000  O
  O49      1.0000 0.37110  0.15790  0.12987  Biso   1.000  O
  O50      1.0000 0.15930  0.14760  0.12751  Biso   1.000  O
  O51      1.0000 0.27630  0.23040  0.05115  Biso   1.000  O
  O52      1.0000 0.14140  0.46890  0.15930  Biso   1.000  O
  O53      1.0000 0.04000  0.31190  0.14154  Biso   1.000  O
  O54      1.0000 0.15630  0.39930  0.06722  Biso   1.000  O
  O55      1.0000 0.23690  0.39250  0.23464  Biso   1.000  O
  O56      1.0000 0.13540  0.23550  0.21642  Biso   1.000  O
  O57      1.0000 0.34870  0.22950  0.22140  Biso   1.000  O
  Mn13     1.0000 0.63932  0.85716  0.30642  Biso   1.000  Mn
  Mn14     1.0000 0.87435  0.85683  0.30760  Biso   1.000  Mn
  Mn15     1.0000 0.25318  0.17626  0.17805  Biso   1.000  Mn
  Mn16     1.0000 0.14123  0.26663  0.08770  Biso   1.000  Mn
  Mn17     1.0000 0.38228  0.26826  0.09423  Biso   1.000  Mn
  Mn18     1.0000 0.25640  0.44881  0.10905  Biso   1.000  Mn
  N47      1.0000 0.25650  0.57000  0.07850  Biso   1.000  N
  N48      1.0000 0.28030  0.63070  0.07650  Biso   1.000  N
  N49      1.0000 0.31450  0.71040  0.08060  Biso   1.000  N
  N50      1.0000 0.26410  0.59870  0.05240  Biso   1.000  N
  N51      1.0000 0.28430  0.63040  0.01180  Biso   1.000  N
  Na7      1.0000 0.99374  0.82936  0.68833  Biso   1.000  Na
  Na8      1.0000 0.50737  0.83575  0.67353  Biso   1.000  Na
  C91      1.0000 0.03950  0.55970  0.56334  Biso   1.000  C
  H163     1.0000 0.05880  0.50330  0.54900  Biso   1.000  H
  H164     1.0000 0.99380  0.58950  0.54130  Biso   1.000  H
  C92      1.0000 0.98260  0.54080  0.60988  Biso   1.000  C
  C93      1.0000 0.94890  0.62790  0.63358  Biso   1.000  C
  H165     1.0000 0.90130  0.65770  0.61240  Biso   1.000  H
  H166     1.0000 0.91320  0.61360  0.66300  Biso   1.000  H
  C94      1.0000 0.04790  0.48570  0.64420  Biso   1.000  C
  H167     1.0000 0.00880  0.47360  0.67290  Biso   1.000  H
  H168     1.0000 0.06280  0.42880  0.62910  Biso   1.000  H
  C95      1.0000 0.88760  0.48840  0.59870  Biso   1.000  C
  H169     1.0000 0.90540  0.43470  0.58180  Biso   1.000  H
  H170     1.0000 0.84350  0.52380  0.57900  Biso   1.000  H
  H171     1.0000 0.85360  0.47330  0.62800  Biso   1.000  H
  C96      1.0000 0.13390  0.92560  0.60384  Biso   1.000  C
  H172     1.0000 0.13460  0.97450  0.62660  Biso   1.000  H
  H173     1.0000 0.07340  0.93160  0.58430  Biso   1.000  H
  C97      1.0000 0.22610  0.93280  0.57190  Biso   1.000  C
  C98      1.0000 0.32410  0.93080  0.59993  Biso   1.000  C
  H174     1.0000 0.38000  0.93750  0.57760  Biso   1.000  H
  H175     1.0000 0.32530  0.98180  0.62130  Biso   1.000  H
  C99      1.0000 0.22280  0.85840  0.53305  Biso   1.000  C
  H176     1.0000 0.16200  0.86640  0.51390  Biso   1.000  H
  H177     1.0000 0.28050  0.86590  0.51190  Biso   1.000  H
  C100     1.0000 0.22170  0.02430  0.54580  Biso   1.000  C
  H178     1.0000 0.15730  0.03070  0.53020  Biso   1.000  H
  H179     1.0000 0.27490  0.02740  0.52240  Biso   1.000  H
  H180     1.0000 0.23020  0.07140  0.56880  Biso   1.000  H
  C101     1.0000 0.45020  0.48800  0.64216  Biso   1.000  C
  C102     1.0000 0.50400  0.54340  0.60421  Biso   1.000  C
  C103     1.0000 0.54220  0.63210  0.62381  Biso   1.000  C
  C104     1.0000 0.43730  0.55200  0.55820  Biso   1.000  C
  C105     1.0000 0.59910  0.49030  0.58910  Biso   1.000  C
  H181     1.0000 0.63510  0.52270  0.56480  Biso   1.000  H
  H182     1.0000 0.57900  0.43320  0.57670  Biso   1.000  H
  H183     1.0000 0.64230  0.48190  0.61640  Biso   1.000  H
  C106     1.0000 0.26400  0.63600  0.78374  Biso   1.000  C
  H184     1.0000 0.32310  0.61080  0.79930  Biso   1.000  H
  H185     1.0000 0.20450  0.61190  0.79960  Biso   1.000  H
  C107     1.0000 0.26530  0.73680  0.79110  Biso   1.000  C
  C108     1.0000 0.35830  0.77830  0.76772  Biso   1.000  C
  H186     1.0000 0.35790  0.84200  0.77400  Biso   1.000  H
  H187     1.0000 0.41850  0.75360  0.78260  Biso   1.000  H
  C109     1.0000 0.16740  0.77720  0.77258  Biso   1.000  C
  H188     1.0000 0.11110  0.74830  0.78870  Biso   1.000  H
  H189     1.0000 0.16600  0.83980  0.78140  Biso   1.000  H
  C110     1.0000 0.27050  0.75750  0.84486  Biso   1.000  C
  H190     1.0000 0.32610  0.72550  0.85900  Biso   1.000  H
  H191     1.0000 0.20840  0.73970  0.86000  Biso   1.000  H
  H192     1.0000 0.28050  0.82040  0.84940  Biso   1.000  H
  O58      1.0000 0.57120  0.89260  0.60146  Biso   1.000  O
  H193     1.0000 0.59400  0.85850  0.62180  Biso   1.000  H
  C111     1.0000 0.63570  0.96940  0.59760  Biso   1.000  C
  H194     1.0000 0.63010  0.00410  0.62690  Biso   1.000  H
  H195     1.0000 0.61200  0.00630  0.57130  Biso   1.000  H
  C112     1.0000 0.74630  0.94640  0.58929  Biso   1.000  C
  C113     1.0000 0.80920  0.03110  0.59070  Biso   1.000  C
  H196     1.0000 0.78730  0.07060  0.56560  Biso   1.000  H
  H197     1.0000 0.87940  0.01650  0.58600  Biso   1.000  H
  H198     1.0000 0.80070  0.05980  0.62120  Biso   1.000  H
  C114     1.0000 0.77980  0.88340  0.62814  Biso   1.000  C
  H199     1.0000 0.76590  0.91060  0.65900  Biso   1.000  H
  H200     1.0000 0.73980  0.82930  0.62600  Biso   1.000  H
  O59      1.0000 0.88330  0.86040  0.62627  Biso   1.000  O
  H201     1.0000 0.89930  0.84950  0.59850  Biso   1.000  H
  C115     1.0000 0.75830  0.90420  0.53954  Biso   1.000  C
  H202     1.0000 0.73230  0.94490  0.51540  Biso   1.000  H
  H203     1.0000 0.82970  0.89450  0.53310  Biso   1.000  H
  O60      1.0000 0.91560  0.81830  0.76195  Biso   1.000  O
  H204     1.0000 0.88300  0.86450  0.75890  Biso   1.000  H
  C116     1.0000 0.86010  0.75690  0.79095  Biso   1.000  C
  H205     1.0000 0.87310  0.77000  0.82450  Biso   1.000  H
  H206     1.0000 0.88430  0.69700  0.78460  Biso   1.000  H
  C117     1.0000 0.74670  0.75990  0.78221  Biso   1.000  C
  C118     1.0000 0.70600  0.85160  0.79262  Biso   1.000  C
  H207     1.0000 0.63280  0.85100  0.78970  Biso   1.000  H
  H208     1.0000 0.72280  0.86800  0.82530  Biso   1.000  H
  O61      1.0000 0.62180  0.74680  0.71650  Biso   1.000  O
  H209     1.0000 0.58920  0.70420  0.72670  Biso   1.000  H
  C119     1.0000 0.72670  0.73620  0.72916  Biso   1.000  C
  H210     1.0000 0.76780  0.77420  0.70880  Biso   1.000  H
  H211     1.0000 0.74690  0.67480  0.72340  Biso   1.000  H
  O62      1.0000 0.70690  0.82320  0.53629  Biso   1.000  O
  H212     1.0000 0.73400  0.79180  0.51590  Biso   1.000  H
  O63      1.0000 0.74640  0.91570  0.76092  Biso   1.000  O
  H213     1.0000 0.76840  0.95800  0.77630  Biso   1.000  H
  C120     1.0000 0.69670  0.69180  0.81620  Biso   1.000  C
  H214     1.0000 0.72020  0.63290  0.80850  Biso   1.000  H
  H215     1.0000 0.62440  0.69430  0.81260  Biso   1.000  H
  H216     1.0000 0.71430  0.70570  0.84880  Biso   1.000  H
  N52      1.0000 0.24550  0.94760  0.70616  Biso   1.000  N
  N53      1.0000 0.24700  0.97580  0.74566  Biso   1.000  N
  N54      1.0000 0.24810  0.00560  0.78392  Biso   1.000  N
  N55      1.0000 0.49850  0.97190  0.71570  Biso   1.000  N
  N56      1.0000 0.50670  0.10280  0.76049  Biso   1.000  N
  N57      1.0000 0.50260  0.03590  0.73764  Biso   1.000  N
  N58      1.0000 0.96470  0.11120  0.75989  Biso   1.000  N
  N59      1.0000 0.96950  0.04560  0.73548  Biso   1.000  N
  N60      1.0000 0.98250  0.98410  0.71190  Biso   1.000  N
  N61      1.0000 0.49310  0.72330  0.45297  Biso   1.000  N
  N62      1.0000 0.47600  0.74730  0.49245  Biso   1.000  N
  N63      1.0000 0.45960  0.77250  0.53192  Biso   1.000  N
  O64      1.0000 0.76190  0.18410  0.85416  Biso   1.000  O
  O65      1.0000 0.12850  0.61340  0.56876  Biso   1.000  O
  O66      1.0000 0.03000  0.68910  0.64472  Biso   1.000  O
  O67      1.0000 0.14150  0.52660  0.65794  Biso   1.000  O
  O68      1.0000 0.12890  0.84210  0.62987  Biso   1.000  O
  O69      1.0000 0.34070  0.85240  0.62751  Biso   1.000  O
  O70      1.0000 0.22370  0.76960  0.55115  Biso   1.000  O
  O71      1.0000 0.35860  0.53110  0.65930  Biso   1.000  O
  O72      1.0000 0.46000  0.68810  0.64154  Biso   1.000  O
  O73      1.0000 0.34370  0.60070  0.56722  Biso   1.000  O
  O74      1.0000 0.26310  0.60750  0.73464  Biso   1.000  O
  O75      1.0000 0.36460  0.76450  0.71642  Biso   1.000  O
  O76      1.0000 0.15130  0.77050  0.72140  Biso   1.000  O
  Mn19     1.0000 0.86068  0.14284  0.80642  Biso   1.000  Mn
  Mn20     1.0000 0.62565  0.14317  0.80760  Biso   1.000  Mn
  Mn21     1.0000 0.24682  0.82374  0.67805  Biso   1.000  Mn
  Mn22     1.0000 0.35877  0.73337  0.58770  Biso   1.000  Mn
  Mn23     1.0000 0.11772  0.73174  0.59423  Biso   1.000  Mn
  Mn24     1.0000 0.24360  0.55119  0.60905  Biso   1.000  Mn
  N64      1.0000 0.24350  0.43000  0.57850  Biso   1.000  N
  N65      1.0000 0.21970  0.36930  0.57650  Biso   1.000  N
  N66      1.0000 0.18550  0.28960  0.58060  Biso   1.000  N
  N67      1.0000 0.23590  0.40130  0.55240  Biso   1.000  N
  N68      1.0000 0.21570  0.36960  0.51180  Biso   1.000  N
