data_image0
_cell_length_a       24.1322
_cell_length_b       8.2047
_cell_length_c       15.471
_cell_angle_alpha    90
_cell_angle_beta     90
_cell_angle_gamma    90

_symmetry_space_group_name_H-M    "P 1"
_symmetry_int_tables_number       1

loop_
  _symmetry_equiv_pos_as_xyz
  'x, y, z'

loop_
  _atom_site_label
  _atom_site_occupancy
  _atom_site_fract_x
  _atom_site_fract_y
  _atom_site_fract_z
  _atom_site_thermal_displace_type
  _atom_site_B_iso_or_equiv
  _atom_site_type_symbol
  Ni1      1.0000 0.81435  0.58155  0.97866  Biso   1.000  Ni
  F1       1.0000 0.95179  0.81960  0.34370  Biso   1.000  F
  F2       1.0000 0.01346  0.71350  0.26160  Biso   1.000  F
  F3       1.0000 0.03753  0.85540  0.37220  Biso   1.000  F
  O1       1.0000 0.89870  0.62460  0.97980  Biso   1.000  O
  O2       1.0000 0.93780  0.84670  0.92210  Biso   1.000  O
  O3       1.0000 0.79526  0.82520  0.97860  Biso   1.000  O
  O4       1.0000 0.77048  0.06060  0.03630  Biso   1.000  O
  N1       1.0000 0.81560  0.58830  0.57100  Biso   1.000  N
  N2       1.0000 0.80750  0.55960  0.38660  Biso   1.000  N
  N3       1.0000 0.81720  0.58830  0.84260  Biso   1.000  N
  N4       1.0000 0.81020  0.57200  0.11330  Biso   1.000  N
  C1       1.0000 0.94740  0.98220  0.19250  Biso   1.000  C
  C2       1.0000 0.94930  0.89030  0.11700  Biso   1.000  C
  H1       1.0000 0.98240  0.83890  0.10240  Biso   1.000  H
  C3       1.0000 0.90440  0.87190  0.06280  Biso   1.000  C
  C4       1.0000 0.85300  0.94740  0.08510  Biso   1.000  C
  C5       1.0000 0.85110  0.03910  0.16160  Biso   1.000  C
  H2       1.0000 0.81820  0.09080  0.17690  Biso   1.000  H
  C6       1.0000 0.89630  0.05440  0.21440  Biso   1.000  C
  H3       1.0000 0.89330  0.11350  0.26540  Biso   1.000  H
  C7       1.0000 0.00080  0.84570  0.30710  Biso   1.000  C
  C8       1.0000 0.91350  0.77500  0.97980  Biso   1.000  C
  C9       1.0000 0.80340  0.94170  0.02930  Biso   1.000  C
  C10      1.0000 0.84510  0.46260  0.52480  Biso   1.000  C
  H4       1.0000 0.82340  0.36300  0.52650  Biso   1.000  H
  H5       1.0000 0.87990  0.44150  0.55390  Biso   1.000  H
  C11      1.0000 0.85640  0.50490  0.43370  Biso   1.000  C
  H6       1.0000 0.88420  0.59030  0.43200  Biso   1.000  H
  H7       1.0000 0.87170  0.41020  0.40470  Biso   1.000  H
  C12      1.0000 0.78780  0.71200  0.43170  Biso   1.000  C
  H8       1.0000 0.75900  0.76620  0.39870  Biso   1.000  H
  H9       1.0000 0.81810  0.78710  0.44180  Biso   1.000  H
  C13      1.0000 0.76330  0.63780  0.52330  Biso   1.000  C
  H10      1.0000 0.74290  0.72000  0.55510  Biso   1.000  H
  H11      1.0000 0.73950  0.54470  0.51310  Biso   1.000  H
  C14      1.0000 0.84460  0.47920  0.79630  Biso   1.000  C
  H12      1.0000 0.86530  0.40210  0.82620  Biso   1.000  H
  C15      1.0000 0.84480  0.47040  0.70770  Biso   1.000  C
  H13      1.0000 0.86480  0.38930  0.67950  Biso   1.000  H
  C16      1.0000 0.81460  0.58520  0.66050  Biso   1.000  C
  C17      1.0000 0.78650  0.70290  0.70770  Biso   1.000  C
  H14      1.0000 0.76630  0.78350  0.67960  Biso   1.000  H
  C18      1.0000 0.78890  0.69930  0.79700  Biso   1.000  C
  H15      1.0000 0.76960  0.77910  0.82730  Biso   1.000  H
  C19      1.0000 0.85240  0.51400  0.15830  Biso   1.000  C
  H16      1.0000 0.88280  0.47350  0.12810  Biso   1.000  H
  C20      1.0000 0.85410  0.51000  0.24730  Biso   1.000  C
  H17      1.0000 0.88520  0.46820  0.27500  Biso   1.000  H
  C21      1.0000 0.81000  0.56750  0.29640  Biso   1.000  C
  C22      1.0000 0.76450  0.62630  0.24770  Biso   1.000  C
  H18      1.0000 0.73300  0.66380  0.27600  Biso   1.000  H
  C23      1.0000 0.76650  0.62840  0.15970  Biso   1.000  C
  H19      1.0000 0.73630  0.67070  0.12980  Biso   1.000  H
  C24      1.0000 0.76870  0.66300  0.43350  Biso   1.000  C
  H20      1.0000 0.76770  0.76830  0.40540  Biso   1.000  H
  H21      1.0000 0.73210  0.61520  0.42830  Biso   1.000  H
  C25      1.0000 0.78000  0.68800  0.52300  Biso   1.000  C
  H22      1.0000 0.79400  0.79790  0.52840  Biso   1.000  H
  H23      1.0000 0.74450  0.68540  0.55230  Biso   1.000  H
  Ni2      1.0000 0.18565  0.41845  0.97866  Biso   1.000  Ni
  F4       1.0000 0.04821  0.18040  0.34370  Biso   1.000  F
  F5       1.0000 0.98654  0.28650  0.26160  Biso   1.000  F
  F6       1.0000 0.96247  0.14460  0.37220  Biso   1.000  F
  O5       1.0000 0.10130  0.37540  0.97980  Biso   1.000  O
  O6       1.0000 0.06220  0.15330  0.92210  Biso   1.000  O
  O7       1.0000 0.20474  0.17480  0.97860  Biso   1.000  O
  O8       1.0000 0.22952  0.93940  0.03630  Biso   1.000  O
  N5       1.0000 0.18440  0.41170  0.57100  Biso   1.000  N
  N6       1.0000 0.19250  0.44040  0.38660  Biso   1.000  N
  N7       1.0000 0.18280  0.41170  0.84260  Biso   1.000  N
  N8       1.0000 0.18980  0.42800  0.11330  Biso   1.000  N
  C26      1.0000 0.05260  0.01780  0.19250  Biso   1.000  C
  C27      1.0000 0.05070  0.10970  0.11700  Biso   1.000  C
  H24      1.0000 0.01760  0.16110  0.10240  Biso   1.000  H
  C28      1.0000 0.09560  0.12810  0.06280  Biso   1.000  C
  C29      1.0000 0.14700  0.05260  0.08510  Biso   1.000  C
  C30      1.0000 0.14890  0.96090  0.16160  Biso   1.000  C
  H25      1.0000 0.18180  0.90920  0.17690  Biso   1.000  H
  C31      1.0000 0.10370  0.94560  0.21440  Biso   1.000  C
  H26      1.0000 0.10670  0.88650  0.26540  Biso   1.000  H
  C32      1.0000 0.99920  0.15430  0.30710  Biso   1.000  C
  C33      1.0000 0.08650  0.22500  0.97980  Biso   1.000  C
  C34      1.0000 0.19660  0.05830  0.02930  Biso   1.000  C
  C35      1.0000 0.15490  0.53740  0.52480  Biso   1.000  C
  H27      1.0000 0.17660  0.63700  0.52650  Biso   1.000  H
  H28      1.0000 0.12010  0.55850  0.55390  Biso   1.000  H
  C36      1.0000 0.14360  0.49510  0.43370  Biso   1.000  C
  H29      1.0000 0.11580  0.40970  0.43200  Biso   1.000  H
  H30      1.0000 0.12830  0.58980  0.40470  Biso   1.000  H
  C37      1.0000 0.21220  0.28800  0.43170  Biso   1.000  C
  H31      1.0000 0.24100  0.23380  0.39870  Biso   1.000  H
  H32      1.0000 0.18190  0.21290  0.44180  Biso   1.000  H
  C38      1.0000 0.23670  0.36220  0.52330  Biso   1.000  C
  H33      1.0000 0.25710  0.28000  0.55510  Biso   1.000  H
  H34      1.0000 0.26050  0.45530  0.51310  Biso   1.000  H
  C39      1.0000 0.15540  0.52080  0.79630  Biso   1.000  C
  H35      1.0000 0.13470  0.59790  0.82620  Biso   1.000  H
  C40      1.0000 0.15520  0.52960  0.70770  Biso   1.000  C
  H36      1.0000 0.13520  0.61070  0.67950  Biso   1.000  H
  C41      1.0000 0.18540  0.41480  0.66050  Biso   1.000  C
  C42      1.0000 0.21350  0.29710  0.70770  Biso   1.000  C
  H37      1.0000 0.23370  0.21650  0.67960  Biso   1.000  H
  C43      1.0000 0.21110  0.30070  0.79700  Biso   1.000  C
  H38      1.0000 0.23040  0.22090  0.82730  Biso   1.000  H
  C44      1.0000 0.14760  0.48600  0.15830  Biso   1.000  C
  H39      1.0000 0.11720  0.52650  0.12810  Biso   1.000  H
  C45      1.0000 0.14590  0.49000  0.24730  Biso   1.000  C
  H40      1.0000 0.11480  0.53180  0.27500  Biso   1.000  H
  C46      1.0000 0.19000  0.43250  0.29640  Biso   1.000  C
  C47      1.0000 0.23550  0.37370  0.24770  Biso   1.000  C
  H41      1.0000 0.26700  0.33620  0.27600  Biso   1.000  H
  C48      1.0000 0.23350  0.37160  0.15970  Biso   1.000  C
  H42      1.0000 0.26370  0.32930  0.12980  Biso   1.000  H
  C49      1.0000 0.23130  0.33700  0.43350  Biso   1.000  C
  H43      1.0000 0.23230  0.23170  0.40540  Biso   1.000  H
  H44      1.0000 0.26790  0.38480  0.42830  Biso   1.000  H
  C50      1.0000 0.22000  0.31200  0.52300  Biso   1.000  C
  H45      1.0000 0.20600  0.20210  0.52840  Biso   1.000  H
  H46      1.0000 0.25550  0.31460  0.55230  Biso   1.000  H
  Ni3      1.0000 0.68565  0.08155  0.02134  Biso   1.000  Ni
  F7       1.0000 0.54821  0.31960  0.65630  Biso   1.000  F
  F8       1.0000 0.48654  0.21350  0.73840  Biso   1.000  F
  F9       1.0000 0.46247  0.35540  0.62780  Biso   1.000  F
  O9       1.0000 0.60130  0.12460  0.02020  Biso   1.000  O
  O10      1.0000 0.56220  0.34670  0.07790  Biso   1.000  O
  O11      1.0000 0.70474  0.32520  0.02140  Biso   1.000  O
  O12      1.0000 0.72952  0.56060  0.96370  Biso   1.000  O
  N9       1.0000 0.68440  0.08830  0.42900  Biso   1.000  N
  N10      1.0000 0.69250  0.05960  0.61340  Biso   1.000  N
  N11      1.0000 0.68280  0.08830  0.15740  Biso   1.000  N
  N12      1.0000 0.68980  0.07200  0.88670  Biso   1.000  N
  C51      1.0000 0.55260  0.48220  0.80750  Biso   1.000  C
  C52      1.0000 0.55070  0.39030  0.88300  Biso   1.000  C
  H47      1.0000 0.51760  0.33890  0.89760  Biso   1.000  H
  C53      1.0000 0.59560  0.37190  0.93720  Biso   1.000  C
  C54      1.0000 0.64700  0.44740  0.91490  Biso   1.000  C
  C55      1.0000 0.64890  0.53910  0.83840  Biso   1.000  C
  H48      1.0000 0.68180  0.59080  0.82310  Biso   1.000  H
  C56      1.0000 0.60370  0.55440  0.78560  Biso   1.000  C
  H49      1.0000 0.60670  0.61350  0.73460  Biso   1.000  H
  C57      1.0000 0.49920  0.34570  0.69290  Biso   1.000  C
  C58      1.0000 0.58650  0.27500  0.02020  Biso   1.000  C
  C59      1.0000 0.69660  0.44170  0.97070  Biso   1.000  C
  C60      1.0000 0.65490  0.96260  0.47520  Biso   1.000  C
  H50      1.0000 0.67660  0.86300  0.47350  Biso   1.000  H
  H51      1.0000 0.62010  0.94150  0.44610  Biso   1.000  H
  C61      1.0000 0.64360  0.00490  0.56630  Biso   1.000  C
  H52      1.0000 0.61580  0.09030  0.56800  Biso   1.000  H
  H53      1.0000 0.62830  0.91020  0.59530  Biso   1.000  H
  C62      1.0000 0.71220  0.21200  0.56830  Biso   1.000  C
  H54      1.0000 0.74100  0.26620  0.60130  Biso   1.000  H
  H55      1.0000 0.68190  0.28710  0.55820  Biso   1.000  H
  C63      1.0000 0.73670  0.13780  0.47670  Biso   1.000  C
  H56      1.0000 0.75710  0.22000  0.44490  Biso   1.000  H
  H57      1.0000 0.76050  0.04470  0.48690  Biso   1.000  H
  C64      1.0000 0.65540  0.97920  0.20370  Biso   1.000  C
  H58      1.0000 0.63470  0.90210  0.17380  Biso   1.000  H
  C65      1.0000 0.65520  0.97040  0.29230  Biso   1.000  C
  H59      1.0000 0.63520  0.88930  0.32050  Biso   1.000  H
  C66      1.0000 0.68540  0.08520  0.33950  Biso   1.000  C
  C67      1.0000 0.71350  0.20290  0.29230  Biso   1.000  C
  H60      1.0000 0.73370  0.28350  0.32040  Biso   1.000  H
  C68      1.0000 0.71110  0.19930  0.20300  Biso   1.000  C
  H61      1.0000 0.73040  0.27910  0.17270  Biso   1.000  H
  C69      1.0000 0.64760  0.01400  0.84170  Biso   1.000  C
  H62      1.0000 0.61720  0.97350  0.87190  Biso   1.000  H
  C70      1.0000 0.64590  0.01000  0.75270  Biso   1.000  C
  H63      1.0000 0.61480  0.96820  0.72500  Biso   1.000  H
  C71      1.0000 0.69000  0.06750  0.70360  Biso   1.000  C
  C72      1.0000 0.73550  0.12630  0.75230  Biso   1.000  C
  H64      1.0000 0.76700  0.16380  0.72400  Biso   1.000  H
  C73      1.0000 0.73350  0.12840  0.84030  Biso   1.000  C
  H65      1.0000 0.76370  0.17070  0.87020  Biso   1.000  H
  C74      1.0000 0.73130  0.16300  0.56650  Biso   1.000  C
  H66      1.0000 0.73230  0.26830  0.59460  Biso   1.000  H
  H67      1.0000 0.76790  0.11520  0.57170  Biso   1.000  H
  C75      1.0000 0.72000  0.18800  0.47700  Biso   1.000  C
  H68      1.0000 0.70600  0.29790  0.47160  Biso   1.000  H
  H69      1.0000 0.75550  0.18540  0.44770  Biso   1.000  H
  Ni4      1.0000 0.31435  0.91845  0.02134  Biso   1.000  Ni
  F10      1.0000 0.45179  0.68040  0.65630  Biso   1.000  F
  F11      1.0000 0.51346  0.78650  0.73840  Biso   1.000  F
  F12      1.0000 0.53753  0.64460  0.62780  Biso   1.000  F
  O13      1.0000 0.39870  0.87540  0.02020  Biso   1.000  O
  O14      1.0000 0.43780  0.65330  0.07790  Biso   1.000  O
  O15      1.0000 0.29526  0.67480  0.02140  Biso   1.000  O
  O16      1.0000 0.27048  0.43940  0.96370  Biso   1.000  O
  N13      1.0000 0.31560  0.91170  0.42900  Biso   1.000  N
  N14      1.0000 0.30750  0.94040  0.61340  Biso   1.000  N
  N15      1.0000 0.31720  0.91170  0.15740  Biso   1.000  N
  N16      1.0000 0.31020  0.92800  0.88670  Biso   1.000  N
  C76      1.0000 0.44740  0.51780  0.80750  Biso   1.000  C
  C77      1.0000 0.44930  0.60970  0.88300  Biso   1.000  C
  H70      1.0000 0.48240  0.66110  0.89760  Biso   1.000  H
  C78      1.0000 0.40440  0.62810  0.93720  Biso   1.000  C
  C79      1.0000 0.35300  0.55260  0.91490  Biso   1.000  C
  C80      1.0000 0.35110  0.46090  0.83840  Biso   1.000  C
  H71      1.0000 0.31820  0.40920  0.82310  Biso   1.000  H
  C81      1.0000 0.39630  0.44560  0.78560  Biso   1.000  C
  H72      1.0000 0.39330  0.38650  0.73460  Biso   1.000  H
  C82      1.0000 0.50080  0.65430  0.69290  Biso   1.000  C
  C83      1.0000 0.41350  0.72500  0.02020  Biso   1.000  C
  C84      1.0000 0.30340  0.55830  0.97070  Biso   1.000  C
  C85      1.0000 0.34510  0.03740  0.47520  Biso   1.000  C
  H73      1.0000 0.32340  0.13700  0.47350  Biso   1.000  H
  H74      1.0000 0.37990  0.05850  0.44610  Biso   1.000  H
  C86      1.0000 0.35640  0.99510  0.56630  Biso   1.000  C
  H75      1.0000 0.38420  0.90970  0.56800  Biso   1.000  H
  H76      1.0000 0.37170  0.08980  0.59530  Biso   1.000  H
  C87      1.0000 0.28780  0.78800  0.56830  Biso   1.000  C
  H77      1.0000 0.25900  0.73380  0.60130  Biso   1.000  H
  H78      1.0000 0.31810  0.71290  0.55820  Biso   1.000  H
  C88      1.0000 0.26330  0.86220  0.47670  Biso   1.000  C
  H79      1.0000 0.24290  0.78000  0.44490  Biso   1.000  H
  H80      1.0000 0.23950  0.95530  0.48690  Biso   1.000  H
  C89      1.0000 0.34460  0.02080  0.20370  Biso   1.000  C
  H81      1.0000 0.36530  0.09790  0.17380  Biso   1.000  H
  C90      1.0000 0.34480  0.02960  0.29230  Biso   1.000  C
  H82      1.0000 0.36480  0.11070  0.32050  Biso   1.000  H
  C91      1.0000 0.31460  0.91480  0.33950  Biso   1.000  C
  C92      1.0000 0.28650  0.79710  0.29230  Biso   1.000  C
  H83      1.0000 0.26630  0.71650  0.32040  Biso   1.000  H
  C93      1.0000 0.28890  0.80070  0.20300  Biso   1.000  C
  H84      1.0000 0.26960  0.72090  0.17270  Biso   1.000  H
  C94      1.0000 0.35240  0.98600  0.84170  Biso   1.000  C
  H85      1.0000 0.38280  0.02650  0.87190  Biso   1.000  H
  C95      1.0000 0.35410  0.99000  0.75270  Biso   1.000  C
  H86      1.0000 0.38520  0.03180  0.72500  Biso   1.000  H
  C96      1.0000 0.31000  0.93250  0.70360  Biso   1.000  C
  C97      1.0000 0.26450  0.87370  0.75230  Biso   1.000  C
  H87      1.0000 0.23300  0.83620  0.72400  Biso   1.000  H
  C98      1.0000 0.26650  0.87160  0.84030  Biso   1.000  C
  H88      1.0000 0.23630  0.82930  0.87020  Biso   1.000  H
  C99      1.0000 0.26870  0.83700  0.56650  Biso   1.000  C
  H89      1.0000 0.26770  0.73170  0.59460  Biso   1.000  H
  H90      1.0000 0.23210  0.88480  0.57170  Biso   1.000  H
  C100     1.0000 0.28000  0.81200  0.47700  Biso   1.000  C
  H91      1.0000 0.29400  0.70210  0.47160  Biso   1.000  H
  H92      1.0000 0.24450  0.81460  0.44770  Biso   1.000  H
  C101     1.0000 0.00000  0.00000  0.24840  Biso   1.000  C
  C102     1.0000 0.50000  0.50000  0.75160  Biso   1.000  C
