data_image0
_cell_length_a       13.9023
_cell_length_b       14.4405
_cell_length_c       18.2666
_cell_angle_alpha    107.079
_cell_angle_beta     111.592
_cell_angle_gamma    94.232

_symmetry_space_group_name_H-M    "P 1"
_symmetry_int_tables_number       1

loop_
  _symmetry_equiv_pos_as_xyz
  'x, y, z'

loop_
  _atom_site_label
  _atom_site_occupancy
  _atom_site_fract_x
  _atom_site_fract_y
  _atom_site_fract_z
  _atom_site_thermal_displace_type
  _atom_site_B_iso_or_equiv
  _atom_site_type_symbol
  Ag1      1.0000 0.22634  0.44372  0.10576  Biso   1.000  Ag
  Ag2      1.0000 0.34498  0.31955  0.00331  Biso   1.000  Ag
  Ag3      1.0000 0.69077  0.90576  0.13086  Biso   1.000  Ag
  Ag4      1.0000 0.78700  0.03912  0.32774  Biso   1.000  Ag
  Ag5      1.0000 0.72954  0.11909  0.47751  Biso   1.000  Ag
  Ag6      1.0000 0.68231  0.31862  0.57877  Biso   1.000  Ag
  Ag7      1.0000 0.19522  0.48311  0.27896  Biso   1.000  Ag
  O1       1.0000 0.12250  0.29810  0.06860  Biso   1.000  O
  O2       1.0000 0.13120  0.31350  0.19590  Biso   1.000  O
  O3       1.0000 0.69170  0.09440  0.58650  Biso   1.000  O
  O4       1.0000 0.65440  0.22840  0.65850  Biso   1.000  O
  O5       1.0000 0.45290  0.60033  0.40326  Biso   1.000  O
  O6       1.0000 0.36420  0.44610  0.32130  Biso   1.000  O
  N1       1.0000 0.39980  0.51600  0.16375  Biso   1.000  N
  N2       1.0000 0.44960  0.46810  0.11720  Biso   1.000  N
  N3       1.0000 0.34600  0.19760  0.05895  Biso   1.000  N
  N4       1.0000 0.34290  0.10700  0.00735  Biso   1.000  N
  N5       1.0000 0.85600  0.88900  0.20061  Biso   1.000  N
  N6       1.0000 0.90060  0.95330  0.28018  Biso   1.000  N
  N7       1.0000 0.14270  0.60120  0.21860  Biso   1.000  N
  N8       1.0000 0.14360  0.57570  0.14160  Biso   1.000  N
  N9       1.0000 0.69040  0.91472  0.34108  Biso   1.000  N
  N10      1.0000 0.68170  0.94280  0.41504  Biso   1.000  N
  N11      1.0000 0.58160  0.16080  0.39289  Biso   1.000  N
  N12      1.0000 0.54150  0.22220  0.44033  Biso   1.000  N
  N13      1.0000 0.80140  0.39070  0.54332  Biso   1.000  N
  N14      1.0000 0.87990  0.46470  0.60440  Biso   1.000  N
  C1       1.0000 0.44710  0.60330  0.22210  Biso   1.000  C
  H1       1.0000 0.41110  0.63500  0.25290  Biso   1.000  H
  C2       1.0000 0.54870  0.65090  0.24030  Biso   1.000  C
  C3       1.0000 0.59810  0.60320  0.19220  Biso   1.000  C
  H2       1.0000 0.66520  0.63130  0.20020  Biso   1.000  H
  C4       1.0000 0.54430  0.51120  0.13100  Biso   1.000  C
  H3       1.0000 0.57740  0.47840  0.09810  Biso   1.000  H
  C5       1.0000 0.37560  0.21290  0.13940  Biso   1.000  C
  H4       1.0000 0.37610  0.27490  0.17400  Biso   1.000  H
  C6       1.0000 0.40640  0.14140  0.17620  Biso   1.000  C
  C7       1.0000 0.40450  0.05040  0.12370  Biso   1.000  C
  H5       1.0000 0.42520  0.99980  0.14390  Biso   1.000  H
  C8       1.0000 0.37030  0.03750  0.03890  Biso   1.000  C
  H6       1.0000 0.36670  0.97560  0.00230  Biso   1.000  H
  C9       1.0000 0.90840  0.82390  0.17410  Biso   1.000  C
  H7       1.0000 0.87730  0.78160  0.11850  Biso   1.000  H
  C10      1.0000 0.00810  0.81520  0.22520  Biso   1.000  C
  C11      1.0000 0.05330  0.88180  0.30540  Biso   1.000  C
  H8       1.0000 0.12030  0.88130  0.34250  Biso   1.000  H
  C12      1.0000 0.99620  0.95000  0.32970  Biso   1.000  C
  H9       1.0000 0.02700  0.99600  0.38390  Biso   1.000  H
  C13      1.0000 0.10230  0.67850  0.24350  Biso   1.000  C
  H10      1.0000 0.10380  0.69700  0.29720  Biso   1.000  H
  C14      1.0000 0.05770  0.73380  0.19360  Biso   1.000  C
  C15      1.0000 0.05620  0.70570  0.11500  Biso   1.000  C
  H11      1.0000 0.02590  0.73870  0.07810  Biso   1.000  H
  C16      1.0000 0.10210  0.62570  0.09240  Biso   1.000  C
  H12      1.0000 0.10340  0.60660  0.03960  Biso   1.000  H
  C17      1.0000 0.65050  0.82200  0.28880  Biso   1.000  C
  H13      1.0000 0.65870  0.80360  0.23850  Biso   1.000  H
  C18      1.0000 0.59710  0.75080  0.30560  Biso   1.000  C
  C19      1.0000 0.58890  0.77940  0.38110  Biso   1.000  C
  H14      1.0000 0.55460  0.73550  0.39630  Biso   1.000  H
  C20      1.0000 0.63420  0.87750  0.43430  Biso   1.000  C
  H15      1.0000 0.63040  0.89760  0.48620  Biso   1.000  H
  C21      1.0000 0.53480  0.13360  0.31060  Biso   1.000  C
  H16      1.0000 0.56230  0.08960  0.27900  Biso   1.000  H
  C22      1.0000 0.44630  0.16700  0.26790  Biso   1.000  C
  C23      1.0000 0.40490  0.22750  0.31650  Biso   1.000  C
  H17      1.0000 0.34490  0.25120  0.29250  Biso   1.000  H
  C24      1.0000 0.45590  0.25220  0.40330  Biso   1.000  C
  H18      1.0000 0.42760  0.29210  0.43680  Biso   1.000  H
  C25      1.0000 0.80080  0.36060  0.46760  Biso   1.000  C
  H19      1.0000 0.74620  0.30960  0.42550  Biso   1.000  H
  C26      1.0000 0.87680  0.40090  0.44720  Biso   1.000  C
  H20      1.0000 0.87310  0.37680  0.39280  Biso   1.000  H
  C27      1.0000 0.95730  0.47620  0.50780  Biso   1.000  C
  C28      1.0000 0.95320  0.50480  0.58680  Biso   1.000  C
  H21      1.0000 0.00640  0.55600  0.63020  Biso   1.000  H
  C29      1.0000 0.10570  0.27110  0.12130  Biso   1.000  C
  C30      1.0000 0.04410  0.16260  0.08470  Biso   1.000  C
  C31      1.0000 0.66380  0.14200  0.63940  Biso   1.000  C
  C32      1.0000 0.64410  0.08320  0.69160  Biso   1.000  C
  C33      1.0000 0.44380  0.51180  0.36540  Biso   1.000  C
  C34      1.0000 0.54980  0.48110  0.37610  Biso   1.000  C
  F1       1.0000 0.99010  0.14660  0.12680  Biso   1.000  F
  F2       1.0000 0.11450  0.10300  0.09160  Biso   1.000  F
  F3       1.0000 0.97820  0.13440  0.00580  Biso   1.000  F
  F4       1.0000 0.05900  0.11350  0.01810  Biso   1.000  F
  F5       1.0000 0.06800  0.11670  0.13780  Biso   1.000  F
  F6       1.0000 0.94390  0.17030  0.06100  Biso   1.000  F
  F7       1.0000 0.62110  0.98750  0.65080  Biso   1.000  F
  F8       1.0000 0.56780  0.10050  0.71430  Biso   1.000  F
  F9       1.0000 0.73020  0.09550  0.75780  Biso   1.000  F
  F10      1.0000 0.62270  0.55130  0.38290  Biso   1.000  F
  F11      1.0000 0.54220  0.40260  0.31410  Biso   1.000  F
  F12      1.0000 0.58910  0.45830  0.44470  Biso   1.000  F
  Ag8      1.0000 0.77366  0.55628  0.89424  Biso   1.000  Ag
  Ag9      1.0000 0.65502  0.68044  0.99669  Biso   1.000  Ag
  Ag10     1.0000 0.30923  0.09424  0.86914  Biso   1.000  Ag
  Ag11     1.0000 0.21300  0.96088  0.67226  Biso   1.000  Ag
  Ag12     1.0000 0.27046  0.88091  0.52249  Biso   1.000  Ag
  Ag13     1.0000 0.31769  0.68138  0.42123  Biso   1.000  Ag
  Ag14     1.0000 0.80478  0.51689  0.72104  Biso   1.000  Ag
  O7       1.0000 0.87750  0.70190  0.93140  Biso   1.000  O
  O8       1.0000 0.86880  0.68650  0.80410  Biso   1.000  O
  O9       1.0000 0.30830  0.90560  0.41350  Biso   1.000  O
  O10      1.0000 0.34560  0.77160  0.34150  Biso   1.000  O
  O11      1.0000 0.54710  0.39967  0.59674  Biso   1.000  O
  O12      1.0000 0.63580  0.55390  0.67870  Biso   1.000  O
  N15      1.0000 0.60020  0.48400  0.83625  Biso   1.000  N
  N16      1.0000 0.55040  0.53190  0.88280  Biso   1.000  N
  N17      1.0000 0.65400  0.80240  0.94105  Biso   1.000  N
  N18      1.0000 0.65710  0.89300  0.99265  Biso   1.000  N
  N19      1.0000 0.14400  0.11100  0.79939  Biso   1.000  N
  N20      1.0000 0.09940  0.04670  0.71982  Biso   1.000  N
  N21      1.0000 0.85730  0.39880  0.78140  Biso   1.000  N
  N22      1.0000 0.85640  0.42430  0.85840  Biso   1.000  N
  N23      1.0000 0.30960  0.08528  0.65892  Biso   1.000  N
  N24      1.0000 0.31830  0.05720  0.58496  Biso   1.000  N
  N25      1.0000 0.41840  0.83920  0.60711  Biso   1.000  N
  N26      1.0000 0.45850  0.77780  0.55967  Biso   1.000  N
  N27      1.0000 0.19860  0.60930  0.45668  Biso   1.000  N
  N28      1.0000 0.12010  0.53530  0.39560  Biso   1.000  N
  C35      1.0000 0.55290  0.39670  0.77790  Biso   1.000  C
  H22      1.0000 0.58890  0.36500  0.74710  Biso   1.000  H
  C36      1.0000 0.45130  0.34910  0.75970  Biso   1.000  C
  C37      1.0000 0.40190  0.39680  0.80780  Biso   1.000  C
  H23      1.0000 0.33480  0.36870  0.79980  Biso   1.000  H
  C38      1.0000 0.45570  0.48880  0.86900  Biso   1.000  C
  H24      1.0000 0.42260  0.52160  0.90190  Biso   1.000  H
  C39      1.0000 0.62440  0.78710  0.86060  Biso   1.000  C
  H25      1.0000 0.62390  0.72510  0.82600  Biso   1.000  H
  C40      1.0000 0.59360  0.85860  0.82380  Biso   1.000  C
  C41      1.0000 0.59550  0.94960  0.87630  Biso   1.000  C
  H26      1.0000 0.57480  0.00020  0.85610  Biso   1.000  H
  C42      1.0000 0.62970  0.96250  0.96110  Biso   1.000  C
  H27      1.0000 0.63330  0.02440  0.99770  Biso   1.000  H
  C43      1.0000 0.09160  0.17610  0.82590  Biso   1.000  C
  H28      1.0000 0.12270  0.21840  0.88150  Biso   1.000  H
  C44      1.0000 0.99190  0.18480  0.77480  Biso   1.000  C
  C45      1.0000 0.94670  0.11820  0.69460  Biso   1.000  C
  H29      1.0000 0.87970  0.11870  0.65750  Biso   1.000  H
  C46      1.0000 0.00380  0.05000  0.67030  Biso   1.000  C
  H30      1.0000 0.97300  0.00400  0.61610  Biso   1.000  H
  C47      1.0000 0.89770  0.32150  0.75650  Biso   1.000  C
  H31      1.0000 0.89620  0.30300  0.70280  Biso   1.000  H
  C48      1.0000 0.94230  0.26620  0.80640  Biso   1.000  C
  C49      1.0000 0.94380  0.29430  0.88500  Biso   1.000  C
  H32      1.0000 0.97410  0.26130  0.92190  Biso   1.000  H
  C50      1.0000 0.89790  0.37430  0.90760  Biso   1.000  C
  H33      1.0000 0.89660  0.39340  0.96040  Biso   1.000  H
  C51      1.0000 0.34950  0.17800  0.71120  Biso   1.000  C
  H34      1.0000 0.34130  0.19640  0.76150  Biso   1.000  H
  C52      1.0000 0.40290  0.24920  0.69440  Biso   1.000  C
  C53      1.0000 0.41110  0.22060  0.61890  Biso   1.000  C
  H35      1.0000 0.44540  0.26450  0.60370  Biso   1.000  H
  C54      1.0000 0.36580  0.12250  0.56570  Biso   1.000  C
  H36      1.0000 0.36960  0.10240  0.51380  Biso   1.000  H
  C55      1.0000 0.46520  0.86640  0.68940  Biso   1.000  C
  H37      1.0000 0.43770  0.91040  0.72100  Biso   1.000  H
  C56      1.0000 0.55370  0.83300  0.73210  Biso   1.000  C
  C57      1.0000 0.59510  0.77250  0.68350  Biso   1.000  C
  H38      1.0000 0.65510  0.74880  0.70750  Biso   1.000  H
  C58      1.0000 0.54410  0.74780  0.59670  Biso   1.000  C
  H39      1.0000 0.57240  0.70790  0.56320  Biso   1.000  H
  C59      1.0000 0.19920  0.63940  0.53240  Biso   1.000  C
  H40      1.0000 0.25380  0.69040  0.57450  Biso   1.000  H
  C60      1.0000 0.12320  0.59910  0.55280  Biso   1.000  C
  H41      1.0000 0.12690  0.62320  0.60720  Biso   1.000  H
  C61      1.0000 0.04270  0.52380  0.49220  Biso   1.000  C
  C62      1.0000 0.04680  0.49520  0.41320  Biso   1.000  C
  H42      1.0000 0.99360  0.44400  0.36980  Biso   1.000  H
  C63      1.0000 0.89430  0.72890  0.87870  Biso   1.000  C
  C64      1.0000 0.95590  0.83740  0.91530  Biso   1.000  C
  C65      1.0000 0.33620  0.85800  0.36060  Biso   1.000  C
  C66      1.0000 0.35590  0.91680  0.30840  Biso   1.000  C
  C67      1.0000 0.55620  0.48820  0.63460  Biso   1.000  C
  C68      1.0000 0.45020  0.51890  0.62390  Biso   1.000  C
  F13      1.0000 0.00990  0.85340  0.87320  Biso   1.000  F
  F14      1.0000 0.88550  0.89700  0.90840  Biso   1.000  F
  F15      1.0000 0.02180  0.86560  0.99420  Biso   1.000  F
  F16      1.0000 0.94100  0.88650  0.98190  Biso   1.000  F
  F17      1.0000 0.93200  0.88330  0.86220  Biso   1.000  F
  F18      1.0000 0.05610  0.82970  0.93900  Biso   1.000  F
  F19      1.0000 0.37890  0.01250  0.34920  Biso   1.000  F
  F20      1.0000 0.43220  0.89950  0.28570  Biso   1.000  F
  F21      1.0000 0.26980  0.90450  0.24220  Biso   1.000  F
  F22      1.0000 0.37730  0.44870  0.61710  Biso   1.000  F
  F23      1.0000 0.45780  0.59740  0.68590  Biso   1.000  F
  F24      1.0000 0.41090  0.54170  0.55530  Biso   1.000  F
