data_image0
_cell_length_a       17.6018
_cell_length_b       17.6018
_cell_length_c       21.0633
_cell_angle_alpha    90
_cell_angle_beta     90
_cell_angle_gamma    120

_symmetry_space_group_name_H-M    "P 1"
_symmetry_int_tables_number       1

loop_
  _symmetry_equiv_pos_as_xyz
  'x, y, z'

loop_
  _atom_site_label
  _atom_site_occupancy
  _atom_site_fract_x
  _atom_site_fract_y
  _atom_site_fract_z
  _atom_site_thermal_displace_type
  _atom_site_B_iso_or_equiv
  _atom_site_type_symbol
  N1       1.0000 0.19790  0.43260  0.56030  Biso   1.000  N
  N2       1.0000 0.26030  0.42360  0.52840  Biso   1.000  N
  N3       1.0000 0.31170  0.49140  0.49360  Biso   1.000  N
  N4       1.0000 0.28650  0.54990  0.50310  Biso   1.000  N
  C1       1.0000 0.21880  0.51310  0.54480  Biso   1.000  C
  H1       1.0000 0.19040  0.54160  0.56070  Biso   1.000  H
  N5       1.0000 0.04670  0.22870  0.38740  Biso   1.000  N
  N6       1.0000 0.12210  0.22810  0.38710  Biso   1.000  N
  N7       1.0000 0.11780  0.16140  0.35650  Biso   1.000  N
  N8       1.0000 0.03670  0.11530  0.33600  Biso   1.000  N
  C2       1.0000 0.99530  0.15740  0.35660  Biso   1.000  C
  H2       1.0000 0.93610  0.13750  0.34940  Biso   1.000  H
  N9       1.0000 0.43670  0.23250  0.99090  Biso   1.000  N
  N10      1.0000 0.42460  0.16460  0.02590  Biso   1.000  N
  N11      1.0000 0.48960  0.18130  0.06300  Biso   1.000  N
  N12      1.0000 0.54970  0.26340  0.05110  Biso   1.000  N
  C3       1.0000 0.51600  0.29300  0.00780  Biso   1.000  C
  H3       1.0000 0.54500  0.34970  0.99150  Biso   1.000  H
  N13      1.0000 0.22050  0.18620  0.16260  Biso   1.000  N
  N14      1.0000 0.23030  0.11830  0.16690  Biso   1.000  N
  N15      1.0000 0.16870  0.05190  0.19960  Biso   1.000  N
  N16      1.0000 0.11590  0.07910  0.21850  Biso   1.000  N
  C4       1.0000 0.14920  0.16180  0.19670  Biso   1.000  C
  H4       1.0000 0.12480  0.19720  0.20480  Biso   1.000  H
  C5       1.0000 0.26540  0.34320  0.53030  Biso   1.000  C
  H5       1.0000 0.26320  0.32470  0.57400  Biso   1.000  H
  H6       1.0000 0.32040  0.35390  0.51190  Biso   1.000  H
  C6       1.0000 0.18810  0.27100  0.49280  Biso   1.000  C
  H7       1.0000 0.13360  0.26630  0.50740  Biso   1.000  H
  H8       1.0000 0.18490  0.21510  0.50000  Biso   1.000  H
  C7       1.0000 0.20010  0.29290  0.42110  Biso   1.000  C
  H9       1.0000 0.20870  0.35110  0.41420  Biso   1.000  H
  H10      1.0000 0.25140  0.29190  0.40550  Biso   1.000  H
  H11      1.0000 0.54510  0.96250  0.21490  Biso   1.000  H
  H12      1.0000 0.64730  0.01870  0.22380  Biso   1.000  H
  C8       1.0000 0.61200  0.98600  0.13030  Biso   1.000  C
  H13      1.0000 0.66270  0.03590  0.11160  Biso   1.000  H
  H14      1.0000 0.62390  0.93800  0.13260  Biso   1.000  H
  H15      1.0000 0.50710  0.98850  0.11070  Biso   1.000  H
  H16      1.0000 0.56340  0.99880  0.05260  Biso   1.000  H
  C9       1.0000 0.34260  0.07950  0.02670  Biso   1.000  C
  H17      1.0000 0.35250  0.03560  0.04670  Biso   1.000  H
  H18      1.0000 0.32250  0.06080  0.98360  Biso   1.000  H
  C10      1.0000 0.27440  0.08910  0.06310  Biso   1.000  C
  H19      1.0000 0.26680  0.13470  0.04340  Biso   1.000  H
  H20      1.0000 0.21890  0.03460  0.06020  Biso   1.000  H
  C11      1.0000 0.29660  0.11130  0.13150  Biso   1.000  C
  H21      1.0000 0.30570  0.06650  0.15090  Biso   1.000  H
  H22      1.0000 0.35130  0.16660  0.13440  Biso   1.000  H
  H23      1.0000 0.35180  0.03640  0.00470  Biso   1.000  H
  H24      1.0000 0.29760  0.08500  0.00410  Biso   1.000  H
  C12      1.0000 0.31100  0.04740  0.09370  Biso   1.000  C
  H25      1.0000 0.25630  0.99190  0.09160  Biso   1.000  H
  H26      1.0000 0.35380  0.03740  0.11520  Biso   1.000  H
  H27      1.0000 0.34370  0.13160  0.16230  Biso   1.000  H
  H28      1.0000 0.31560  0.15950  0.10170  Biso   1.000  H
  N17      1.0000 0.86457  0.76593  0.89363  Biso   1.000  N
  N18      1.0000 0.92697  0.75693  0.86173  Biso   1.000  N
  N19      1.0000 0.97837  0.82473  0.82693  Biso   1.000  N
  N20      1.0000 0.95317  0.88323  0.83643  Biso   1.000  N
  C13      1.0000 0.88547  0.84643  0.87813  Biso   1.000  C
  H29      1.0000 0.85707  0.87493  0.89403  Biso   1.000  H
  N21      1.0000 0.71337  0.56203  0.72073  Biso   1.000  N
  N22      1.0000 0.78877  0.56143  0.72043  Biso   1.000  N
  N23      1.0000 0.78447  0.49473  0.68983  Biso   1.000  N
  N24      1.0000 0.70337  0.44863  0.66933  Biso   1.000  N
  C14      1.0000 0.66197  0.49073  0.68993  Biso   1.000  C
  H30      1.0000 0.60277  0.47083  0.68273  Biso   1.000  H
  N25      1.0000 0.10337  0.56583  0.32423  Biso   1.000  N
  N26      1.0000 0.09127  0.49793  0.35923  Biso   1.000  N
  N27      1.0000 0.15627  0.51463  0.39633  Biso   1.000  N
  N28      1.0000 0.21637  0.59673  0.38443  Biso   1.000  N
  C15      1.0000 0.18267  0.62633  0.34113  Biso   1.000  C
  H31      1.0000 0.21167  0.68303  0.32483  Biso   1.000  H
  N29      1.0000 0.88717  0.51953  0.49593  Biso   1.000  N
  N30      1.0000 0.89697  0.45163  0.50023  Biso   1.000  N
  N31      1.0000 0.83537  0.38523  0.53293  Biso   1.000  N
  N32      1.0000 0.78257  0.41243  0.55183  Biso   1.000  N
  C16      1.0000 0.81587  0.49513  0.53003  Biso   1.000  C
  H32      1.0000 0.79147  0.53053  0.53813  Biso   1.000  H
  C17      1.0000 0.93207  0.67653  0.86363  Biso   1.000  C
  H33      1.0000 0.92987  0.65803  0.90733  Biso   1.000  H
  H34      1.0000 0.98707  0.68723  0.84523  Biso   1.000  H
  C18      1.0000 0.85477  0.60433  0.82613  Biso   1.000  C
  H35      1.0000 0.80027  0.59963  0.84073  Biso   1.000  H
  H36      1.0000 0.85157  0.54843  0.83333  Biso   1.000  H
  C19      1.0000 0.86677  0.62623  0.75443  Biso   1.000  C
  H37      1.0000 0.87537  0.68443  0.74753  Biso   1.000  H
  H38      1.0000 0.91807  0.62523  0.73883  Biso   1.000  H
  H39      1.0000 0.21177  0.29583  0.54823  Biso   1.000  H
  H40      1.0000 0.31397  0.35203  0.55713  Biso   1.000  H
  C20      1.0000 0.27867  0.31933  0.46363  Biso   1.000  C
  H41      1.0000 0.32937  0.36923  0.44493  Biso   1.000  H
  H42      1.0000 0.29057  0.27133  0.46593  Biso   1.000  H
  H43      1.0000 0.17377  0.32183  0.44403  Biso   1.000  H
  H44      1.0000 0.23007  0.33213  0.38593  Biso   1.000  H
  C21      1.0000 0.00927  0.41283  0.36003  Biso   1.000  C
  H45      1.0000 0.01917  0.36893  0.38003  Biso   1.000  H
  H46      1.0000 0.98917  0.39413  0.31693  Biso   1.000  H
  C22      1.0000 0.94107  0.42243  0.39643  Biso   1.000  C
  H47      1.0000 0.93347  0.46803  0.37673  Biso   1.000  H
  H48      1.0000 0.88557  0.36793  0.39353  Biso   1.000  H
  C23      1.0000 0.96327  0.44463  0.46483  Biso   1.000  C
  H49      1.0000 0.97237  0.39983  0.48423  Biso   1.000  H
  H50      1.0000 0.01797  0.49993  0.46773  Biso   1.000  H
  H51      1.0000 0.01847  0.36973  0.33803  Biso   1.000  H
  H52      1.0000 0.96427  0.41833  0.33743  Biso   1.000  H
  C24      1.0000 0.97767  0.38073  0.42703  Biso   1.000  C
  H53      1.0000 0.92297  0.32523  0.42493  Biso   1.000  H
  H54      1.0000 0.02047  0.37073  0.44853  Biso   1.000  H
  H55      1.0000 0.01037  0.46493  0.49563  Biso   1.000  H
  H56      1.0000 0.98227  0.49283  0.43503  Biso   1.000  H
  N33      1.0000 0.53123  0.09927  0.22697  Biso   1.000  N
  N34      1.0000 0.59363  0.09027  0.19507  Biso   1.000  N
  N35      1.0000 0.64503  0.15807  0.16027  Biso   1.000  N
  N36      1.0000 0.61983  0.21657  0.16977  Biso   1.000  N
  C25      1.0000 0.55213  0.17977  0.21147  Biso   1.000  C
  H57      1.0000 0.52373  0.20827  0.22737  Biso   1.000  H
  N37      1.0000 0.38003  0.89537  0.05407  Biso   1.000  N
  N38      1.0000 0.45543  0.89477  0.05377  Biso   1.000  N
  N39      1.0000 0.45113  0.82807  0.02317  Biso   1.000  N
  N40      1.0000 0.37003  0.78197  0.00267  Biso   1.000  N
  C26      1.0000 0.32863  0.82407  0.02327  Biso   1.000  C
  H58      1.0000 0.26943  0.80417  0.01607  Biso   1.000  H
  N41      1.0000 0.77003  0.89917  0.65757  Biso   1.000  N
  N42      1.0000 0.75793  0.83127  0.69257  Biso   1.000  N
  N43      1.0000 0.82293  0.84797  0.72967  Biso   1.000  N
  N44      1.0000 0.88303  0.93007  0.71777  Biso   1.000  N
  C27      1.0000 0.84933  0.95967  0.67447  Biso   1.000  C
  H59      1.0000 0.87833  0.01637  0.65817  Biso   1.000  H
  N45      1.0000 0.55383  0.85287  0.82927  Biso   1.000  N
  N46      1.0000 0.56363  0.78497  0.83357  Biso   1.000  N
  N47      1.0000 0.50203  0.71857  0.86627  Biso   1.000  N
  N48      1.0000 0.44923  0.74577  0.88517  Biso   1.000  N
  C28      1.0000 0.48253  0.82847  0.86337  Biso   1.000  C
  H60      1.0000 0.45813  0.86387  0.87147  Biso   1.000  H
  C29      1.0000 0.59873  0.00987  0.19697  Biso   1.000  C
  H61      1.0000 0.59653  0.99137  0.24067  Biso   1.000  H
  H62      1.0000 0.65373  0.02057  0.17857  Biso   1.000  H
  C30      1.0000 0.52143  0.93767  0.15947  Biso   1.000  C
  H63      1.0000 0.46693  0.93297  0.17407  Biso   1.000  H
  H64      1.0000 0.51823  0.88177  0.16667  Biso   1.000  H
  C31      1.0000 0.53343  0.95957  0.08777  Biso   1.000  C
  H65      1.0000 0.54203  0.01777  0.08087  Biso   1.000  H
  H66      1.0000 0.58473  0.95857  0.07217  Biso   1.000  H
  H67      1.0000 0.87843  0.62917  0.88157  Biso   1.000  H
  H68      1.0000 0.98063  0.68537  0.89047  Biso   1.000  H
  C32      1.0000 0.94533  0.65267  0.79697  Biso   1.000  C
  H69      1.0000 0.99603  0.70257  0.77827  Biso   1.000  H
  H70      1.0000 0.95723  0.60467  0.79927  Biso   1.000  H
  H71      1.0000 0.84043  0.65517  0.77737  Biso   1.000  H
  H72      1.0000 0.89673  0.66547  0.71927  Biso   1.000  H
  C33      1.0000 0.67593  0.74617  0.69337  Biso   1.000  C
  H73      1.0000 0.68583  0.70227  0.71337  Biso   1.000  H
  H74      1.0000 0.65583  0.72747  0.65027  Biso   1.000  H
  C34      1.0000 0.60773  0.75577  0.72977  Biso   1.000  C
  H75      1.0000 0.60013  0.80137  0.71007  Biso   1.000  H
  H76      1.0000 0.55223  0.70127  0.72687  Biso   1.000  H
  C35      1.0000 0.62993  0.77797  0.79817  Biso   1.000  C
  H77      1.0000 0.63903  0.73317  0.81757  Biso   1.000  H
  H78      1.0000 0.68463  0.83327  0.80107  Biso   1.000  H
  H79      1.0000 0.68513  0.70307  0.67137  Biso   1.000  H
  H80      1.0000 0.63093  0.75167  0.67077  Biso   1.000  H
  C36      1.0000 0.64433  0.71407  0.76037  Biso   1.000  C
  H81      1.0000 0.58963  0.65857  0.75827  Biso   1.000  H
  H82      1.0000 0.68713  0.70407  0.78187  Biso   1.000  H
  H83      1.0000 0.67703  0.79827  0.82897  Biso   1.000  H
  H84      1.0000 0.64893  0.82617  0.76837  Biso   1.000  H
  N49      1.0000 0.56740  0.76530  0.56030  Biso   1.000  N
  N50      1.0000 0.57640  0.83670  0.52840  Biso   1.000  N
  N51      1.0000 0.50860  0.82030  0.49360  Biso   1.000  N
  N52      1.0000 0.45010  0.73660  0.50310  Biso   1.000  N
  C37      1.0000 0.48690  0.70570  0.54480  Biso   1.000  C
  H85      1.0000 0.45840  0.64880  0.56070  Biso   1.000  H
  N53      1.0000 0.77130  0.81800  0.38740  Biso   1.000  N
  N54      1.0000 0.77190  0.89400  0.38710  Biso   1.000  N
  N55      1.0000 0.83860  0.95640  0.35650  Biso   1.000  N
  N56      1.0000 0.88470  0.92140  0.33600  Biso   1.000  N
  C38      1.0000 0.84260  0.83790  0.35660  Biso   1.000  C
  H86      1.0000 0.86250  0.79860  0.34940  Biso   1.000  H
  N57      1.0000 0.76750  0.20420  0.99090  Biso   1.000  N
  N58      1.0000 0.83540  0.26000  0.02590  Biso   1.000  N
  N59      1.0000 0.81870  0.30830  0.06300  Biso   1.000  N
  N60      1.0000 0.73660  0.28630  0.05110  Biso   1.000  N
  C39      1.0000 0.70700  0.22300  0.00780  Biso   1.000  C
  H87      1.0000 0.65030  0.19530  0.99150  Biso   1.000  H
  N61      1.0000 0.81380  0.03430  0.16260  Biso   1.000  N
  N62      1.0000 0.88170  0.11200  0.16690  Biso   1.000  N
  N63      1.0000 0.94810  0.11680  0.19960  Biso   1.000  N
  N64      1.0000 0.92090  0.03680  0.21850  Biso   1.000  N
  C40      1.0000 0.83820  0.98740  0.19670  Biso   1.000  C
  H88      1.0000 0.80280  0.92760  0.20480  Biso   1.000  H
  C41      1.0000 0.65680  0.92220  0.53030  Biso   1.000  C
  H89      1.0000 0.67530  0.93850  0.57400  Biso   1.000  H
  H90      1.0000 0.64610  0.96650  0.51190  Biso   1.000  H
  C42      1.0000 0.72900  0.91710  0.49280  Biso   1.000  C
  H91      1.0000 0.73370  0.86730  0.50740  Biso   1.000  H
  H92      1.0000 0.78490  0.96980  0.50000  Biso   1.000  H
  C43      1.0000 0.70710  0.90720  0.42110  Biso   1.000  C
  H93      1.0000 0.64890  0.85760  0.41420  Biso   1.000  H
  H94      1.0000 0.70810  0.95950  0.40550  Biso   1.000  H
  H95      1.0000 0.03750  0.58260  0.21490  Biso   1.000  H
  H96      1.0000 0.98130  0.62860  0.22380  Biso   1.000  H
  C44      1.0000 0.01400  0.62600  0.13030  Biso   1.000  C
  H97      1.0000 0.96410  0.62680  0.11160  Biso   1.000  H
  H98      1.0000 0.06200  0.68590  0.13260  Biso   1.000  H
  H99      1.0000 0.01150  0.51860  0.11070  Biso   1.000  H
  H100     1.0000 0.00120  0.56460  0.05260  Biso   1.000  H
  C45      1.0000 0.92050  0.26310  0.02670  Biso   1.000  C
  H101     1.0000 0.96440  0.31690  0.04670  Biso   1.000  H
  H102     1.0000 0.93920  0.26170  0.98360  Biso   1.000  H
  C46      1.0000 0.91090  0.18530  0.06310  Biso   1.000  C
  H103     1.0000 0.86530  0.13210  0.04340  Biso   1.000  H
  H104     1.0000 0.96540  0.18430  0.06020  Biso   1.000  H
  C47      1.0000 0.88870  0.18530  0.13150  Biso   1.000  C
  H105     1.0000 0.93350  0.23920  0.15090  Biso   1.000  H
  H106     1.0000 0.83340  0.18470  0.13440  Biso   1.000  H
  H107     1.0000 0.96360  0.31540  0.00470  Biso   1.000  H
  H108     1.0000 0.91500  0.21260  0.00410  Biso   1.000  H
  C48      1.0000 0.95260  0.26360  0.09370  Biso   1.000  C
  H109     1.0000 0.00810  0.26440  0.09160  Biso   1.000  H
  H110     1.0000 0.96260  0.31640  0.11520  Biso   1.000  H
  H111     1.0000 0.86840  0.21210  0.16230  Biso   1.000  H
  H112     1.0000 0.84050  0.15610  0.10170  Biso   1.000  H
  N65      1.0000 0.23407  0.09863  0.89363  Biso   1.000  N
  N66      1.0000 0.24307  0.17003  0.86173  Biso   1.000  N
  N67      1.0000 0.17527  0.15363  0.82693  Biso   1.000  N
  N68      1.0000 0.11677  0.06993  0.83643  Biso   1.000  N
  C49      1.0000 0.15357  0.03903  0.87813  Biso   1.000  C
  H113     1.0000 0.12507  0.98213  0.89403  Biso   1.000  H
  N69      1.0000 0.43797  0.15133  0.72073  Biso   1.000  N
  N70      1.0000 0.43857  0.22733  0.72043  Biso   1.000  N
  N71      1.0000 0.50527  0.28973  0.68983  Biso   1.000  N
  N72      1.0000 0.55137  0.25473  0.66933  Biso   1.000  N
  C50      1.0000 0.50927  0.17123  0.68993  Biso   1.000  C
  H114     1.0000 0.52917  0.13193  0.68273  Biso   1.000  H
  N73      1.0000 0.43417  0.53753  0.32423  Biso   1.000  N
  N74      1.0000 0.50207  0.59333  0.35923  Biso   1.000  N
  N75      1.0000 0.48537  0.64163  0.39633  Biso   1.000  N
  N76      1.0000 0.40327  0.61963  0.38443  Biso   1.000  N
  C51      1.0000 0.37367  0.55633  0.34113  Biso   1.000  C
  H115     1.0000 0.31697  0.52863  0.32483  Biso   1.000  H
  N77      1.0000 0.48047  0.36763  0.49593  Biso   1.000  N
  N78      1.0000 0.54837  0.44533  0.50023  Biso   1.000  N
  N79      1.0000 0.61477  0.45013  0.53293  Biso   1.000  N
  N80      1.0000 0.58757  0.37013  0.55183  Biso   1.000  N
  C52      1.0000 0.50487  0.32073  0.53003  Biso   1.000  C
  H116     1.0000 0.46947  0.26093  0.53813  Biso   1.000  H
  C53      1.0000 0.32347  0.25553  0.86363  Biso   1.000  C
  H117     1.0000 0.34197  0.27183  0.90733  Biso   1.000  H
  H118     1.0000 0.31277  0.29983  0.84523  Biso   1.000  H
  C54      1.0000 0.39567  0.25043  0.82613  Biso   1.000  C
  H119     1.0000 0.40037  0.20063  0.84073  Biso   1.000  H
  H120     1.0000 0.45157  0.30313  0.83333  Biso   1.000  H
  C55      1.0000 0.37377  0.24053  0.75443  Biso   1.000  C
  H121     1.0000 0.31557  0.19093  0.74753  Biso   1.000  H
  H122     1.0000 0.37477  0.29283  0.73883  Biso   1.000  H
  H123     1.0000 0.70417  0.91593  0.54823  Biso   1.000  H
  H124     1.0000 0.64797  0.96193  0.55713  Biso   1.000  H
  C56      1.0000 0.68067  0.95933  0.46363  Biso   1.000  C
  H125     1.0000 0.63077  0.96013  0.44493  Biso   1.000  H
  H126     1.0000 0.72867  0.01923  0.46593  Biso   1.000  H
  H127     1.0000 0.67817  0.85193  0.44403  Biso   1.000  H
  H128     1.0000 0.66787  0.89793  0.38593  Biso   1.000  H
  C57      1.0000 0.58717  0.59643  0.36003  Biso   1.000  C
  H129     1.0000 0.63107  0.65023  0.38003  Biso   1.000  H
  H130     1.0000 0.60587  0.59503  0.31693  Biso   1.000  H
  C58      1.0000 0.57757  0.51863  0.39643  Biso   1.000  C
  H131     1.0000 0.53197  0.46543  0.37673  Biso   1.000  H
  H132     1.0000 0.63207  0.51763  0.39353  Biso   1.000  H
  C59      1.0000 0.55537  0.51863  0.46483  Biso   1.000  C
  H133     1.0000 0.60017  0.57253  0.48423  Biso   1.000  H
  H134     1.0000 0.50007  0.51803  0.46773  Biso   1.000  H
  H135     1.0000 0.63027  0.64873  0.33803  Biso   1.000  H
  H136     1.0000 0.58167  0.54593  0.33743  Biso   1.000  H
  C60      1.0000 0.61927  0.59693  0.42703  Biso   1.000  C
  H137     1.0000 0.67477  0.59773  0.42493  Biso   1.000  H
  H138     1.0000 0.62927  0.64973  0.44853  Biso   1.000  H
  H139     1.0000 0.53507  0.54543  0.49563  Biso   1.000  H
  H140     1.0000 0.50717  0.48943  0.43503  Biso   1.000  H
  N81      1.0000 0.90073  0.43197  0.22697  Biso   1.000  N
  N82      1.0000 0.90973  0.50337  0.19507  Biso   1.000  N
  N83      1.0000 0.84193  0.48697  0.16027  Biso   1.000  N
  N84      1.0000 0.78343  0.40327  0.16977  Biso   1.000  N
  C61      1.0000 0.82023  0.37237  0.21147  Biso   1.000  C
  H141     1.0000 0.79173  0.31547  0.22737  Biso   1.000  H
  N85      1.0000 0.10463  0.48467  0.05407  Biso   1.000  N
  N86      1.0000 0.10523  0.56067  0.05377  Biso   1.000  N
  N87      1.0000 0.17193  0.62307  0.02317  Biso   1.000  N
  N88      1.0000 0.21803  0.58807  0.00267  Biso   1.000  N
  C62      1.0000 0.17593  0.50457  0.02327  Biso   1.000  C
  H142     1.0000 0.19583  0.46527  0.01607  Biso   1.000  H
  N89      1.0000 0.10083  0.87087  0.65757  Biso   1.000  N
  N90      1.0000 0.16873  0.92667  0.69257  Biso   1.000  N
  N91      1.0000 0.15203  0.97497  0.72967  Biso   1.000  N
  N92      1.0000 0.06993  0.95297  0.71777  Biso   1.000  N
  C63      1.0000 0.04033  0.88967  0.67447  Biso   1.000  C
  H143     1.0000 0.98363  0.86197  0.65817  Biso   1.000  H
  N93      1.0000 0.14713  0.70097  0.82927  Biso   1.000  N
  N94      1.0000 0.21503  0.77867  0.83357  Biso   1.000  N
  N95      1.0000 0.28143  0.78347  0.86627  Biso   1.000  N
  N96      1.0000 0.25423  0.70347  0.88517  Biso   1.000  N
  C64      1.0000 0.17153  0.65407  0.86337  Biso   1.000  C
  H144     1.0000 0.13613  0.59427  0.87147  Biso   1.000  H
  C65      1.0000 0.99013  0.58887  0.19697  Biso   1.000  C
  H145     1.0000 0.00863  0.60517  0.24067  Biso   1.000  H
  H146     1.0000 0.97943  0.63317  0.17857  Biso   1.000  H
  C66      1.0000 0.06233  0.58377  0.15947  Biso   1.000  C
  H147     1.0000 0.06703  0.53397  0.17407  Biso   1.000  H
  H148     1.0000 0.11823  0.63647  0.16667  Biso   1.000  H
  C67      1.0000 0.04043  0.57387  0.08777  Biso   1.000  C
  H149     1.0000 0.98223  0.52427  0.08087  Biso   1.000  H
  H150     1.0000 0.04143  0.62617  0.07217  Biso   1.000  H
  H151     1.0000 0.37083  0.24927  0.88157  Biso   1.000  H
  H152     1.0000 0.31463  0.29527  0.89047  Biso   1.000  H
  C68      1.0000 0.34733  0.29267  0.79697  Biso   1.000  C
  H153     1.0000 0.29743  0.29347  0.77827  Biso   1.000  H
  H154     1.0000 0.39533  0.35257  0.79927  Biso   1.000  H
  H155     1.0000 0.34483  0.18527  0.77737  Biso   1.000  H
  H156     1.0000 0.33453  0.23127  0.71927  Biso   1.000  H
  C69      1.0000 0.25383  0.92977  0.69337  Biso   1.000  C
  H157     1.0000 0.29773  0.98357  0.71337  Biso   1.000  H
  H158     1.0000 0.27253  0.92837  0.65027  Biso   1.000  H
  C70      1.0000 0.24423  0.85197  0.72977  Biso   1.000  C
  H159     1.0000 0.19863  0.79877  0.71007  Biso   1.000  H
  H160     1.0000 0.29873  0.85097  0.72687  Biso   1.000  H
  C71      1.0000 0.22203  0.85197  0.79817  Biso   1.000  C
  H161     1.0000 0.26683  0.90587  0.81757  Biso   1.000  H
  H162     1.0000 0.16673  0.85137  0.80107  Biso   1.000  H
  H163     1.0000 0.29693  0.98207  0.67137  Biso   1.000  H
  H164     1.0000 0.24833  0.87927  0.67077  Biso   1.000  H
  C72      1.0000 0.28593  0.93027  0.76037  Biso   1.000  C
  H165     1.0000 0.34143  0.93107  0.75827  Biso   1.000  H
  H166     1.0000 0.29593  0.98307  0.78187  Biso   1.000  H
  H167     1.0000 0.20173  0.87877  0.82897  Biso   1.000  H
  H168     1.0000 0.17383  0.82277  0.76837  Biso   1.000  H
  N97      1.0000 0.23470  0.80210  0.56030  Biso   1.000  N
  N98      1.0000 0.16330  0.73970  0.52840  Biso   1.000  N
  N99      1.0000 0.17970  0.68830  0.49360  Biso   1.000  N
  N100     1.0000 0.26340  0.71350  0.50310  Biso   1.000  N
  C73      1.0000 0.29430  0.78120  0.54480  Biso   1.000  C
  H169     1.0000 0.35120  0.80960  0.56070  Biso   1.000  H
  N101     1.0000 0.18200  0.95330  0.38740  Biso   1.000  N
  N102     1.0000 0.10600  0.87790  0.38710  Biso   1.000  N
  N103     1.0000 0.04360  0.88220  0.35650  Biso   1.000  N
  N104     1.0000 0.07860  0.96330  0.33600  Biso   1.000  N
  C74      1.0000 0.16210  0.00470  0.35660  Biso   1.000  C
  H170     1.0000 0.20140  0.06390  0.34940  Biso   1.000  H
  N105     1.0000 0.79580  0.56330  0.99090  Biso   1.000  N
  N106     1.0000 0.74000  0.57540  0.02590  Biso   1.000  N
  N107     1.0000 0.69170  0.51040  0.06300  Biso   1.000  N
  N108     1.0000 0.71370  0.45030  0.05110  Biso   1.000  N
  C75      1.0000 0.77700  0.48400  0.00780  Biso   1.000  C
  H171     1.0000 0.80470  0.45500  0.99150  Biso   1.000  H
  N109     1.0000 0.96570  0.77950  0.16260  Biso   1.000  N
  N110     1.0000 0.88800  0.76970  0.16690  Biso   1.000  N
  N111     1.0000 0.88320  0.83130  0.19960  Biso   1.000  N
  N112     1.0000 0.96320  0.88410  0.21850  Biso   1.000  N
  C76      1.0000 0.01260  0.85080  0.19670  Biso   1.000  C
  H172     1.0000 0.07240  0.87520  0.20480  Biso   1.000  H
  C77      1.0000 0.07780  0.73460  0.53030  Biso   1.000  C
  H173     1.0000 0.06150  0.73680  0.57400  Biso   1.000  H
  H174     1.0000 0.03350  0.67960  0.51190  Biso   1.000  H
  C78      1.0000 0.08290  0.81190  0.49280  Biso   1.000  C
  H175     1.0000 0.13270  0.86640  0.50740  Biso   1.000  H
  H176     1.0000 0.03020  0.81510  0.50000  Biso   1.000  H
  C79      1.0000 0.09280  0.79990  0.42110  Biso   1.000  C
  H177     1.0000 0.14240  0.79130  0.41420  Biso   1.000  H
  H178     1.0000 0.04050  0.74860  0.40550  Biso   1.000  H
  H179     1.0000 0.41740  0.45490  0.21490  Biso   1.000  H
  H180     1.0000 0.37140  0.35270  0.22380  Biso   1.000  H
  C80      1.0000 0.37400  0.38800  0.13030  Biso   1.000  C
  H181     1.0000 0.37320  0.33730  0.11160  Biso   1.000  H
  H182     1.0000 0.31410  0.37610  0.13260  Biso   1.000  H
  H183     1.0000 0.48140  0.49290  0.11070  Biso   1.000  H
  H184     1.0000 0.43540  0.43660  0.05260  Biso   1.000  H
  C81      1.0000 0.73690  0.65740  0.02670  Biso   1.000  C
  H185     1.0000 0.68310  0.64750  0.04670  Biso   1.000  H
  H186     1.0000 0.73830  0.67750  0.98360  Biso   1.000  H
  C82      1.0000 0.81470  0.72560  0.06310  Biso   1.000  C
  H187     1.0000 0.86790  0.73320  0.04340  Biso   1.000  H
  H188     1.0000 0.81570  0.78110  0.06020  Biso   1.000  H
  C83      1.0000 0.81470  0.70340  0.13150  Biso   1.000  C
  H189     1.0000 0.76080  0.69430  0.15090  Biso   1.000  H
  H190     1.0000 0.81530  0.64870  0.13440  Biso   1.000  H
  H191     1.0000 0.68460  0.64820  0.00470  Biso   1.000  H
  H192     1.0000 0.78740  0.70240  0.00410  Biso   1.000  H
  C84      1.0000 0.73640  0.68900  0.09370  Biso   1.000  C
  H193     1.0000 0.73560  0.74370  0.09160  Biso   1.000  H
  H194     1.0000 0.68360  0.64620  0.11520  Biso   1.000  H
  H195     1.0000 0.78790  0.65630  0.16230  Biso   1.000  H
  H196     1.0000 0.84390  0.68440  0.10170  Biso   1.000  H
  N113     1.0000 0.90137  0.13543  0.89363  Biso   1.000  N
  N114     1.0000 0.82997  0.07303  0.86173  Biso   1.000  N
  N115     1.0000 0.84637  0.02163  0.82693  Biso   1.000  N
  N116     1.0000 0.93007  0.04683  0.83643  Biso   1.000  N
  C85      1.0000 0.96097  0.11453  0.87813  Biso   1.000  C
  H197     1.0000 0.01787  0.14293  0.89403  Biso   1.000  H
  N117     1.0000 0.84867  0.28663  0.72073  Biso   1.000  N
  N118     1.0000 0.77267  0.21123  0.72043  Biso   1.000  N
  N119     1.0000 0.71027  0.21553  0.68983  Biso   1.000  N
  N120     1.0000 0.74527  0.29663  0.66933  Biso   1.000  N
  C86      1.0000 0.82877  0.33803  0.68993  Biso   1.000  C
  H198     1.0000 0.86807  0.39723  0.68273  Biso   1.000  H
  N121     1.0000 0.46247  0.89663  0.32423  Biso   1.000  N
  N122     1.0000 0.40667  0.90873  0.35923  Biso   1.000  N
  N123     1.0000 0.35837  0.84373  0.39633  Biso   1.000  N
  N124     1.0000 0.38037  0.78363  0.38443  Biso   1.000  N
  C87      1.0000 0.44367  0.81733  0.34113  Biso   1.000  C
  H199     1.0000 0.47137  0.78833  0.32483  Biso   1.000  H
  N125     1.0000 0.63237  0.11283  0.49593  Biso   1.000  N
  N126     1.0000 0.55467  0.10303  0.50023  Biso   1.000  N
  N127     1.0000 0.54987  0.16463  0.53293  Biso   1.000  N
  N128     1.0000 0.62987  0.21743  0.55183  Biso   1.000  N
  C88      1.0000 0.67927  0.18413  0.53003  Biso   1.000  C
  H200     1.0000 0.73907  0.20853  0.53813  Biso   1.000  H
  C89      1.0000 0.74447  0.06793  0.86363  Biso   1.000  C
  H201     1.0000 0.72817  0.07013  0.90733  Biso   1.000  H
  H202     1.0000 0.70017  0.01293  0.84523  Biso   1.000  H
  C90      1.0000 0.74957  0.14523  0.82613  Biso   1.000  C
  H203     1.0000 0.79937  0.19973  0.84073  Biso   1.000  H
  H204     1.0000 0.69687  0.14843  0.83333  Biso   1.000  H
  C91      1.0000 0.75947  0.13323  0.75443  Biso   1.000  C
  H205     1.0000 0.80907  0.12463  0.74753  Biso   1.000  H
  H206     1.0000 0.70717  0.08193  0.73883  Biso   1.000  H
  H207     1.0000 0.08407  0.78823  0.54823  Biso   1.000  H
  H208     1.0000 0.03807  0.68603  0.55713  Biso   1.000  H
  C92      1.0000 0.04067  0.72133  0.46363  Biso   1.000  C
  H209     1.0000 0.03987  0.67063  0.44493  Biso   1.000  H
  H210     1.0000 0.98077  0.70943  0.46593  Biso   1.000  H
  H211     1.0000 0.14807  0.82623  0.44403  Biso   1.000  H
  H212     1.0000 0.10207  0.76993  0.38593  Biso   1.000  H
  C93      1.0000 0.40357  0.99073  0.36003  Biso   1.000  C
  H213     1.0000 0.34977  0.98083  0.38003  Biso   1.000  H
  H214     1.0000 0.40497  0.01083  0.31693  Biso   1.000  H
  C94      1.0000 0.48137  0.05893  0.39643  Biso   1.000  C
  H215     1.0000 0.53457  0.06653  0.37673  Biso   1.000  H
  H216     1.0000 0.48237  0.11443  0.39353  Biso   1.000  H
  C95      1.0000 0.48137  0.03673  0.46483  Biso   1.000  C
  H217     1.0000 0.42747  0.02763  0.48423  Biso   1.000  H
  H218     1.0000 0.48197  0.98203  0.46773  Biso   1.000  H
  H219     1.0000 0.35127  0.98153  0.33803  Biso   1.000  H
  H220     1.0000 0.45407  0.03573  0.33743  Biso   1.000  H
  C96      1.0000 0.40307  0.02233  0.42703  Biso   1.000  C
  H221     1.0000 0.40227  0.07703  0.42493  Biso   1.000  H
  H222     1.0000 0.35027  0.97953  0.44853  Biso   1.000  H
  H223     1.0000 0.45457  0.98963  0.49563  Biso   1.000  H
  H224     1.0000 0.51057  0.01773  0.43503  Biso   1.000  H
  N129     1.0000 0.56803  0.46877  0.22697  Biso   1.000  N
  N130     1.0000 0.49663  0.40637  0.19507  Biso   1.000  N
  N131     1.0000 0.51303  0.35497  0.16027  Biso   1.000  N
  N132     1.0000 0.59673  0.38017  0.16977  Biso   1.000  N
  C97      1.0000 0.62763  0.44787  0.21147  Biso   1.000  C
  H225     1.0000 0.68453  0.47627  0.22737  Biso   1.000  H
  N133     1.0000 0.51533  0.61997  0.05407  Biso   1.000  N
  N134     1.0000 0.43933  0.54457  0.05377  Biso   1.000  N
  N135     1.0000 0.37693  0.54887  0.02317  Biso   1.000  N
  N136     1.0000 0.41193  0.62997  0.00267  Biso   1.000  N
  C98      1.0000 0.49543  0.67137  0.02327  Biso   1.000  C
  H226     1.0000 0.53473  0.73057  0.01607  Biso   1.000  H
  N137     1.0000 0.12913  0.22997  0.65757  Biso   1.000  N
  N138     1.0000 0.07333  0.24207  0.69257  Biso   1.000  N
  N139     1.0000 0.02503  0.17707  0.72967  Biso   1.000  N
  N140     1.0000 0.04703  0.11697  0.71777  Biso   1.000  N
  C99      1.0000 0.11033  0.15067  0.67447  Biso   1.000  C
  H227     1.0000 0.13803  0.12167  0.65817  Biso   1.000  H
  N141     1.0000 0.29903  0.44617  0.82927  Biso   1.000  N
  N142     1.0000 0.22133  0.43637  0.83357  Biso   1.000  N
  N143     1.0000 0.21653  0.49797  0.86627  Biso   1.000  N
  N144     1.0000 0.29653  0.55077  0.88517  Biso   1.000  N
  C100     1.0000 0.34593  0.51747  0.86337  Biso   1.000  C
  H228     1.0000 0.40573  0.54187  0.87147  Biso   1.000  H
  C101     1.0000 0.41113  0.40127  0.19697  Biso   1.000  C
  H229     1.0000 0.39483  0.40347  0.24067  Biso   1.000  H
  H230     1.0000 0.36683  0.34627  0.17857  Biso   1.000  H
  C102     1.0000 0.41623  0.47857  0.15947  Biso   1.000  C
  H231     1.0000 0.46603  0.53307  0.17407  Biso   1.000  H
  H232     1.0000 0.36353  0.48177  0.16667  Biso   1.000  H
  C103     1.0000 0.42613  0.46657  0.08777  Biso   1.000  C
  H233     1.0000 0.47573  0.45797  0.08087  Biso   1.000  H
  H234     1.0000 0.37383  0.41527  0.07217  Biso   1.000  H
  H235     1.0000 0.75073  0.12157  0.88157  Biso   1.000  H
  H236     1.0000 0.70473  0.01937  0.89047  Biso   1.000  H
  C104     1.0000 0.70733  0.05467  0.79697  Biso   1.000  C
  H237     1.0000 0.70653  0.00397  0.77827  Biso   1.000  H
  H238     1.0000 0.64743  0.04277  0.79927  Biso   1.000  H
  H239     1.0000 0.81473  0.15957  0.77737  Biso   1.000  H
  H240     1.0000 0.76873  0.10327  0.71927  Biso   1.000  H
  C105     1.0000 0.07023  0.32407  0.69337  Biso   1.000  C
  H241     1.0000 0.01643  0.31417  0.71337  Biso   1.000  H
  H242     1.0000 0.07163  0.34417  0.65027  Biso   1.000  H
  C106     1.0000 0.14803  0.39227  0.72977  Biso   1.000  C
  H243     1.0000 0.20123  0.39987  0.71007  Biso   1.000  H
  H244     1.0000 0.14903  0.44777  0.72687  Biso   1.000  H
  C107     1.0000 0.14803  0.37007  0.79817  Biso   1.000  C
  H245     1.0000 0.09413  0.36097  0.81757  Biso   1.000  H
  H246     1.0000 0.14863  0.31537  0.80107  Biso   1.000  H
  H247     1.0000 0.01793  0.31487  0.67137  Biso   1.000  H
  H248     1.0000 0.12073  0.36907  0.67077  Biso   1.000  H
  C108     1.0000 0.06973  0.35567  0.76037  Biso   1.000  C
  H249     1.0000 0.06893  0.41037  0.75827  Biso   1.000  H
  H250     1.0000 0.01693  0.31287  0.78187  Biso   1.000  H
  H251     1.0000 0.12123  0.32297  0.82897  Biso   1.000  H
  H252     1.0000 0.17723  0.35107  0.76837  Biso   1.000  H
  Fe1      1.0000 0.00000  0.00000  0.27688  Biso   1.000  Fe
  Fe2      1.0000 0.66667  0.33333  0.61021  Biso   1.000  Fe
  Fe3      1.0000 0.33333  0.66667  0.94355  Biso   1.000  Fe
  Fe4      1.0000 0.33333  0.66667  0.44315  Biso   1.000  Fe
  Fe5      1.0000 0.00000  0.00000  0.77648  Biso   1.000  Fe
  Fe6      1.0000 0.66667  0.33333  0.10982  Biso   1.000  Fe
