data_image0
_cell_length_a       17.6017
_cell_length_b       17.6017
_cell_length_c       21.056
_cell_angle_alpha    90
_cell_angle_beta     90
_cell_angle_gamma    120

_symmetry_space_group_name_H-M    "P 1"
_symmetry_int_tables_number       1

loop_
  _symmetry_equiv_pos_as_xyz
  'x, y, z'

loop_
  _atom_site_label
  _atom_site_occupancy
  _atom_site_fract_x
  _atom_site_fract_y
  _atom_site_fract_z
  _atom_site_thermal_displace_type
  _atom_site_B_iso_or_equiv
  _atom_site_type_symbol
  N1       1.0000 0.19750  0.43230  0.55940  Biso   1.000  N
  N2       1.0000 0.25970  0.42330  0.52750  Biso   1.000  N
  N3       1.0000 0.31130  0.49100  0.49270  Biso   1.000  N
  N4       1.0000 0.28660  0.55040  0.50257  Biso   1.000  N
  C1       1.0000 0.21890  0.51330  0.54420  Biso   1.000  C
  H1       1.0000 0.19070  0.54190  0.56040  Biso   1.000  H
  N5       1.0000 0.04680  0.22830  0.38730  Biso   1.000  N
  N6       1.0000 0.12240  0.22860  0.38680  Biso   1.000  N
  N7       1.0000 0.11820  0.16200  0.35590  Biso   1.000  N
  N8       1.0000 0.03650  0.11520  0.33530  Biso   1.000  N
  C2       1.0000 0.99500  0.15700  0.35610  Biso   1.000  C
  H2       1.0000 0.93580  0.13720  0.34910  Biso   1.000  H
  N9       1.0000 0.43670  0.23330  0.99080  Biso   1.000  N
  N10      1.0000 0.42470  0.16530  0.02540  Biso   1.000  N
  N11      1.0000 0.48960  0.18150  0.06260  Biso   1.000  N
  N12      1.0000 0.54940  0.26320  0.05074  Biso   1.000  N
  C3       1.0000 0.51590  0.29310  0.00730  Biso   1.000  C
  H3       1.0000 0.54530  0.34960  0.99080  Biso   1.000  H
  N13      1.0000 0.22060  0.18570  0.16200  Biso   1.000  N
  N14      1.0000 0.23030  0.11780  0.16680  Biso   1.000  N
  N15      1.0000 0.16840  0.05140  0.19940  Biso   1.000  N
  N16      1.0000 0.11580  0.07860  0.21770  Biso   1.000  N
  C4       1.0000 0.15000  0.16190  0.19660  Biso   1.000  C
  H4       1.0000 0.12650  0.19780  0.20540  Biso   1.000  H
  C5       1.0000 0.26490  0.34290  0.53010  Biso   1.000  C
  H5       1.0000 0.26210  0.32460  0.57390  Biso   1.000  H
  H6       1.0000 0.32010  0.35350  0.51210  Biso   1.000  H
  C6       1.0000 0.18820  0.27120  0.49250  Biso   1.000  C
  H7       1.0000 0.13360  0.26600  0.50730  Biso   1.000  H
  H8       1.0000 0.18550  0.21540  0.49930  Biso   1.000  H
  C7       1.0000 0.19950  0.29330  0.42110  Biso   1.000  C
  H9       1.0000 0.20730  0.35130  0.41450  Biso   1.000  H
  H10      1.0000 0.25130  0.29330  0.40530  Biso   1.000  H
  H11      1.0000 0.54550  0.96360  0.21670  Biso   1.000  H
  H12      1.0000 0.64780  0.01990  0.22300  Biso   1.000  H
  C8       1.0000 0.60800  0.97900  0.13160  Biso   1.000  C
  H13      1.0000 0.66250  0.02430  0.11270  Biso   1.000  H
  H14      1.0000 0.61270  0.92670  0.13620  Biso   1.000  H
  H15      1.0000 0.50750  0.98990  0.11060  Biso   1.000  H
  H16      1.0000 0.56480  0.99950  0.05310  Biso   1.000  H
  C9       1.0000 0.34230  0.08010  0.02740  Biso   1.000  C
  H17      1.0000 0.35260  0.03670  0.04790  Biso   1.000  H
  H18      1.0000 0.32180  0.06030  0.98460  Biso   1.000  H
  C10      1.0000 0.27440  0.08990  0.06350  Biso   1.000  C
  H19      1.0000 0.26790  0.13640  0.04430  Biso   1.000  H
  H20      1.0000 0.21860  0.03590  0.05990  Biso   1.000  H
  C11      1.0000 0.29600  0.11040  0.13230  Biso   1.000  C
  H21      1.0000 0.30380  0.06460  0.15140  Biso   1.000  H
  H22      1.0000 0.35120  0.16510  0.13600  Biso   1.000  H
  H23      1.0000 0.35100  0.03690  0.00510  Biso   1.000  H
  H24      1.0000 0.29710  0.08570  0.00510  Biso   1.000  H
  C12      1.0000 0.31100  0.04730  0.09420  Biso   1.000  C
  H25      1.0000 0.25610  0.99170  0.09180  Biso   1.000  H
  H26      1.0000 0.35360  0.03720  0.11560  Biso   1.000  H
  H27      1.0000 0.34210  0.12930  0.16390  Biso   1.000  H
  H28      1.0000 0.31650  0.15950  0.10320  Biso   1.000  H
  N17      1.0000 0.86417  0.76563  0.89273  Biso   1.000  N
  N18      1.0000 0.92637  0.75663  0.86083  Biso   1.000  N
  N19      1.0000 0.97797  0.82433  0.82603  Biso   1.000  N
  N20      1.0000 0.95327  0.88373  0.83590  Biso   1.000  N
  C13      1.0000 0.88557  0.84663  0.87753  Biso   1.000  C
  H29      1.0000 0.85737  0.87523  0.89373  Biso   1.000  H
  N21      1.0000 0.71347  0.56163  0.72063  Biso   1.000  N
  N22      1.0000 0.78907  0.56193  0.72013  Biso   1.000  N
  N23      1.0000 0.78487  0.49533  0.68923  Biso   1.000  N
  N24      1.0000 0.70317  0.44853  0.66863  Biso   1.000  N
  C14      1.0000 0.66167  0.49033  0.68943  Biso   1.000  C
  H30      1.0000 0.60247  0.47053  0.68243  Biso   1.000  H
  N25      1.0000 0.10337  0.56663  0.32413  Biso   1.000  N
  N26      1.0000 0.09137  0.49863  0.35873  Biso   1.000  N
  N27      1.0000 0.15627  0.51483  0.39593  Biso   1.000  N
  N28      1.0000 0.21607  0.59653  0.38407  Biso   1.000  N
  C15      1.0000 0.18257  0.62643  0.34063  Biso   1.000  C
  H31      1.0000 0.21197  0.68293  0.32413  Biso   1.000  H
  N29      1.0000 0.88727  0.51903  0.49533  Biso   1.000  N
  N30      1.0000 0.89697  0.45113  0.50013  Biso   1.000  N
  N31      1.0000 0.83507  0.38473  0.53273  Biso   1.000  N
  N32      1.0000 0.78247  0.41193  0.55103  Biso   1.000  N
  C16      1.0000 0.81667  0.49523  0.52993  Biso   1.000  C
  H32      1.0000 0.79317  0.53113  0.53873  Biso   1.000  H
  C17      1.0000 0.93157  0.67623  0.86343  Biso   1.000  C
  H33      1.0000 0.92877  0.65793  0.90723  Biso   1.000  H
  H34      1.0000 0.98677  0.68683  0.84543  Biso   1.000  H
  C18      1.0000 0.85487  0.60453  0.82583  Biso   1.000  C
  H35      1.0000 0.80027  0.59933  0.84063  Biso   1.000  H
  H36      1.0000 0.85217  0.54873  0.83263  Biso   1.000  H
  C19      1.0000 0.86617  0.62663  0.75443  Biso   1.000  C
  H37      1.0000 0.87397  0.68463  0.74783  Biso   1.000  H
  H38      1.0000 0.91797  0.62663  0.73863  Biso   1.000  H
  H39      1.0000 0.21217  0.29693  0.55003  Biso   1.000  H
  H40      1.0000 0.31447  0.35323  0.55633  Biso   1.000  H
  C20      1.0000 0.27467  0.31233  0.46493  Biso   1.000  C
  H41      1.0000 0.32917  0.35763  0.44603  Biso   1.000  H
  H42      1.0000 0.27937  0.26003  0.46953  Biso   1.000  H
  H43      1.0000 0.17417  0.32323  0.44393  Biso   1.000  H
  H44      1.0000 0.23147  0.33283  0.38643  Biso   1.000  H
  C21      1.0000 0.00897  0.41343  0.36073  Biso   1.000  C
  H45      1.0000 0.01927  0.37003  0.38123  Biso   1.000  H
  H46      1.0000 0.98847  0.39363  0.31793  Biso   1.000  H
  C22      1.0000 0.94107  0.42323  0.39683  Biso   1.000  C
  H47      1.0000 0.93457  0.46973  0.37763  Biso   1.000  H
  H48      1.0000 0.88527  0.36923  0.39323  Biso   1.000  H
  C23      1.0000 0.96267  0.44373  0.46563  Biso   1.000  C
  H49      1.0000 0.97047  0.39793  0.48473  Biso   1.000  H
  H50      1.0000 0.01787  0.49843  0.46933  Biso   1.000  H
  H51      1.0000 0.01767  0.37023  0.33843  Biso   1.000  H
  H52      1.0000 0.96377  0.41903  0.33843  Biso   1.000  H
  C24      1.0000 0.97767  0.38063  0.42753  Biso   1.000  C
  H53      1.0000 0.92277  0.32503  0.42513  Biso   1.000  H
  H54      1.0000 0.02027  0.37053  0.44893  Biso   1.000  H
  H55      1.0000 0.00877  0.46263  0.49723  Biso   1.000  H
  H56      1.0000 0.98317  0.49283  0.43653  Biso   1.000  H
  N33      1.0000 0.53083  0.09897  0.22607  Biso   1.000  N
  N34      1.0000 0.59303  0.08997  0.19417  Biso   1.000  N
  N35      1.0000 0.64463  0.15767  0.15937  Biso   1.000  N
  N36      1.0000 0.61993  0.21707  0.16924  Biso   1.000  N
  C25      1.0000 0.55223  0.17997  0.21087  Biso   1.000  C
  H57      1.0000 0.52403  0.20857  0.22707  Biso   1.000  H
  N37      1.0000 0.38013  0.89497  0.05397  Biso   1.000  N
  N38      1.0000 0.45573  0.89527  0.05347  Biso   1.000  N
  N39      1.0000 0.45153  0.82867  0.02257  Biso   1.000  N
  N40      1.0000 0.36983  0.78187  0.00197  Biso   1.000  N
  C26      1.0000 0.32833  0.82367  0.02277  Biso   1.000  C
  H58      1.0000 0.26913  0.80387  0.01577  Biso   1.000  H
  N41      1.0000 0.77003  0.89997  0.65747  Biso   1.000  N
  N42      1.0000 0.75803  0.83197  0.69207  Biso   1.000  N
  N43      1.0000 0.82293  0.84817  0.72927  Biso   1.000  N
  N44      1.0000 0.88273  0.92987  0.71741  Biso   1.000  N
  C27      1.0000 0.84923  0.95977  0.67397  Biso   1.000  C
  H59      1.0000 0.87863  0.01627  0.65747  Biso   1.000  H
  N45      1.0000 0.55393  0.85237  0.82867  Biso   1.000  N
  N46      1.0000 0.56363  0.78447  0.83347  Biso   1.000  N
  N47      1.0000 0.50173  0.71807  0.86607  Biso   1.000  N
  N48      1.0000 0.44913  0.74527  0.88437  Biso   1.000  N
  C28      1.0000 0.48333  0.82857  0.86327  Biso   1.000  C
  H60      1.0000 0.45983  0.86447  0.87207  Biso   1.000  H
  C29      1.0000 0.59823  0.00957  0.19677  Biso   1.000  C
  H61      1.0000 0.59543  0.99127  0.24057  Biso   1.000  H
  H62      1.0000 0.65343  0.02017  0.17877  Biso   1.000  H
  C30      1.0000 0.52153  0.93787  0.15917  Biso   1.000  C
  H63      1.0000 0.46693  0.93267  0.17397  Biso   1.000  H
  H64      1.0000 0.51883  0.88207  0.16597  Biso   1.000  H
  C31      1.0000 0.53283  0.95997  0.08777  Biso   1.000  C
  H65      1.0000 0.54063  0.01797  0.08117  Biso   1.000  H
  H66      1.0000 0.58463  0.95997  0.07197  Biso   1.000  H
  H67      1.0000 0.87883  0.63027  0.88337  Biso   1.000  H
  H68      1.0000 0.98113  0.68657  0.88967  Biso   1.000  H
  C32      1.0000 0.94133  0.64567  0.79827  Biso   1.000  C
  H69      1.0000 0.99583  0.69097  0.77937  Biso   1.000  H
  H70      1.0000 0.94603  0.59337  0.80287  Biso   1.000  H
  H71      1.0000 0.84083  0.65657  0.77727  Biso   1.000  H
  H72      1.0000 0.89813  0.66617  0.71977  Biso   1.000  H
  C33      1.0000 0.67563  0.74677  0.69407  Biso   1.000  C
  H73      1.0000 0.68593  0.70337  0.71457  Biso   1.000  H
  H74      1.0000 0.65513  0.72697  0.65127  Biso   1.000  H
  C34      1.0000 0.60773  0.75657  0.73017  Biso   1.000  C
  H75      1.0000 0.60123  0.80307  0.71097  Biso   1.000  H
  H76      1.0000 0.55193  0.70257  0.72657  Biso   1.000  H
  C35      1.0000 0.62933  0.77707  0.79897  Biso   1.000  C
  H77      1.0000 0.63713  0.73127  0.81807  Biso   1.000  H
  H78      1.0000 0.68453  0.83177  0.80267  Biso   1.000  H
  H79      1.0000 0.68433  0.70357  0.67177  Biso   1.000  H
  H80      1.0000 0.63043  0.75237  0.67177  Biso   1.000  H
  C36      1.0000 0.64433  0.71397  0.76087  Biso   1.000  C
  H81      1.0000 0.58943  0.65837  0.75847  Biso   1.000  H
  H82      1.0000 0.68693  0.70387  0.78227  Biso   1.000  H
  H83      1.0000 0.67543  0.79597  0.83057  Biso   1.000  H
  H84      1.0000 0.64983  0.82617  0.76987  Biso   1.000  H
  N49      1.0000 0.56770  0.76520  0.55940  Biso   1.000  N
  N50      1.0000 0.57670  0.83640  0.52750  Biso   1.000  N
  N51      1.0000 0.50900  0.82030  0.49270  Biso   1.000  N
  N52      1.0000 0.44960  0.73620  0.50257  Biso   1.000  N
  C37      1.0000 0.48670  0.70560  0.54420  Biso   1.000  C
  H85      1.0000 0.45810  0.64880  0.56040  Biso   1.000  H
  N53      1.0000 0.77170  0.81850  0.38730  Biso   1.000  N
  N54      1.0000 0.77140  0.89380  0.38680  Biso   1.000  N
  N55      1.0000 0.83800  0.95620  0.35590  Biso   1.000  N
  N56      1.0000 0.88480  0.92130  0.33530  Biso   1.000  N
  C38      1.0000 0.84300  0.83800  0.35610  Biso   1.000  C
  H86      1.0000 0.86280  0.79860  0.34910  Biso   1.000  H
  N57      1.0000 0.76670  0.20340  0.99080  Biso   1.000  N
  N58      1.0000 0.83470  0.25940  0.02540  Biso   1.000  N
  N59      1.0000 0.81850  0.30810  0.06260  Biso   1.000  N
  N60      1.0000 0.73680  0.28620  0.05074  Biso   1.000  N
  C39      1.0000 0.70690  0.22280  0.00730  Biso   1.000  C
  H87      1.0000 0.65040  0.19570  0.99080  Biso   1.000  H
  N61      1.0000 0.81430  0.03490  0.16200  Biso   1.000  N
  N62      1.0000 0.88220  0.11250  0.16680  Biso   1.000  N
  N63      1.0000 0.94860  0.11700  0.19940  Biso   1.000  N
  N64      1.0000 0.92140  0.03720  0.21770  Biso   1.000  N
  C40      1.0000 0.83810  0.98810  0.19660  Biso   1.000  C
  H88      1.0000 0.80220  0.92870  0.20540  Biso   1.000  H
  C41      1.0000 0.65710  0.92200  0.53010  Biso   1.000  C
  H89      1.0000 0.67540  0.93750  0.57390  Biso   1.000  H
  H90      1.0000 0.64650  0.96660  0.51210  Biso   1.000  H
  C42      1.0000 0.72880  0.91700  0.49250  Biso   1.000  C
  H91      1.0000 0.73400  0.86760  0.50730  Biso   1.000  H
  H92      1.0000 0.78460  0.97010  0.49930  Biso   1.000  H
  C43      1.0000 0.70670  0.90620  0.42110  Biso   1.000  C
  H93      1.0000 0.64870  0.85600  0.41450  Biso   1.000  H
  H94      1.0000 0.70670  0.95800  0.40530  Biso   1.000  H
  H95      1.0000 0.03640  0.58190  0.21670  Biso   1.000  H
  H96      1.0000 0.98010  0.62790  0.22300  Biso   1.000  H
  C44      1.0000 0.02100  0.62900  0.13160  Biso   1.000  C
  H97      1.0000 0.97570  0.63820  0.11270  Biso   1.000  H
  H98      1.0000 0.07330  0.68600  0.13620  Biso   1.000  H
  H99      1.0000 0.01010  0.51760  0.11060  Biso   1.000  H
  H100     1.0000 0.00050  0.56530  0.05310  Biso   1.000  H
  C45      1.0000 0.91990  0.26220  0.02740  Biso   1.000  C
  H101     1.0000 0.96330  0.31590  0.04790  Biso   1.000  H
  H102     1.0000 0.93970  0.26150  0.98460  Biso   1.000  H
  C46      1.0000 0.91010  0.18450  0.06350  Biso   1.000  C
  H103     1.0000 0.86360  0.13150  0.04430  Biso   1.000  H
  H104     1.0000 0.96410  0.18270  0.05990  Biso   1.000  H
  C47      1.0000 0.88960  0.18560  0.13230  Biso   1.000  C
  H105     1.0000 0.93540  0.23920  0.15140  Biso   1.000  H
  H106     1.0000 0.83490  0.18610  0.13600  Biso   1.000  H
  H107     1.0000 0.96310  0.31410  0.00510  Biso   1.000  H
  H108     1.0000 0.91430  0.21140  0.00510  Biso   1.000  H
  C48      1.0000 0.95270  0.26370  0.09420  Biso   1.000  C
  H109     1.0000 0.00830  0.26440  0.09180  Biso   1.000  H
  H110     1.0000 0.96280  0.31640  0.11560  Biso   1.000  H
  H111     1.0000 0.87070  0.21280  0.16390  Biso   1.000  H
  H112     1.0000 0.84050  0.15700  0.10320  Biso   1.000  H
  N65      1.0000 0.23437  0.09853  0.89273  Biso   1.000  N
  N66      1.0000 0.24337  0.16973  0.86083  Biso   1.000  N
  N67      1.0000 0.17567  0.15363  0.82603  Biso   1.000  N
  N68      1.0000 0.11627  0.06953  0.83590  Biso   1.000  N
  C49      1.0000 0.15337  0.03893  0.87753  Biso   1.000  C
  H113     1.0000 0.12477  0.98213  0.89373  Biso   1.000  H
  N69      1.0000 0.43837  0.15183  0.72063  Biso   1.000  N
  N70      1.0000 0.43807  0.22713  0.72013  Biso   1.000  N
  N71      1.0000 0.50467  0.28953  0.68923  Biso   1.000  N
  N72      1.0000 0.55147  0.25463  0.66863  Biso   1.000  N
  C50      1.0000 0.50967  0.17133  0.68943  Biso   1.000  C
  H114     1.0000 0.52947  0.13193  0.68243  Biso   1.000  H
  N73      1.0000 0.43337  0.53673  0.32413  Biso   1.000  N
  N74      1.0000 0.50137  0.59273  0.35873  Biso   1.000  N
  N75      1.0000 0.48517  0.64143  0.39593  Biso   1.000  N
  N76      1.0000 0.40347  0.61953  0.38407  Biso   1.000  N
  C51      1.0000 0.37357  0.55613  0.34063  Biso   1.000  C
  H115     1.0000 0.31707  0.52903  0.32413  Biso   1.000  H
  N77      1.0000 0.48097  0.36823  0.49533  Biso   1.000  N
  N78      1.0000 0.54887  0.44583  0.50013  Biso   1.000  N
  N79      1.0000 0.61527  0.45033  0.53273  Biso   1.000  N
  N80      1.0000 0.58807  0.37053  0.55103  Biso   1.000  N
  C52      1.0000 0.50477  0.32143  0.52993  Biso   1.000  C
  H116     1.0000 0.46887  0.26203  0.53873  Biso   1.000  H
  C53      1.0000 0.32377  0.25533  0.86343  Biso   1.000  C
  H117     1.0000 0.34207  0.27083  0.90723  Biso   1.000  H
  H118     1.0000 0.31317  0.29993  0.84543  Biso   1.000  H
  C54      1.0000 0.39547  0.25033  0.82583  Biso   1.000  C
  H119     1.0000 0.40067  0.20093  0.84063  Biso   1.000  H
  H120     1.0000 0.45127  0.30343  0.83263  Biso   1.000  H
  C55      1.0000 0.37337  0.23953  0.75443  Biso   1.000  C
  H121     1.0000 0.31537  0.18933  0.74783  Biso   1.000  H
  H122     1.0000 0.37337  0.29133  0.73863  Biso   1.000  H
  H123     1.0000 0.70307  0.91523  0.55003  Biso   1.000  H
  H124     1.0000 0.64677  0.96123  0.55633  Biso   1.000  H
  C56      1.0000 0.68767  0.96233  0.46493  Biso   1.000  C
  H125     1.0000 0.64237  0.97153  0.44603  Biso   1.000  H
  H126     1.0000 0.73997  0.01933  0.46953  Biso   1.000  H
  H127     1.0000 0.67677  0.85093  0.44393  Biso   1.000  H
  H128     1.0000 0.66717  0.89863  0.38643  Biso   1.000  H
  C57      1.0000 0.58657  0.59553  0.36073  Biso   1.000  C
  H129     1.0000 0.62997  0.64923  0.38123  Biso   1.000  H
  H130     1.0000 0.60637  0.59483  0.31793  Biso   1.000  H
  C58      1.0000 0.57677  0.51783  0.39683  Biso   1.000  C
  H131     1.0000 0.53027  0.46483  0.37763  Biso   1.000  H
  H132     1.0000 0.63077  0.51603  0.39323  Biso   1.000  H
  C59      1.0000 0.55627  0.51893  0.46563  Biso   1.000  C
  H133     1.0000 0.60207  0.57253  0.48473  Biso   1.000  H
  H134     1.0000 0.50157  0.51943  0.46933  Biso   1.000  H
  H135     1.0000 0.62977  0.64743  0.33843  Biso   1.000  H
  H136     1.0000 0.58097  0.54473  0.33843  Biso   1.000  H
  C60      1.0000 0.61937  0.59703  0.42753  Biso   1.000  C
  H137     1.0000 0.67497  0.59773  0.42513  Biso   1.000  H
  H138     1.0000 0.62947  0.64973  0.44893  Biso   1.000  H
  H139     1.0000 0.53737  0.54613  0.49723  Biso   1.000  H
  H140     1.0000 0.50717  0.49033  0.43653  Biso   1.000  H
  N81      1.0000 0.90103  0.43187  0.22607  Biso   1.000  N
  N82      1.0000 0.91003  0.50307  0.19417  Biso   1.000  N
  N83      1.0000 0.84233  0.48697  0.15937  Biso   1.000  N
  N84      1.0000 0.78293  0.40287  0.16924  Biso   1.000  N
  C61      1.0000 0.82003  0.37227  0.21087  Biso   1.000  C
  H141     1.0000 0.79143  0.31547  0.22707  Biso   1.000  H
  N85      1.0000 0.10503  0.48517  0.05397  Biso   1.000  N
  N86      1.0000 0.10473  0.56047  0.05347  Biso   1.000  N
  N87      1.0000 0.17133  0.62287  0.02257  Biso   1.000  N
  N88      1.0000 0.21813  0.58797  0.00197  Biso   1.000  N
  C62      1.0000 0.17633  0.50467  0.02277  Biso   1.000  C
  H142     1.0000 0.19613  0.46527  0.01577  Biso   1.000  H
  N89      1.0000 0.10003  0.87007  0.65747  Biso   1.000  N
  N90      1.0000 0.16803  0.92607  0.69207  Biso   1.000  N
  N91      1.0000 0.15183  0.97477  0.72927  Biso   1.000  N
  N92      1.0000 0.07013  0.95287  0.71741  Biso   1.000  N
  C63      1.0000 0.04023  0.88947  0.67397  Biso   1.000  C
  H143     1.0000 0.98373  0.86237  0.65747  Biso   1.000  H
  N93      1.0000 0.14763  0.70157  0.82867  Biso   1.000  N
  N94      1.0000 0.21553  0.77917  0.83347  Biso   1.000  N
  N95      1.0000 0.28193  0.78367  0.86607  Biso   1.000  N
  N96      1.0000 0.25473  0.70387  0.88437  Biso   1.000  N
  C64      1.0000 0.17143  0.65477  0.86327  Biso   1.000  C
  H144     1.0000 0.13553  0.59537  0.87207  Biso   1.000  H
  C65      1.0000 0.99043  0.58867  0.19677  Biso   1.000  C
  H145     1.0000 0.00873  0.60417  0.24057  Biso   1.000  H
  H146     1.0000 0.97983  0.63327  0.17877  Biso   1.000  H
  C66      1.0000 0.06213  0.58367  0.15917  Biso   1.000  C
  H147     1.0000 0.06733  0.53427  0.17397  Biso   1.000  H
  H148     1.0000 0.11793  0.63677  0.16597  Biso   1.000  H
  C67      1.0000 0.04003  0.57287  0.08777  Biso   1.000  C
  H149     1.0000 0.98203  0.52267  0.08117  Biso   1.000  H
  H150     1.0000 0.04003  0.62467  0.07197  Biso   1.000  H
  H151     1.0000 0.36973  0.24857  0.88337  Biso   1.000  H
  H152     1.0000 0.31343  0.29457  0.88967  Biso   1.000  H
  C68      1.0000 0.35433  0.29567  0.79827  Biso   1.000  C
  H153     1.0000 0.30903  0.30487  0.77937  Biso   1.000  H
  H154     1.0000 0.40663  0.35267  0.80287  Biso   1.000  H
  H155     1.0000 0.34343  0.18427  0.77727  Biso   1.000  H
  H156     1.0000 0.33383  0.23197  0.71977  Biso   1.000  H
  C69      1.0000 0.25323  0.92887  0.69407  Biso   1.000  C
  H157     1.0000 0.29663  0.98257  0.71457  Biso   1.000  H
  H158     1.0000 0.27303  0.92817  0.65127  Biso   1.000  H
  C70      1.0000 0.24343  0.85117  0.73017  Biso   1.000  C
  H159     1.0000 0.19693  0.79817  0.71097  Biso   1.000  H
  H160     1.0000 0.29743  0.84937  0.72657  Biso   1.000  H
  C71      1.0000 0.22293  0.85227  0.79897  Biso   1.000  C
  H161     1.0000 0.26873  0.90587  0.81807  Biso   1.000  H
  H162     1.0000 0.16823  0.85277  0.80267  Biso   1.000  H
  H163     1.0000 0.29643  0.98077  0.67177  Biso   1.000  H
  H164     1.0000 0.24763  0.87807  0.67177  Biso   1.000  H
  C72      1.0000 0.28603  0.93037  0.76087  Biso   1.000  C
  H165     1.0000 0.34163  0.93107  0.75847  Biso   1.000  H
  H166     1.0000 0.29613  0.98307  0.78227  Biso   1.000  H
  H167     1.0000 0.20403  0.87947  0.83057  Biso   1.000  H
  H168     1.0000 0.17383  0.82367  0.76987  Biso   1.000  H
  N97      1.0000 0.23480  0.80250  0.55940  Biso   1.000  N
  N98      1.0000 0.16360  0.74030  0.52750  Biso   1.000  N
  N99      1.0000 0.17970  0.68870  0.49270  Biso   1.000  N
  N100     1.0000 0.26380  0.71340  0.50257  Biso   1.000  N
  C73      1.0000 0.29440  0.78110  0.54420  Biso   1.000  C
  H169     1.0000 0.35120  0.80930  0.56040  Biso   1.000  H
  N101     1.0000 0.18150  0.95320  0.38730  Biso   1.000  N
  N102     1.0000 0.10620  0.87760  0.38680  Biso   1.000  N
  N103     1.0000 0.04380  0.88180  0.35590  Biso   1.000  N
  N104     1.0000 0.07870  0.96350  0.33530  Biso   1.000  N
  C74      1.0000 0.16200  0.00500  0.35610  Biso   1.000  C
  H170     1.0000 0.20140  0.06420  0.34910  Biso   1.000  H
  N105     1.0000 0.79660  0.56330  0.99080  Biso   1.000  N
  N106     1.0000 0.74060  0.57530  0.02540  Biso   1.000  N
  N107     1.0000 0.69190  0.51040  0.06260  Biso   1.000  N
  N108     1.0000 0.71380  0.45060  0.05074  Biso   1.000  N
  C75      1.0000 0.77720  0.48410  0.00730  Biso   1.000  C
  H171     1.0000 0.80430  0.45470  0.99080  Biso   1.000  H
  N109     1.0000 0.96510  0.77940  0.16200  Biso   1.000  N
  N110     1.0000 0.88750  0.76970  0.16680  Biso   1.000  N
  N111     1.0000 0.88300  0.83160  0.19940  Biso   1.000  N
  N112     1.0000 0.96280  0.88420  0.21770  Biso   1.000  N
  C76      1.0000 0.01190  0.85000  0.19660  Biso   1.000  C
  H172     1.0000 0.07130  0.87350  0.20540  Biso   1.000  H
  C77      1.0000 0.07800  0.73510  0.53010  Biso   1.000  C
  H173     1.0000 0.06250  0.73790  0.57390  Biso   1.000  H
  H174     1.0000 0.03340  0.67990  0.51210  Biso   1.000  H
  C78      1.0000 0.08300  0.81180  0.49250  Biso   1.000  C
  H175     1.0000 0.13240  0.86640  0.50730  Biso   1.000  H
  H176     1.0000 0.02990  0.81450  0.49930  Biso   1.000  H
  C79      1.0000 0.09380  0.80050  0.42110  Biso   1.000  C
  H177     1.0000 0.14400  0.79270  0.41450  Biso   1.000  H
  H178     1.0000 0.04200  0.74870  0.40530  Biso   1.000  H
  H179     1.0000 0.41810  0.45450  0.21670  Biso   1.000  H
  H180     1.0000 0.37210  0.35220  0.22300  Biso   1.000  H
  C80      1.0000 0.37100  0.39200  0.13160  Biso   1.000  C
  H181     1.0000 0.36180  0.33750  0.11270  Biso   1.000  H
  H182     1.0000 0.31400  0.38730  0.13620  Biso   1.000  H
  H183     1.0000 0.48240  0.49250  0.11060  Biso   1.000  H
  H184     1.0000 0.43470  0.43520  0.05310  Biso   1.000  H
  C81      1.0000 0.73780  0.65770  0.02740  Biso   1.000  C
  H185     1.0000 0.68410  0.64740  0.04790  Biso   1.000  H
  H186     1.0000 0.73850  0.67820  0.98460  Biso   1.000  H
  C82      1.0000 0.81550  0.72560  0.06350  Biso   1.000  C
  H187     1.0000 0.86850  0.73210  0.04430  Biso   1.000  H
  H188     1.0000 0.81730  0.78140  0.05990  Biso   1.000  H
  C83      1.0000 0.81440  0.70400  0.13230  Biso   1.000  C
  H189     1.0000 0.76080  0.69620  0.15140  Biso   1.000  H
  H190     1.0000 0.81390  0.64880  0.13600  Biso   1.000  H
  H191     1.0000 0.68590  0.64900  0.00510  Biso   1.000  H
  H192     1.0000 0.78860  0.70290  0.00510  Biso   1.000  H
  C84      1.0000 0.73630  0.68900  0.09420  Biso   1.000  C
  H193     1.0000 0.73560  0.74390  0.09180  Biso   1.000  H
  H194     1.0000 0.68360  0.64640  0.11560  Biso   1.000  H
  H195     1.0000 0.78720  0.65790  0.16390  Biso   1.000  H
  H196     1.0000 0.84300  0.68350  0.10320  Biso   1.000  H
  N113     1.0000 0.90147  0.13583  0.89273  Biso   1.000  N
  N114     1.0000 0.83027  0.07363  0.86083  Biso   1.000  N
  N115     1.0000 0.84637  0.02203  0.82603  Biso   1.000  N
  N116     1.0000 0.93047  0.04673  0.83590  Biso   1.000  N
  C85      1.0000 0.96107  0.11443  0.87753  Biso   1.000  C
  H197     1.0000 0.01787  0.14263  0.89373  Biso   1.000  H
  N117     1.0000 0.84817  0.28653  0.72063  Biso   1.000  N
  N118     1.0000 0.77287  0.21093  0.72013  Biso   1.000  N
  N119     1.0000 0.71047  0.21513  0.68923  Biso   1.000  N
  N120     1.0000 0.74537  0.29683  0.66863  Biso   1.000  N
  C86      1.0000 0.82867  0.33833  0.68943  Biso   1.000  C
  H198     1.0000 0.86807  0.39753  0.68243  Biso   1.000  H
  N121     1.0000 0.46327  0.89663  0.32413  Biso   1.000  N
  N122     1.0000 0.40727  0.90863  0.35873  Biso   1.000  N
  N123     1.0000 0.35857  0.84373  0.39593  Biso   1.000  N
  N124     1.0000 0.38047  0.78393  0.38407  Biso   1.000  N
  C87      1.0000 0.44387  0.81743  0.34063  Biso   1.000  C
  H199     1.0000 0.47097  0.78803  0.32413  Biso   1.000  H
  N125     1.0000 0.63177  0.11273  0.49533  Biso   1.000  N
  N126     1.0000 0.55417  0.10303  0.50013  Biso   1.000  N
  N127     1.0000 0.54967  0.16493  0.53273  Biso   1.000  N
  N128     1.0000 0.62947  0.21753  0.55103  Biso   1.000  N
  C88      1.0000 0.67857  0.18333  0.52993  Biso   1.000  C
  H200     1.0000 0.73797  0.20683  0.53873  Biso   1.000  H
  C89      1.0000 0.74467  0.06843  0.86343  Biso   1.000  C
  H201     1.0000 0.72917  0.07123  0.90723  Biso   1.000  H
  H202     1.0000 0.70007  0.01323  0.84543  Biso   1.000  H
  C90      1.0000 0.74967  0.14513  0.82583  Biso   1.000  C
  H203     1.0000 0.79907  0.19973  0.84063  Biso   1.000  H
  H204     1.0000 0.69657  0.14783  0.83263  Biso   1.000  H
  C91      1.0000 0.76047  0.13383  0.75443  Biso   1.000  C
  H205     1.0000 0.81067  0.12603  0.74783  Biso   1.000  H
  H206     1.0000 0.70867  0.08203  0.73863  Biso   1.000  H
  H207     1.0000 0.08477  0.78783  0.55003  Biso   1.000  H
  H208     1.0000 0.03877  0.68553  0.55633  Biso   1.000  H
  C92      1.0000 0.03767  0.72533  0.46493  Biso   1.000  C
  H209     1.0000 0.02847  0.67083  0.44603  Biso   1.000  H
  H210     1.0000 0.98067  0.72063  0.46953  Biso   1.000  H
  H211     1.0000 0.14907  0.82583  0.44393  Biso   1.000  H
  H212     1.0000 0.10137  0.76853  0.38643  Biso   1.000  H
  C93      1.0000 0.40447  0.99103  0.36073  Biso   1.000  C
  H213     1.0000 0.35077  0.98073  0.38123  Biso   1.000  H
  H214     1.0000 0.40517  0.01153  0.31793  Biso   1.000  H
  C94      1.0000 0.48217  0.05893  0.39683  Biso   1.000  C
  H215     1.0000 0.53517  0.06543  0.37763  Biso   1.000  H
  H216     1.0000 0.48397  0.11473  0.39323  Biso   1.000  H
  C95      1.0000 0.48107  0.03733  0.46563  Biso   1.000  C
  H217     1.0000 0.42747  0.02953  0.48473  Biso   1.000  H
  H218     1.0000 0.48057  0.98213  0.46933  Biso   1.000  H
  H219     1.0000 0.35257  0.98233  0.33843  Biso   1.000  H
  H220     1.0000 0.45527  0.03623  0.33843  Biso   1.000  H
  C96      1.0000 0.40297  0.02233  0.42753  Biso   1.000  C
  H221     1.0000 0.40227  0.07723  0.42513  Biso   1.000  H
  H222     1.0000 0.35027  0.97973  0.44893  Biso   1.000  H
  H223     1.0000 0.45387  0.99123  0.49723  Biso   1.000  H
  H224     1.0000 0.50967  0.01683  0.43653  Biso   1.000  H
  N129     1.0000 0.56813  0.46917  0.22607  Biso   1.000  N
  N130     1.0000 0.49693  0.40697  0.19417  Biso   1.000  N
  N131     1.0000 0.51303  0.35537  0.15937  Biso   1.000  N
  N132     1.0000 0.59713  0.38007  0.16924  Biso   1.000  N
  C97      1.0000 0.62773  0.44777  0.21087  Biso   1.000  C
  H225     1.0000 0.68453  0.47597  0.22707  Biso   1.000  H
  N133     1.0000 0.51483  0.61987  0.05397  Biso   1.000  N
  N134     1.0000 0.43953  0.54427  0.05347  Biso   1.000  N
  N135     1.0000 0.37713  0.54847  0.02257  Biso   1.000  N
  N136     1.0000 0.41203  0.63017  0.00197  Biso   1.000  N
  C98      1.0000 0.49533  0.67167  0.02277  Biso   1.000  C
  H226     1.0000 0.53473  0.73087  0.01577  Biso   1.000  H
  N137     1.0000 0.12993  0.22997  0.65747  Biso   1.000  N
  N138     1.0000 0.07393  0.24197  0.69207  Biso   1.000  N
  N139     1.0000 0.02523  0.17707  0.72927  Biso   1.000  N
  N140     1.0000 0.04713  0.11727  0.71741  Biso   1.000  N
  C99      1.0000 0.11053  0.15077  0.67397  Biso   1.000  C
  H227     1.0000 0.13763  0.12137  0.65747  Biso   1.000  H
  N141     1.0000 0.29843  0.44607  0.82867  Biso   1.000  N
  N142     1.0000 0.22083  0.43637  0.83347  Biso   1.000  N
  N143     1.0000 0.21633  0.49827  0.86607  Biso   1.000  N
  N144     1.0000 0.29613  0.55087  0.88437  Biso   1.000  N
  C100     1.0000 0.34523  0.51667  0.86327  Biso   1.000  C
  H228     1.0000 0.40463  0.54017  0.87207  Biso   1.000  H
  C101     1.0000 0.41133  0.40177  0.19677  Biso   1.000  C
  H229     1.0000 0.39583  0.40457  0.24057  Biso   1.000  H
  H230     1.0000 0.36673  0.34657  0.17877  Biso   1.000  H
  C102     1.0000 0.41633  0.47847  0.15917  Biso   1.000  C
  H231     1.0000 0.46573  0.53307  0.17397  Biso   1.000  H
  H232     1.0000 0.36323  0.48117  0.16597  Biso   1.000  H
  C103     1.0000 0.42713  0.46717  0.08777  Biso   1.000  C
  H233     1.0000 0.47733  0.45937  0.08117  Biso   1.000  H
  H234     1.0000 0.37533  0.41537  0.07197  Biso   1.000  H
  H235     1.0000 0.75143  0.12117  0.88337  Biso   1.000  H
  H236     1.0000 0.70543  0.01887  0.88967  Biso   1.000  H
  C104     1.0000 0.70433  0.05867  0.79827  Biso   1.000  C
  H237     1.0000 0.69513  0.00417  0.77937  Biso   1.000  H
  H238     1.0000 0.64733  0.05397  0.80287  Biso   1.000  H
  H239     1.0000 0.81573  0.15917  0.77727  Biso   1.000  H
  H240     1.0000 0.76803  0.10187  0.71977  Biso   1.000  H
  C105     1.0000 0.07113  0.32437  0.69407  Biso   1.000  C
  H241     1.0000 0.01743  0.31407  0.71457  Biso   1.000  H
  H242     1.0000 0.07183  0.34487  0.65127  Biso   1.000  H
  C106     1.0000 0.14883  0.39227  0.73017  Biso   1.000  C
  H243     1.0000 0.20183  0.39877  0.71097  Biso   1.000  H
  H244     1.0000 0.15063  0.44807  0.72657  Biso   1.000  H
  C107     1.0000 0.14773  0.37067  0.79897  Biso   1.000  C
  H245     1.0000 0.09413  0.36287  0.81807  Biso   1.000  H
  H246     1.0000 0.14723  0.31547  0.80267  Biso   1.000  H
  H247     1.0000 0.01923  0.31567  0.67177  Biso   1.000  H
  H248     1.0000 0.12193  0.36957  0.67177  Biso   1.000  H
  C108     1.0000 0.06963  0.35567  0.76087  Biso   1.000  C
  H249     1.0000 0.06893  0.41057  0.75847  Biso   1.000  H
  H250     1.0000 0.01693  0.31307  0.78227  Biso   1.000  H
  H251     1.0000 0.12053  0.32457  0.83057  Biso   1.000  H
  H252     1.0000 0.17633  0.35017  0.76987  Biso   1.000  H
  Fe1      1.0000 0.00000  0.00000  0.27726  Biso   1.000  Fe
  Fe2      1.0000 0.66667  0.33333  0.61059  Biso   1.000  Fe
  Fe3      1.0000 0.33333  0.66667  0.94393  Biso   1.000  Fe
  Fe4      1.0000 0.33333  0.66667  0.44338  Biso   1.000  Fe
  Fe5      1.0000 0.00000  0.00000  0.77671  Biso   1.000  Fe
  Fe6      1.0000 0.66667  0.33333  0.11005  Biso   1.000  Fe
