data_image0
_cell_length_a       10.7521
_cell_length_b       11.7077
_cell_length_c       12.3439
_cell_angle_alpha    90
_cell_angle_beta     92.146
_cell_angle_gamma    90

_symmetry_space_group_name_H-M    "P 1"
_symmetry_int_tables_number       1

loop_
  _symmetry_equiv_pos_as_xyz
  'x, y, z'

loop_
  _atom_site_label
  _atom_site_occupancy
  _atom_site_fract_x
  _atom_site_fract_y
  _atom_site_fract_z
  _atom_site_thermal_displace_type
  _atom_site_B_iso_or_equiv
  _atom_site_type_symbol
  N1       1.0000 0.05920  0.62550  0.82280  Biso   1.000  N
  C1       1.0000 0.04090  0.56970  0.91900  Biso   1.000  C
  C2       1.0000 0.98360  0.57480  0.75030  Biso   1.000  C
  C3       1.0000 0.09240  0.58770  0.02220  Biso   1.000  C
  C4       1.0000 0.95160  0.48360  0.89750  Biso   1.000  C
  H1       1.0000 0.97780  0.59900  0.67690  Biso   1.000  H
  N2       1.0000 0.91710  0.48900  0.78570  Biso   1.000  N
  H2       1.0000 0.15350  0.64470  0.03710  Biso   1.000  H
  Cu1      1.0000 0.81395  0.37909  0.70506  Biso   1.000  Cu
  N3       1.0000 0.68540  0.49070  0.65900  Biso   1.000  N
  C5       1.0000 0.59910  0.48420  0.57280  Biso   1.000  C
  C6       1.0000 0.64650  0.57420  0.72320  Biso   1.000  C
  C7       1.0000 0.59360  0.41400  0.48010  Biso   1.000  C
  C8       1.0000 0.50640  0.56790  0.59050  Biso   1.000  C
  N4       1.0000 0.54030  0.62580  0.68690  Biso   1.000  N
  H3       1.0000 0.68970  0.59550  0.78860  Biso   1.000  H
  H4       1.0000 0.65510  0.35780  0.46710  Biso   1.000  H
  O1       1.0000 0.32120  0.64560  0.80550  Biso   1.000  O
  H5       1.0000 0.31120  0.58860  0.76340  Biso   1.000  H
  N5       1.0000 0.94080  0.12550  0.17720  Biso   1.000  N
  C9       1.0000 0.95910  0.06970  0.08100  Biso   1.000  C
  C10      1.0000 0.01640  0.07480  0.24970  Biso   1.000  C
  C11      1.0000 0.90760  0.08770  0.97780  Biso   1.000  C
  C12      1.0000 0.04840  0.98360  0.10250  Biso   1.000  C
  H6       1.0000 0.02220  0.09900  0.32310  Biso   1.000  H
  N6       1.0000 0.08290  0.98900  0.21430  Biso   1.000  N
  H7       1.0000 0.84650  0.14470  0.96290  Biso   1.000  H
  Cu2      1.0000 0.18605  0.87909  0.29494  Biso   1.000  Cu
  N7       1.0000 0.31460  0.99070  0.34100  Biso   1.000  N
  C13      1.0000 0.40090  0.98420  0.42720  Biso   1.000  C
  C14      1.0000 0.35350  0.07420  0.27680  Biso   1.000  C
  C15      1.0000 0.40640  0.91400  0.51990  Biso   1.000  C
  C16      1.0000 0.49360  0.06790  0.40950  Biso   1.000  C
  N8       1.0000 0.45970  0.12580  0.31310  Biso   1.000  N
  H8       1.0000 0.31030  0.09550  0.21140  Biso   1.000  H
  H9       1.0000 0.34490  0.85780  0.53290  Biso   1.000  H
  O2       1.0000 0.67880  0.14560  0.19450  Biso   1.000  O
  H10      1.0000 0.68880  0.08860  0.23660  Biso   1.000  H
  N9       1.0000 0.94080  0.37450  0.17720  Biso   1.000  N
  C17      1.0000 0.95910  0.43030  0.08100  Biso   1.000  C
  C18      1.0000 0.01640  0.42520  0.24970  Biso   1.000  C
  C19      1.0000 0.90760  0.41230  0.97780  Biso   1.000  C
  C20      1.0000 0.04840  0.51640  0.10250  Biso   1.000  C
  H11      1.0000 0.02220  0.40100  0.32310  Biso   1.000  H
  N10      1.0000 0.08290  0.51100  0.21430  Biso   1.000  N
  H12      1.0000 0.84650  0.35530  0.96290  Biso   1.000  H
  Cu3      1.0000 0.18605  0.62091  0.29494  Biso   1.000  Cu
  N11      1.0000 0.31460  0.50930  0.34100  Biso   1.000  N
  C21      1.0000 0.40090  0.51580  0.42720  Biso   1.000  C
  C22      1.0000 0.35350  0.42580  0.27680  Biso   1.000  C
  C23      1.0000 0.40640  0.58600  0.51990  Biso   1.000  C
  C24      1.0000 0.49360  0.43210  0.40950  Biso   1.000  C
  N12      1.0000 0.45970  0.37420  0.31310  Biso   1.000  N
  H13      1.0000 0.31030  0.40450  0.21140  Biso   1.000  H
  H14      1.0000 0.34490  0.64220  0.53290  Biso   1.000  H
  O3       1.0000 0.67880  0.35440  0.19450  Biso   1.000  O
  H15      1.0000 0.68880  0.41140  0.23660  Biso   1.000  H
  N13      1.0000 0.05920  0.87450  0.82280  Biso   1.000  N
  C25      1.0000 0.04090  0.93030  0.91900  Biso   1.000  C
  C26      1.0000 0.98360  0.92520  0.75030  Biso   1.000  C
  C27      1.0000 0.09240  0.91230  0.02220  Biso   1.000  C
  C28      1.0000 0.95160  0.01640  0.89750  Biso   1.000  C
  H16      1.0000 0.97780  0.90100  0.67690  Biso   1.000  H
  N14      1.0000 0.91710  0.01100  0.78570  Biso   1.000  N
  H17      1.0000 0.15350  0.85530  0.03710  Biso   1.000  H
  Cu4      1.0000 0.81395  0.12091  0.70506  Biso   1.000  Cu
  N15      1.0000 0.68540  0.00930  0.65900  Biso   1.000  N
  C29      1.0000 0.59910  0.01580  0.57280  Biso   1.000  C
  C30      1.0000 0.64650  0.92580  0.72320  Biso   1.000  C
  C31      1.0000 0.59360  0.08600  0.48010  Biso   1.000  C
  C32      1.0000 0.50640  0.93210  0.59050  Biso   1.000  C
  N16      1.0000 0.54030  0.87420  0.68690  Biso   1.000  N
  H18      1.0000 0.68970  0.90450  0.78860  Biso   1.000  H
  H19      1.0000 0.65510  0.14220  0.46710  Biso   1.000  H
  O4       1.0000 0.32120  0.85440  0.80550  Biso   1.000  O
  H20      1.0000 0.31120  0.91140  0.76340  Biso   1.000  H
  Cu5      1.0000 0.17950  0.75000  0.80638  Biso   1.000  Cu
  Cu6      1.0000 0.44410  0.75000  0.74703  Biso   1.000  Cu
  Cu7      1.0000 0.82050  0.25000  0.19362  Biso   1.000  Cu
  Cu8      1.0000 0.55590  0.25000  0.25297  Biso   1.000  Cu
  O5       1.0000 0.70700  0.25000  0.67200  Biso   1.000  O
  O6       1.0000 0.92110  0.25000  0.74140  Biso   1.000  O
  H21      1.0000 0.68320  0.25000  0.60530  Biso   1.000  H
  H22      1.0000 0.98960  0.25000  0.77820  Biso   1.000  H
  O7       1.0000 0.74300  0.25000  0.62600  Biso   1.000  O
  O8       1.0000 0.29300  0.75000  0.32800  Biso   1.000  O
  O9       1.0000 0.07890  0.75000  0.25860  Biso   1.000  O
  H23      1.0000 0.31680  0.75000  0.39470  Biso   1.000  H
  H24      1.0000 0.01040  0.75000  0.22180  Biso   1.000  H
  O10      1.0000 0.25700  0.75000  0.37400  Biso   1.000  O
