data_image0
_cell_length_a       16.377
_cell_length_b       12.209
_cell_length_c       10.2681
_cell_angle_alpha    90
_cell_angle_beta     127.226
_cell_angle_gamma    90

_symmetry_space_group_name_H-M    "P 1"
_symmetry_int_tables_number       1

loop_
  _symmetry_equiv_pos_as_xyz
  'x, y, z'

loop_
  _atom_site_label
  _atom_site_occupancy
  _atom_site_fract_x
  _atom_site_fract_y
  _atom_site_fract_z
  _atom_site_thermal_displace_type
  _atom_site_B_iso_or_equiv
  _atom_site_type_symbol
  N1       1.0000 0.42140  0.38070  0.66860  Biso   1.000  N
  C1       1.0000 0.47780  0.32470  0.63720  Biso   1.000  C
  C2       1.0000 0.32990  0.32260  0.58950  Biso   1.000  C
  N2       1.0000 0.43320  0.23470  0.54500  Biso   1.000  N
  H1       1.0000 0.54490  0.34710  0.67730  Biso   1.000  H
  C3       1.0000 0.33690  0.23160  0.51150  Biso   1.000  C
  C4       1.0000 0.24260  0.34320  0.58040  Biso   1.000  C
  H2       1.0000 0.23790  0.40400  0.63340  Biso   1.000  H
  H3       1.0000 0.41040  0.04100  0.69490  Biso   1.000  H
  H4       1.0000 0.46640  0.92440  0.74670  Biso   1.000  H
  H5       1.0000 0.53300  0.03450  0.80820  Biso   1.000  H
  H6       1.0000 0.54470  0.74030  0.97340  Biso   1.000  H
  H7       1.0000 0.43000  0.74030  0.91820  Biso   1.000  H
  H8       1.0000 0.52520  0.74030  0.10840  Biso   1.000  H
  N3       1.0000 0.92140  0.88070  0.66860  Biso   1.000  N
  C5       1.0000 0.97780  0.82470  0.63720  Biso   1.000  C
  C6       1.0000 0.82990  0.82260  0.58950  Biso   1.000  C
  N4       1.0000 0.93320  0.73470  0.54500  Biso   1.000  N
  H9       1.0000 0.04490  0.84710  0.67730  Biso   1.000  H
  C7       1.0000 0.83690  0.73160  0.51150  Biso   1.000  C
  C8       1.0000 0.74260  0.84320  0.58040  Biso   1.000  C
  H10      1.0000 0.73790  0.90400  0.63340  Biso   1.000  H
  H11      1.0000 0.91040  0.54100  0.69490  Biso   1.000  H
  H12      1.0000 0.96640  0.42440  0.74670  Biso   1.000  H
  H13      1.0000 0.03300  0.53450  0.80820  Biso   1.000  H
  H14      1.0000 0.04470  0.24030  0.97340  Biso   1.000  H
  H15      1.0000 0.93000  0.24030  0.91820  Biso   1.000  H
  H16      1.0000 0.02520  0.24030  0.10840  Biso   1.000  H
  N5       1.0000 0.57860  0.38070  0.33140  Biso   1.000  N
  C9       1.0000 0.52220  0.32470  0.36280  Biso   1.000  C
  C10      1.0000 0.67010  0.32260  0.41050  Biso   1.000  C
  N6       1.0000 0.56680  0.23470  0.45500  Biso   1.000  N
  H17      1.0000 0.45510  0.34710  0.32270  Biso   1.000  H
  C11      1.0000 0.66310  0.23160  0.48850  Biso   1.000  C
  C12      1.0000 0.75740  0.34320  0.41960  Biso   1.000  C
  H18      1.0000 0.76210  0.40400  0.36660  Biso   1.000  H
  H19      1.0000 0.58960  0.04100  0.30510  Biso   1.000  H
  H20      1.0000 0.53360  0.92440  0.25330  Biso   1.000  H
  H21      1.0000 0.46700  0.03450  0.19180  Biso   1.000  H
  H22      1.0000 0.45530  0.74030  0.02660  Biso   1.000  H
  H23      1.0000 0.57000  0.74030  0.08180  Biso   1.000  H
  H24      1.0000 0.47480  0.74030  0.89160  Biso   1.000  H
  N7       1.0000 0.07860  0.88070  0.33140  Biso   1.000  N
  C13      1.0000 0.02220  0.82470  0.36280  Biso   1.000  C
  C14      1.0000 0.17010  0.82260  0.41050  Biso   1.000  C
  N8       1.0000 0.06680  0.73470  0.45500  Biso   1.000  N
  H25      1.0000 0.95510  0.84710  0.32270  Biso   1.000  H
  C15      1.0000 0.16310  0.73160  0.48850  Biso   1.000  C
  C16      1.0000 0.25740  0.84320  0.41960  Biso   1.000  C
  H26      1.0000 0.26210  0.90400  0.36660  Biso   1.000  H
  H27      1.0000 0.08960  0.54100  0.30510  Biso   1.000  H
  H28      1.0000 0.03360  0.42440  0.25330  Biso   1.000  H
  H29      1.0000 0.96700  0.53450  0.19180  Biso   1.000  H
  H30      1.0000 0.95530  0.24030  0.02660  Biso   1.000  H
  H31      1.0000 0.07000  0.24030  0.08180  Biso   1.000  H
  H32      1.0000 0.97480  0.24030  0.89160  Biso   1.000  H
  N9       1.0000 0.57860  0.61930  0.33140  Biso   1.000  N
  C17      1.0000 0.52220  0.67530  0.36280  Biso   1.000  C
  C18      1.0000 0.67010  0.67740  0.41050  Biso   1.000  C
  N10      1.0000 0.56680  0.76530  0.45500  Biso   1.000  N
  H33      1.0000 0.45510  0.65290  0.32270  Biso   1.000  H
  C19      1.0000 0.66310  0.76840  0.48850  Biso   1.000  C
  C20      1.0000 0.75740  0.65680  0.41960  Biso   1.000  C
  H34      1.0000 0.76210  0.59600  0.36660  Biso   1.000  H
  H35      1.0000 0.58960  0.95900  0.30510  Biso   1.000  H
  H36      1.0000 0.53360  0.07560  0.25330  Biso   1.000  H
  H37      1.0000 0.46700  0.96550  0.19180  Biso   1.000  H
  H38      1.0000 0.45530  0.25970  0.02660  Biso   1.000  H
  H39      1.0000 0.57000  0.25970  0.08180  Biso   1.000  H
  H40      1.0000 0.47480  0.25970  0.89160  Biso   1.000  H
  N11      1.0000 0.07860  0.11930  0.33140  Biso   1.000  N
  C21      1.0000 0.02220  0.17530  0.36280  Biso   1.000  C
  C22      1.0000 0.17010  0.17740  0.41050  Biso   1.000  C
  N12      1.0000 0.06680  0.26530  0.45500  Biso   1.000  N
  H41      1.0000 0.95510  0.15290  0.32270  Biso   1.000  H
  C23      1.0000 0.16310  0.26840  0.48850  Biso   1.000  C
  C24      1.0000 0.25740  0.15680  0.41960  Biso   1.000  C
  H42      1.0000 0.26210  0.09600  0.36660  Biso   1.000  H
  H43      1.0000 0.08960  0.45900  0.30510  Biso   1.000  H
  H44      1.0000 0.03360  0.57560  0.25330  Biso   1.000  H
  H45      1.0000 0.96700  0.46550  0.19180  Biso   1.000  H
  H46      1.0000 0.95530  0.75970  0.02660  Biso   1.000  H
  H47      1.0000 0.07000  0.75970  0.08180  Biso   1.000  H
  H48      1.0000 0.97480  0.75970  0.89160  Biso   1.000  H
  N13      1.0000 0.42140  0.61930  0.66860  Biso   1.000  N
  C25      1.0000 0.47780  0.67530  0.63720  Biso   1.000  C
  C26      1.0000 0.32990  0.67740  0.58950  Biso   1.000  C
  N14      1.0000 0.43320  0.76530  0.54500  Biso   1.000  N
  H49      1.0000 0.54490  0.65290  0.67730  Biso   1.000  H
  C27      1.0000 0.33690  0.76840  0.51150  Biso   1.000  C
  C28      1.0000 0.24260  0.65680  0.58040  Biso   1.000  C
  H50      1.0000 0.23790  0.59600  0.63340  Biso   1.000  H
  H51      1.0000 0.41040  0.95900  0.69490  Biso   1.000  H
  H52      1.0000 0.46640  0.07560  0.74670  Biso   1.000  H
  H53      1.0000 0.53300  0.96550  0.80820  Biso   1.000  H
  H54      1.0000 0.54470  0.25970  0.97340  Biso   1.000  H
  H55      1.0000 0.43000  0.25970  0.91820  Biso   1.000  H
  H56      1.0000 0.52520  0.25970  0.10840  Biso   1.000  H
  N15      1.0000 0.92140  0.11930  0.66860  Biso   1.000  N
  C29      1.0000 0.97780  0.17530  0.63720  Biso   1.000  C
  C30      1.0000 0.82990  0.17740  0.58950  Biso   1.000  C
  N16      1.0000 0.93320  0.26530  0.54500  Biso   1.000  N
  H57      1.0000 0.04490  0.15290  0.67730  Biso   1.000  H
  C31      1.0000 0.83690  0.26840  0.51150  Biso   1.000  C
  C32      1.0000 0.74260  0.15680  0.58040  Biso   1.000  C
  H58      1.0000 0.73790  0.09600  0.63340  Biso   1.000  H
  H59      1.0000 0.91040  0.45900  0.69490  Biso   1.000  H
  H60      1.0000 0.96640  0.57560  0.74670  Biso   1.000  H
  H61      1.0000 0.03300  0.46550  0.80820  Biso   1.000  H
  H62      1.0000 0.04470  0.75970  0.97340  Biso   1.000  H
  H63      1.0000 0.93000  0.75970  0.91820  Biso   1.000  H
  H64      1.0000 0.02520  0.75970  0.10840  Biso   1.000  H
  Cu1      1.0000 0.46137  0.50000  0.82284  Biso   1.000  Cu
  Cu2      1.0000 0.96137  0.00000  0.82284  Biso   1.000  Cu
  Cu3      1.0000 0.53863  0.50000  0.17716  Biso   1.000  Cu
  Cu4      1.0000 0.03863  0.00000  0.17716  Biso   1.000  Cu
  O1       1.0000 0.50000  0.59660  0.00000  Biso   1.000  O
  C33      1.0000 0.50000  0.71360  0.00000  Biso   1.000  C
  O2       1.0000 0.00000  0.09660  0.00000  Biso   1.000  O
  C34      1.0000 0.00000  0.21360  0.00000  Biso   1.000  C
  O3       1.0000 0.50000  0.40340  0.00000  Biso   1.000  O
  C35      1.0000 0.50000  0.28640  0.00000  Biso   1.000  C
  O4       1.0000 0.00000  0.90340  0.00000  Biso   1.000  O
  C36      1.0000 0.00000  0.78640  0.00000  Biso   1.000  C
  Cu5      1.0000 0.50000  0.12436  0.50000  Biso   1.000  Cu
  Cu6      1.0000 0.00000  0.62436  0.50000  Biso   1.000  Cu
  Cu7      1.0000 0.50000  0.87564  0.50000  Biso   1.000  Cu
  Cu8      1.0000 0.00000  0.37564  0.50000  Biso   1.000  Cu
  O5       1.0000 0.46570  0.00000  0.57460  Biso   1.000  O
  C37      1.0000 0.46920  0.00000  0.71740  Biso   1.000  C
  O6       1.0000 0.96570  0.50000  0.57460  Biso   1.000  O
  C38      1.0000 0.96920  0.50000  0.71740  Biso   1.000  C
  O7       1.0000 0.53430  0.00000  0.42540  Biso   1.000  O
  C39      1.0000 0.53080  0.00000  0.28260  Biso   1.000  C
  O8       1.0000 0.03430  0.50000  0.42540  Biso   1.000  O
  C40      1.0000 0.03080  0.50000  0.28260  Biso   1.000  C
