data_image0
_cell_length_a       11.5714
_cell_length_b       11.7015
_cell_length_c       11.8399
_cell_angle_alpha    65.118
_cell_angle_beta     78.616
_cell_angle_gamma    71.985

_symmetry_space_group_name_H-M    "P 1"
_symmetry_int_tables_number       1

loop_
  _symmetry_equiv_pos_as_xyz
  'x, y, z'

loop_
  _atom_site_label
  _atom_site_occupancy
  _atom_site_fract_x
  _atom_site_fract_y
  _atom_site_fract_z
  _atom_site_thermal_displace_type
  _atom_site_B_iso_or_equiv
  _atom_site_type_symbol
  O1       1.0000 0.04640  0.40190  0.37780  Biso   1.000  O
  O2       1.0000 0.03830  0.42790  0.18430  Biso   1.000  O
  O3       1.0000 0.04940  0.86090  0.91580  Biso   1.000  O
  O4       1.0000 0.07800  0.65280  0.95220  Biso   1.000  O
  C1       1.0000 0.03400  0.47380  0.26400  Biso   1.000  C
  C2       1.0000 0.01140  0.61600  0.23100  Biso   1.000  C
  C3       1.0000 0.01270  0.72490  0.12180  Biso   1.000  C
  C4       1.0000 0.04820  0.74580  0.98810  Biso   1.000  C
  C5       1.0000 0.96260  0.78620  0.27790  Biso   1.000  C
  C6       1.0000 0.92630  0.87110  0.35080  Biso   1.000  C
  C7       1.0000 0.79660  0.95430  0.33930  Biso   1.000  C
  H1       1.0000 0.79330  0.03340  0.26640  Biso   1.000  H
  H2       1.0000 0.76880  0.97490  0.41210  Biso   1.000  H
  H3       1.0000 0.74520  0.90750  0.33220  Biso   1.000  H
  C8       1.0000 0.71800  0.59970  0.49660  Biso   1.000  C
  H4       1.0000 0.73690  0.67330  0.49210  Biso   1.000  H
  C9       1.0000 0.59740  0.60600  0.49440  Biso   1.000  C
  H5       1.0000 0.53760  0.68230  0.48840  Biso   1.000  H
  C10      1.0000 0.56540  0.49870  0.50100  Biso   1.000  C
  C11      1.0000 0.65840  0.39380  0.50480  Biso   1.000  C
  H6       1.0000 0.64280  0.31970  0.50660  Biso   1.000  H
  C12      1.0000 0.77720  0.39640  0.50610  Biso   1.000  C
  H7       1.0000 0.83910  0.32270  0.50800  Biso   1.000  H
  C13      1.0000 0.74630  0.57980  0.12880  Biso   1.000  C
  H8       1.0000 0.77460  0.50080  0.19360  Biso   1.000  H
  C14      1.0000 0.62590  0.64750  0.13900  Biso   1.000  C
  H9       1.0000 0.57550  0.61400  0.20950  Biso   1.000  H
  C15      1.0000 0.58050  0.76550  0.04410  Biso   1.000  C
  C16      1.0000 0.66350  0.81190  0.94680  Biso   1.000  C
  H10      1.0000 0.63940  0.89310  0.88320  Biso   1.000  H
  C17      1.0000 0.78180  0.73830  0.94340  Biso   1.000  C
  H11      1.0000 0.83540  0.77180  0.87620  Biso   1.000  H
  C18      1.0000 0.24460  0.85840  0.13740  Biso   1.000  C
  H12      1.0000 0.19260  0.83280  0.20880  Biso   1.000  H
  C19      1.0000 0.36800  0.80050  0.14580  Biso   1.000  C
  H13      1.0000 0.39620  0.73780  0.22170  Biso   1.000  H
  C20      1.0000 0.44900  0.83410  0.04420  Biso   1.000  C
  C21      1.0000 0.39940  0.93290  0.93900  Biso   1.000  C
  H14      1.0000 0.44970  0.96370  0.86740  Biso   1.000  H
  C22      1.0000 0.27560  0.98670  0.93890  Biso   1.000  C
  H15      1.0000 0.24550  0.05540  0.86670  Biso   1.000  H
  N1       1.0000 0.98160  0.83200  0.15250  Biso   1.000  N
  N2       1.0000 0.97990  0.65670  0.32880  Biso   1.000  N
  N3       1.0000 0.80810  0.49520  0.50480  Biso   1.000  N
  N4       1.0000 0.82330  0.62210  0.03110  Biso   1.000  N
  N5       1.0000 0.19670  0.94730  0.03470  Biso   1.000  N
  C23      1.0000 0.79600  0.88000  0.41300  Biso   1.000  C
  H16      1.0000 0.79490  0.80230  0.48650  Biso   1.000  H
  H17      1.0000 0.74290  0.88810  0.35560  Biso   1.000  H
  H18      1.0000 0.76950  0.95430  0.43510  Biso   1.000  H
  O5       1.0000 0.95360  0.59810  0.62220  Biso   1.000  O
  O6       1.0000 0.96170  0.57210  0.81570  Biso   1.000  O
  O7       1.0000 0.95060  0.13910  0.08420  Biso   1.000  O
  O8       1.0000 0.92200  0.34720  0.04780  Biso   1.000  O
  C24      1.0000 0.96600  0.52620  0.73600  Biso   1.000  C
  C25      1.0000 0.98860  0.38400  0.76900  Biso   1.000  C
  C26      1.0000 0.98730  0.27510  0.87820  Biso   1.000  C
  C27      1.0000 0.95180  0.25420  0.01190  Biso   1.000  C
  C28      1.0000 0.03740  0.21380  0.72210  Biso   1.000  C
  C29      1.0000 0.07370  0.12890  0.64920  Biso   1.000  C
  C30      1.0000 0.20340  0.04570  0.66070  Biso   1.000  C
  H19      1.0000 0.20670  0.96660  0.73360  Biso   1.000  H
  H20      1.0000 0.23120  0.02510  0.58790  Biso   1.000  H
  H21      1.0000 0.25480  0.09250  0.66780  Biso   1.000  H
  C31      1.0000 0.28200  0.40030  0.50340  Biso   1.000  C
  H22      1.0000 0.26310  0.32670  0.50790  Biso   1.000  H
  C32      1.0000 0.40260  0.39400  0.50560  Biso   1.000  C
  H23      1.0000 0.46240  0.31770  0.51160  Biso   1.000  H
  C33      1.0000 0.43460  0.50130  0.49900  Biso   1.000  C
  C34      1.0000 0.34160  0.60620  0.49520  Biso   1.000  C
  H24      1.0000 0.35720  0.68030  0.49340  Biso   1.000  H
  C35      1.0000 0.22280  0.60360  0.49390  Biso   1.000  C
  H25      1.0000 0.16090  0.67730  0.49200  Biso   1.000  H
  C36      1.0000 0.25370  0.42020  0.87120  Biso   1.000  C
  H26      1.0000 0.22540  0.49920  0.80640  Biso   1.000  H
  C37      1.0000 0.37410  0.35250  0.86100  Biso   1.000  C
  H27      1.0000 0.42450  0.38600  0.79050  Biso   1.000  H
  C38      1.0000 0.41950  0.23450  0.95590  Biso   1.000  C
  C39      1.0000 0.33650  0.18810  0.05320  Biso   1.000  C
  H28      1.0000 0.36060  0.10690  0.11680  Biso   1.000  H
  C40      1.0000 0.21820  0.26170  0.05660  Biso   1.000  C
  H29      1.0000 0.16460  0.22820  0.12380  Biso   1.000  H
  C41      1.0000 0.75540  0.14160  0.86260  Biso   1.000  C
  H30      1.0000 0.80740  0.16720  0.79120  Biso   1.000  H
  C42      1.0000 0.63200  0.19950  0.85420  Biso   1.000  C
  H31      1.0000 0.60380  0.26220  0.77830  Biso   1.000  H
  C43      1.0000 0.55100  0.16590  0.95580  Biso   1.000  C
  C44      1.0000 0.60060  0.06710  0.06100  Biso   1.000  C
  H32      1.0000 0.55030  0.03630  0.13260  Biso   1.000  H
  C45      1.0000 0.72440  0.01330  0.06110  Biso   1.000  C
  H33      1.0000 0.75450  0.94460  0.13330  Biso   1.000  H
  N6       1.0000 0.01840  0.16800  0.84750  Biso   1.000  N
  N7       1.0000 0.02010  0.34330  0.67120  Biso   1.000  N
  N8       1.0000 0.19190  0.50480  0.49520  Biso   1.000  N
  N9       1.0000 0.17670  0.37790  0.96890  Biso   1.000  N
  N10      1.0000 0.80330  0.05270  0.96530  Biso   1.000  N
  C46      1.0000 0.20400  0.12000  0.58700  Biso   1.000  C
  H34      1.0000 0.20510  0.19770  0.51350  Biso   1.000  H
  H35      1.0000 0.25710  0.11190  0.64440  Biso   1.000  H
  H36      1.0000 0.23050  0.04570  0.56490  Biso   1.000  H
  Co1      1.0000 0.00000  0.00000  0.00000  Biso   1.000  Co
  Co2      1.0000 0.00000  0.50000  0.50000  Biso   1.000  Co
  Co3      1.0000 0.00000  0.50000  0.00000  Biso   1.000  Co
