data_image0
_cell_length_a       14.301
_cell_length_b       14.658
_cell_length_c       20.059
_cell_angle_alpha    108.348
_cell_angle_beta     90.323
_cell_angle_gamma    107.607

_symmetry_space_group_name_H-M    "P 1"
_symmetry_int_tables_number       1

loop_
  _symmetry_equiv_pos_as_xyz
  'x, y, z'

loop_
  _atom_site_label
  _atom_site_occupancy
  _atom_site_fract_x
  _atom_site_fract_y
  _atom_site_fract_z
  _atom_site_thermal_displace_type
  _atom_site_B_iso_or_equiv
  _atom_site_type_symbol
  Ag1      1.0000 0.67250  0.53680  0.92018  Biso   1.000  Ag
  Ag2      1.0000 0.36460  0.82340  0.83297  Biso   1.000  Ag
  Ag3      1.0000 0.49417  0.29050  0.04740  Biso   1.000  Ag
  N1       1.0000 0.36670  0.28650  0.11290  Biso   1.000  N
  O1       1.0000 0.52990  0.13480  0.01640  Biso   1.000  O
  N2       1.0000 0.33470  0.36280  0.13990  Biso   1.000  N
  N3       1.0000 0.35380  0.23020  0.15570  Biso   1.000  N
  N4       1.0000 0.30040  0.36000  0.20140  Biso   1.000  N
  C1       1.0000 0.31360  0.27720  0.20960  Biso   1.000  C
  Ag4      1.0000 0.39956  0.09487  0.14541  Biso   1.000  Ag
  Ag5      1.0000 0.23583  0.47871  0.25917  Biso   1.000  Ag
  C2       1.0000 0.28350  0.23720  0.26710  Biso   1.000  C
  C3       1.0000 0.20790  0.60810  0.36350  Biso   1.000  C
  C4       1.0000 0.16820  0.51480  0.37530  Biso   1.000  C
  N5       1.0000 0.13830  0.48310  0.16920  Biso   1.000  N
  C5       1.0000 0.32010  0.29350  0.33780  Biso   1.000  C
  C6       1.0000 0.21710  0.14040  0.25060  Biso   1.000  C
  C7       1.0000 0.30350  0.67380  0.39580  Biso   1.000  C
  H1       1.0000 0.17150  0.62670  0.33450  Biso   1.000  H
  C8       1.0000 0.22270  0.48710  0.41930  Biso   1.000  C
  H2       1.0000 0.10570  0.47160  0.35390  Biso   1.000  H
  N6       1.0000 0.13290  0.56640  0.15710  Biso   1.000  N
  C9       1.0000 0.08440  0.40490  0.11430  Biso   1.000  C
  C10      1.0000 0.28660  0.24630  0.39120  Biso   1.000  C
  H3       1.0000 0.36450  0.35890  0.35030  Biso   1.000  H
  C11      1.0000 0.18390  0.09870  0.30510  Biso   1.000  C
  H4       1.0000 0.19380  0.10210  0.20360  Biso   1.000  H
  C12      1.0000 0.34290  0.76920  0.38580  Biso   1.000  C
  C13      1.0000 0.35560  0.64320  0.43930  Biso   1.000  C
  H5       1.0000 0.19660  0.42520  0.42670  Biso   1.000  H
  C14      1.0000 0.31410  0.55060  0.45140  Biso   1.000  C
  Ag6      1.0000 0.21630  0.72013  0.23098  Biso   1.000  Ag
  N7       1.0000 0.07650  0.53990  0.09760  Biso   1.000  N
  C15      1.0000 0.07310  0.29830  0.10420  Biso   1.000  C
  N8       1.0000 0.04500  0.43810  0.06970  Biso   1.000  N
  C16      1.0000 0.21980  0.15350  0.37190  Biso   1.000  C
  H6       1.0000 0.31140  0.28060  0.43840  Biso   1.000  H
  Ag7      1.0000 0.31128  0.99323  0.29492  Biso   1.000  Ag
  H7       1.0000 0.13780  0.03430  0.29400  Biso   1.000  H
  N9       1.0000 0.40970  0.85300  0.43230  Biso   1.000  N
  N10      1.0000 0.31730  0.79370  0.32960  Biso   1.000  N
  H8       1.0000 0.41870  0.68480  0.46040  Biso   1.000  H
  H9       1.0000 0.34920  0.53240  0.48140  Biso   1.000  H
  N11      1.0000 0.20070  0.81190  0.15420  Biso   1.000  N
  Ag8      1.0000 0.05668  0.64016  0.02895  Biso   1.000  Ag
  C17      1.0000 0.04810  0.25800  0.15710  Biso   1.000  C
  C18      1.0000 0.09630  0.23930  0.04050  Biso   1.000  C
  H10      1.0000 0.19750  0.12580  0.40700  Biso   1.000  H
  N12      1.0000 0.42390  0.92790  0.40360  Biso   1.000  N
  Ag9      1.0000 0.48125  0.90297  0.54165  Biso   1.000  Ag
  N13      1.0000 0.36940  0.89300  0.34380  Biso   1.000  N
  N14      1.0000 0.25570  0.90820  0.17660  Biso   1.000  N
  C19      1.0000 0.04160  0.15630  0.14560  Biso   1.000  C
  H11      1.0000 0.03540  0.29730  0.20020  Biso   1.000  H
  H12      1.0000 0.11470  0.26640  0.00460  Biso   1.000  H
  C20      1.0000 0.09150  0.14230  0.03190  Biso   1.000  C
  N15      1.0000 0.82080  0.21740  0.91600  Biso   1.000  N
  C21      1.0000 0.06250  0.09960  0.08390  Biso   1.000  C
  H13      1.0000 0.02280  0.12800  0.18090  Biso   1.000  H
  H14      1.0000 0.10820  0.10370  0.99010  Biso   1.000  H
  C22      1.0000 0.77520  0.13650  0.93490  Biso   1.000  C
  N16      1.0000 0.53370  0.15770  0.36750  Biso   1.000  N
  N17      1.0000 0.45970  0.12390  0.31450  Biso   1.000  N
  H15      1.0000 0.05730  0.03230  0.07640  Biso   1.000  H
  N18      1.0000 0.72760  0.05750  0.87690  Biso   1.000  N
  C23      1.0000 0.77840  0.13410  0.00870  Biso   1.000  C
  C24      1.0000 0.61400  0.20520  0.34310  Biso   1.000  C
  N19      1.0000 0.49050  0.14750  0.26190  Biso   1.000  N
  C25      1.0000 0.75830  0.04030  0.01990  Biso   1.000  C
  C26      1.0000 0.79810  0.22050  0.06580  Biso   1.000  C
  N20      1.0000 0.58700  0.19780  0.27550  Biso   1.000  N
  C27      1.0000 0.71390  0.25350  0.38180  Biso   1.000  C
  H16      1.0000 0.74180  0.97940  0.98240  Biso   1.000  H
  C28      1.0000 0.76460  0.04310  0.09210  Biso   1.000  C
  C29      1.0000 0.80340  0.21640  0.13340  Biso   1.000  C
  H17      1.0000 0.80810  0.28250  0.05910  Biso   1.000  H
  C30      1.0000 0.77560  0.34640  0.37610  Biso   1.000  C
  C31      1.0000 0.74600  0.20790  0.42390  Biso   1.000  C
  C32      1.0000 0.78380  0.12780  0.14650  Biso   1.000  C
  H18      1.0000 0.75480  0.98240  0.10100  Biso   1.000  H
  H19      1.0000 0.82110  0.27680  0.17140  Biso   1.000  H
  H20      1.0000 0.75420  0.37690  0.34740  Biso   1.000  H
  C33      1.0000 0.86630  0.38970  0.41330  Biso   1.000  C
  H21      1.0000 0.70570  0.14700  0.42760  Biso   1.000  H
  C34      1.0000 0.84130  0.25580  0.46110  Biso   1.000  C
  H22      1.0000 0.78390  0.12650  0.19260  Biso   1.000  H
  H23      1.0000 0.90700  0.45080  0.41030  Biso   1.000  H
  C35      1.0000 0.89970  0.34540  0.45580  Biso   1.000  C
  H24      1.0000 0.86440  0.22610  0.48960  Biso   1.000  H
  H25      1.0000 0.96230  0.37670  0.48070  Biso   1.000  H
  O2       1.0000 0.42200  0.79300  0.98380  Biso   1.000  O
  Ag10     1.0000 0.32750  0.46320  0.07982  Biso   1.000  Ag
  Ag11     1.0000 0.63540  0.17660  0.16703  Biso   1.000  Ag
  Ag12     1.0000 0.50583  0.70950  0.95260  Biso   1.000  Ag
  N21      1.0000 0.63330  0.71350  0.88710  Biso   1.000  N
  O3       1.0000 0.47010  0.86520  0.98360  Biso   1.000  O
  N22      1.0000 0.66530  0.63720  0.86010  Biso   1.000  N
  N23      1.0000 0.64620  0.76980  0.84430  Biso   1.000  N
  N24      1.0000 0.69960  0.64000  0.79860  Biso   1.000  N
  C36      1.0000 0.68640  0.72280  0.79040  Biso   1.000  C
  Ag13     1.0000 0.60044  0.90513  0.85459  Biso   1.000  Ag
  Ag14     1.0000 0.76417  0.52129  0.74083  Biso   1.000  Ag
  C37      1.0000 0.71650  0.76280  0.73290  Biso   1.000  C
  C38      1.0000 0.79210  0.39190  0.63650  Biso   1.000  C
  C39      1.0000 0.83180  0.48520  0.62470  Biso   1.000  C
  N25      1.0000 0.86170  0.51690  0.83080  Biso   1.000  N
  C40      1.0000 0.67990  0.70650  0.66220  Biso   1.000  C
  C41      1.0000 0.78290  0.85960  0.74940  Biso   1.000  C
  C42      1.0000 0.69650  0.32620  0.60420  Biso   1.000  C
  H26      1.0000 0.82850  0.37330  0.66550  Biso   1.000  H
  C43      1.0000 0.77730  0.51290  0.58070  Biso   1.000  C
  H27      1.0000 0.89430  0.52840  0.64610  Biso   1.000  H
  N26      1.0000 0.86710  0.43360  0.84290  Biso   1.000  N
  C44      1.0000 0.91560  0.59510  0.88570  Biso   1.000  C
  C45      1.0000 0.71340  0.75370  0.60880  Biso   1.000  C
  H28      1.0000 0.63550  0.64110  0.64970  Biso   1.000  H
  C46      1.0000 0.81610  0.90130  0.69490  Biso   1.000  C
  H29      1.0000 0.80620  0.89790  0.79640  Biso   1.000  H
  C47      1.0000 0.65710  0.23080  0.61420  Biso   1.000  C
  C48      1.0000 0.64440  0.35680  0.56070  Biso   1.000  C
  H30      1.0000 0.80340  0.57480  0.57330  Biso   1.000  H
  C49      1.0000 0.68590  0.44940  0.54860  Biso   1.000  C
  Ag15     1.0000 0.78370  0.27987  0.76902  Biso   1.000  Ag
  N27      1.0000 0.92350  0.46010  0.90240  Biso   1.000  N
  C50      1.0000 0.92690  0.70170  0.89580  Biso   1.000  C
  N28      1.0000 0.95500  0.56190  0.93030  Biso   1.000  N
  C51      1.0000 0.78020  0.84650  0.62810  Biso   1.000  C
  H31      1.0000 0.68860  0.71940  0.56160  Biso   1.000  H
  Ag16     1.0000 0.68872  0.00677  0.70508  Biso   1.000  Ag
  H32      1.0000 0.86220  0.96570  0.70600  Biso   1.000  H
  N29      1.0000 0.59030  0.14700  0.56770  Biso   1.000  N
  N30      1.0000 0.68270  0.20630  0.67040  Biso   1.000  N
  H33      1.0000 0.58130  0.31520  0.53960  Biso   1.000  H
  H34      1.0000 0.65080  0.46760  0.51860  Biso   1.000  H
  N31      1.0000 0.79930  0.18810  0.84580  Biso   1.000  N
  Ag17     1.0000 0.94332  0.35984  0.97105  Biso   1.000  Ag
  C52      1.0000 0.95190  0.74200  0.84290  Biso   1.000  C
  C53      1.0000 0.90370  0.76070  0.95950  Biso   1.000  C
  H35      1.0000 0.80250  0.87420  0.59300  Biso   1.000  H
  N32      1.0000 0.57610  0.07210  0.59640  Biso   1.000  N
  Ag18     1.0000 0.51875  0.09703  0.45835  Biso   1.000  Ag
  N33      1.0000 0.63060  0.10700  0.65620  Biso   1.000  N
  N34      1.0000 0.74430  0.09180  0.82340  Biso   1.000  N
  C54      1.0000 0.95840  0.84370  0.85440  Biso   1.000  C
  H36      1.0000 0.96460  0.70270  0.79980  Biso   1.000  H
  H37      1.0000 0.88530  0.73360  0.99540  Biso   1.000  H
  C55      1.0000 0.90850  0.85770  0.96810  Biso   1.000  C
  N35      1.0000 0.17920  0.78260  0.08400  Biso   1.000  N
  C56      1.0000 0.93750  0.90040  0.91610  Biso   1.000  C
  H38      1.0000 0.97720  0.87200  0.81910  Biso   1.000  H
  H39      1.0000 0.89180  0.89630  0.00990  Biso   1.000  H
  C57      1.0000 0.22480  0.86350  0.06510  Biso   1.000  C
  N36      1.0000 0.46630  0.84230  0.63250  Biso   1.000  N
  N37      1.0000 0.54030  0.87610  0.68550  Biso   1.000  N
  H40      1.0000 0.94270  0.96770  0.92360  Biso   1.000  H
  N38      1.0000 0.27240  0.94250  0.12310  Biso   1.000  N
  C58      1.0000 0.22160  0.86590  0.99130  Biso   1.000  C
  C59      1.0000 0.38600  0.79480  0.65690  Biso   1.000  C
  N39      1.0000 0.50950  0.85250  0.73810  Biso   1.000  N
  C60      1.0000 0.24170  0.95970  0.98010  Biso   1.000  C
  C61      1.0000 0.20190  0.77950  0.93420  Biso   1.000  C
  N40      1.0000 0.41300  0.80220  0.72450  Biso   1.000  N
  C62      1.0000 0.28610  0.74650  0.61820  Biso   1.000  C
  H41      1.0000 0.25820  0.02060  0.01760  Biso   1.000  H
  C63      1.0000 0.23540  0.95690  0.90790  Biso   1.000  C
  C64      1.0000 0.19660  0.78360  0.86660  Biso   1.000  C
  H42      1.0000 0.19190  0.71750  0.94090  Biso   1.000  H
  C65      1.0000 0.22440  0.65360  0.62390  Biso   1.000  C
  C66      1.0000 0.25400  0.79210  0.57610  Biso   1.000  C
  C67      1.0000 0.21620  0.87220  0.85350  Biso   1.000  C
  H43      1.0000 0.24520  0.01760  0.89900  Biso   1.000  H
  H44      1.0000 0.17890  0.72320  0.82860  Biso   1.000  H
  H45      1.0000 0.24580  0.62310  0.65260  Biso   1.000  H
  C68      1.0000 0.13370  0.61030  0.58670  Biso   1.000  C
  H46      1.0000 0.29430  0.85300  0.57240  Biso   1.000  H
  C69      1.0000 0.15870  0.74420  0.53890  Biso   1.000  C
  H47      1.0000 0.21610  0.87350  0.80740  Biso   1.000  H
  H48      1.0000 0.09300  0.54920  0.58970  Biso   1.000  H
  C70      1.0000 0.10030  0.65460  0.54420  Biso   1.000  C
  H49      1.0000 0.13560  0.77390  0.51040  Biso   1.000  H
  H50      1.0000 0.03770  0.62330  0.51930  Biso   1.000  H
  O4       1.0000 0.57800  0.20700  0.01620  Biso   1.000  O
