data_image0
_cell_length_a       7.085
_cell_length_b       13.334
_cell_length_c       14.383
_cell_angle_alpha    69.66
_cell_angle_beta     90.02
_cell_angle_gamma    74.6

_symmetry_space_group_name_H-M    "P 1"
_symmetry_int_tables_number       1

loop_
  _symmetry_equiv_pos_as_xyz
  'x, y, z'

loop_
  _atom_site_label
  _atom_site_occupancy
  _atom_site_fract_x
  _atom_site_fract_y
  _atom_site_fract_z
  _atom_site_thermal_displace_type
  _atom_site_B_iso_or_equiv
  _atom_site_type_symbol
  Pd1      1.0000 0.48136  0.03734  0.73828  Biso   1.000  Pd
  C1       1.0000 0.67880  0.03920  0.83620  Biso   1.000  C
  N1       1.0000 0.18180  0.01900  0.58810  Biso   1.000  N
  N2       1.0000 0.79200  0.03240  0.89650  Biso   1.000  N
  C2       1.0000 0.28670  0.02850  0.64330  Biso   1.000  C
  C3       1.0000 0.68440  0.02850  0.64340  Biso   1.000  C
  N3       1.0000 0.79900  0.01900  0.58870  Biso   1.000  N
  N4       1.0000 0.92140  0.15730  0.98870  Biso   1.000  N
  N5       1.0000 0.91880  0.16180  0.42500  Biso   1.000  N
  C4       1.0000 0.28360  0.03930  0.83610  Biso   1.000  C
  N6       1.0000 0.88150  0.23680  0.47380  Biso   1.000  N
  C5       1.0000 0.74420  0.51080  0.21670  Biso   1.000  C
  H1       1.0000 0.73780  0.52030  0.27920  Biso   1.000  H
  N7       1.0000 0.83540  0.32880  0.31540  Biso   1.000  N
  C6       1.0000 0.83100  0.33700  0.40560  Biso   1.000  C
  H2       1.0000 0.79690  0.40470  0.41810  Biso   1.000  H
  C7       1.0000 0.88020  0.24300  0.90950  Biso   1.000  C
  H3       1.0000 0.88210  0.24150  0.84390  Biso   1.000  H
  C8       1.0000 0.88950  0.22010  0.33000  Biso   1.000  C
  H4       1.0000 0.90450  0.19000  0.27860  Biso   1.000  H
  N8       1.0000 0.79400  0.41140  0.21720  Biso   1.000  N
  N9       1.0000 0.83300  0.33660  0.93130  Biso   1.000  N
  N10      1.0000 0.90000  0.19490  0.07030  Biso   1.000  N
  N11      1.0000 0.17550  0.03230  0.89650  Biso   1.000  N
  C9       1.0000 0.63960  0.71720  0.12580  Biso   1.000  C
  H5       1.0000 0.62620  0.73680  0.18340  Biso   1.000  H
  C10      1.0000 0.69760  0.60890  0.12860  Biso   1.000  C
  C11      1.0000 0.60260  0.79520  0.02790  Biso   1.000  C
  H6       1.0000 0.60060  0.87110  0.00960  Biso   1.000  H
  C12      1.0000 0.76290  0.47350  0.78310  Biso   1.000  C
  H7       1.0000 0.79140  0.41360  0.75920  Biso   1.000  H
  C13      1.0000 0.68400  0.74630  0.96310  Biso   1.000  C
  H8       1.0000 0.69290  0.78730  0.89530  Biso   1.000  H
  N12      1.0000 0.77700  0.45110  0.86900  Biso   1.000  N
  C14      1.0000 0.70560  0.58540  0.71010  Biso   1.000  C
  C15      1.0000 0.69200  0.61310  0.61460  Biso   1.000  C
  H9       1.0000 0.71960  0.55920  0.58360  Biso   1.000  H
  C16      1.0000 0.84900  0.29840  0.03430  Biso   1.000  C
  H10      1.0000 0.82470  0.34520  0.07250  Biso   1.000  H
  C17      1.0000 0.60780  0.78650  0.61370  Biso   1.000  C
  H11      1.0000 0.59630  0.86400  0.59160  Biso   1.000  H
  C18      1.0000 0.63600  0.72700  0.55980  Biso   1.000  C
  H12      1.0000 0.62050  0.75730  0.48900  Biso   1.000  H
  S1       1.0000 0.76660  0.60680  0.01450  Biso   1.000  S
  S2       1.0000 0.70450  0.70160  0.73520  Biso   1.000  S
  S3       1.0000 0.62580  0.60690  0.01420  Biso   1.000  S
  C19      1.0000 0.56900  0.74570  0.96220  Biso   1.000  C
  H13      1.0000 0.51960  0.78640  0.89430  Biso   1.000  H
  S4       1.0000 0.59340  0.70150  0.73510  Biso   1.000  S
  Pd2      1.0000 0.51900  0.96200  0.61540  Biso   1.000  Pd
  Fe1      1.0000 0.99800  0.00300  0.64800  Biso   1.000  Fe
  Fe2      1.0000 0.00100  0.00200  0.84800  Biso   1.000  Fe
  Pd3      1.0000 0.52100  0.96000  0.91470  Biso   1.000  Pd
  Pd4      1.0000 0.51864  0.96266  0.26172  Biso   1.000  Pd
  C20      1.0000 0.32120  0.96080  0.16380  Biso   1.000  C
  N13      1.0000 0.81820  0.98100  0.41190  Biso   1.000  N
  N14      1.0000 0.20800  0.96760  0.10350  Biso   1.000  N
  C21      1.0000 0.71330  0.97150  0.35670  Biso   1.000  C
  C22      1.0000 0.31560  0.97150  0.35660  Biso   1.000  C
  N15      1.0000 0.20100  0.98100  0.41130  Biso   1.000  N
  N16      1.0000 0.07860  0.84270  0.01130  Biso   1.000  N
  N17      1.0000 0.08120  0.83820  0.57500  Biso   1.000  N
  C23      1.0000 0.71640  0.96070  0.16390  Biso   1.000  C
  N18      1.0000 0.11850  0.76320  0.52620  Biso   1.000  N
  C24      1.0000 0.25580  0.48920  0.78330  Biso   1.000  C
  H14      1.0000 0.26220  0.47970  0.72080  Biso   1.000  H
  N19      1.0000 0.16460  0.67120  0.68460  Biso   1.000  N
  C25      1.0000 0.16900  0.66300  0.59440  Biso   1.000  C
  H15      1.0000 0.20310  0.59530  0.58190  Biso   1.000  H
  C26      1.0000 0.11980  0.75700  0.09050  Biso   1.000  C
  H16      1.0000 0.11790  0.75850  0.15610  Biso   1.000  H
  C27      1.0000 0.11050  0.77990  0.67000  Biso   1.000  C
  H17      1.0000 0.09550  0.81000  0.72140  Biso   1.000  H
  N20      1.0000 0.20600  0.58860  0.78280  Biso   1.000  N
  N21      1.0000 0.16700  0.66340  0.06870  Biso   1.000  N
  N22      1.0000 0.10000  0.80510  0.92970  Biso   1.000  N
  N23      1.0000 0.82450  0.96770  0.10350  Biso   1.000  N
  C28      1.0000 0.36040  0.28280  0.87420  Biso   1.000  C
  H18      1.0000 0.37380  0.26320  0.81660  Biso   1.000  H
  C29      1.0000 0.30240  0.39110  0.87140  Biso   1.000  C
  C30      1.0000 0.39740  0.20480  0.97210  Biso   1.000  C
  H19      1.0000 0.39940  0.12890  0.99040  Biso   1.000  H
  C31      1.0000 0.23710  0.52650  0.21690  Biso   1.000  C
  H20      1.0000 0.20860  0.58640  0.24080  Biso   1.000  H
  C32      1.0000 0.31600  0.25370  0.03690  Biso   1.000  C
  H21      1.0000 0.30710  0.21270  0.10470  Biso   1.000  H
  N24      1.0000 0.22300  0.54890  0.13100  Biso   1.000  N
  C33      1.0000 0.29440  0.41460  0.28990  Biso   1.000  C
  C34      1.0000 0.30800  0.38690  0.38540  Biso   1.000  C
  H22      1.0000 0.28040  0.44080  0.41640  Biso   1.000  H
  C35      1.0000 0.15100  0.70160  0.96570  Biso   1.000  C
  H23      1.0000 0.17530  0.65480  0.92750  Biso   1.000  H
  C36      1.0000 0.39220  0.21350  0.38630  Biso   1.000  C
  H24      1.0000 0.40370  0.13600  0.40840  Biso   1.000  H
  C37      1.0000 0.36400  0.27300  0.44020  Biso   1.000  C
  H25      1.0000 0.37950  0.24270  0.51100  Biso   1.000  H
  S5       1.0000 0.23340  0.39320  0.98550  Biso   1.000  S
  S6       1.0000 0.29550  0.29840  0.26480  Biso   1.000  S
  S7       1.0000 0.37420  0.39310  0.98580  Biso   1.000  S
  C38      1.0000 0.43100  0.25430  0.03780  Biso   1.000  C
  H26      1.0000 0.48040  0.21360  0.10570  Biso   1.000  H
  S8       1.0000 0.40660  0.29850  0.26490  Biso   1.000  S
  Pd5      1.0000 0.48100  0.03800  0.38460  Biso   1.000  Pd
  Fe3      1.0000 0.00200  0.99700  0.35200  Biso   1.000  Fe
  Fe4      1.0000 0.99900  0.99800  0.15200  Biso   1.000  Fe
  Pd6      1.0000 0.47900  0.04000  0.08530  Biso   1.000  Pd
  Fe5      1.0000 0.00000  0.00000  0.50000  Biso   1.000  Fe
  Fe6      1.0000 0.00000  0.00000  0.00000  Biso   1.000  Fe
