data_image0
_cell_length_a       13.864
_cell_length_b       13.8737
_cell_length_c       21.1162
_cell_angle_alpha    90
_cell_angle_beta     102.531
_cell_angle_gamma    90

_symmetry_space_group_name_H-M    "P 1"
_symmetry_int_tables_number       1

loop_
  _symmetry_equiv_pos_as_xyz
  'x, y, z'

loop_
  _atom_site_label
  _atom_site_occupancy
  _atom_site_fract_x
  _atom_site_fract_y
  _atom_site_fract_z
  _atom_site_thermal_displace_type
  _atom_site_B_iso_or_equiv
  _atom_site_type_symbol
  Ni1      1.0000 0.28957  0.21753  0.75773  Biso   1.000  Ni
  S1       1.0000 0.35650  0.89470  0.69590  Biso   1.000  S
  S2       1.0000 0.24500  0.55690  0.78730  Biso   1.000  S
  S3       1.0000 0.37690  0.92180  0.67240  Biso   1.000  S
  S4       1.0000 0.19040  0.53900  0.74940  Biso   1.000  S
  S5       1.0000 0.18110  0.52950  0.78610  Biso   1.000  S
  N1       1.0000 0.43170  0.21710  0.81870  Biso   1.000  N
  N2       1.0000 0.72940  0.23980  0.00260  Biso   1.000  N
  N3       1.0000 0.82610  0.22590  0.03790  Biso   1.000  N
  N4       1.0000 0.14650  0.28470  0.19600  Biso   1.000  N
  N5       1.0000 0.23090  0.15760  0.83450  Biso   1.000  N
  N6       1.0000 0.01770  0.02600  0.97730  Biso   1.000  N
  N7       1.0000 0.34740  0.27570  0.68090  Biso   1.000  N
  N8       1.0000 0.49010  0.48500  0.52990  Biso   1.000  N
  N9       1.0000 0.31290  0.08210  0.72740  Biso   1.000  N
  N10      1.0000 0.26370  0.35380  0.78640  Biso   1.000  N
  C1       1.0000 0.50680  0.17100  0.80310  Biso   1.000  C
  H1       1.0000 0.49670  0.14080  0.76230  Biso   1.000  H
  C2       1.0000 0.59890  0.16500  0.84350  Biso   1.000  C
  H2       1.0000 0.65000  0.13140  0.83030  Biso   1.000  H
  C3       1.0000 0.61530  0.20870  0.90340  Biso   1.000  C
  C4       1.0000 0.53800  0.25820  0.92060  Biso   1.000  C
  H3       1.0000 0.54660  0.28910  0.96100  Biso   1.000  H
  C5       1.0000 0.44860  0.26120  0.87720  Biso   1.000  C
  H4       1.0000 0.39650  0.29560  0.88870  Biso   1.000  H
  C6       1.0000 0.71350  0.20270  0.94730  Biso   1.000  C
  H5       1.0000 0.76500  0.17060  0.93350  Biso   1.000  H
  C7       1.0000 0.85760  0.29190  0.07500  Biso   1.000  C
  H6       1.0000 0.81680  0.34520  0.07760  Biso   1.000  H
  C8       1.0000 0.10880  0.20840  0.15990  Biso   1.000  C
  H7       1.0000 0.14750  0.15230  0.16250  Biso   1.000  H
  C9       1.0000 0.01800  0.20790  0.11990  Biso   1.000  C
  H8       1.0000 0.99540  0.15280  0.09520  Biso   1.000  H
  C10      1.0000 0.95810  0.28950  0.11560  Biso   1.000  C
  C11      1.0000 0.99640  0.36660  0.15360  Biso   1.000  C
  H9       1.0000 0.95830  0.42270  0.15300  Biso   1.000  H
  C12      1.0000 0.08960  0.36280  0.19220  Biso   1.000  C
  H10      1.0000 0.11420  0.41730  0.21700  Biso   1.000  H
  C13      1.0000 0.15480  0.19430  0.85150  Biso   1.000  C
  H11      1.0000 0.12890  0.25320  0.83340  Biso   1.000  H
  C14      1.0000 0.10830  0.14590  0.89850  Biso   1.000  C
  H12      1.0000 0.05220  0.17160  0.91070  Biso   1.000  H
  C15      1.0000 0.14950  0.06300  0.92340  Biso   1.000  C
  C16      1.0000 0.22900  0.02560  0.90840  Biso   1.000  C
  H13      1.0000 0.25880  0.96930  0.92830  Biso   1.000  H
  C17      1.0000 0.26560  0.07400  0.86200  Biso   1.000  C
  H14      1.0000 0.31960  0.04610  0.84840  Biso   1.000  H
  C18      1.0000 0.10310  0.01020  0.97240  Biso   1.000  C
  H15      1.0000 0.14070  0.96420  0.99980  Biso   1.000  H
  C19      1.0000 0.32270  0.23930  0.62150  Biso   1.000  C
  H16      1.0000 0.28370  0.18340  0.61450  Biso   1.000  H
  C20      1.0000 0.35270  0.28110  0.56930  Biso   1.000  C
  H17      1.0000 0.33340  0.25420  0.52760  Biso   1.000  H
  C21      1.0000 0.41080  0.36240  0.57900  Biso   1.000  C
  C22      1.0000 0.43830  0.39900  0.64150  Biso   1.000  C
  H18      1.0000 0.47890  0.45380  0.65010  Biso   1.000  H
  C23      1.0000 0.40530  0.35400  0.69000  Biso   1.000  C
  H19      1.0000 0.42410  0.37920  0.73220  Biso   1.000  H
  C24      1.0000 0.44130  0.40830  0.52350  Biso   1.000  C
  H20      1.0000 0.42380  0.37930  0.48230  Biso   1.000  H
  C25      1.0000 0.33340  0.01080  0.71030  Biso   1.000  C
  C26      1.0000 0.24490  0.43400  0.78460  Biso   1.000  C
  Ni2      1.0000 0.71043  0.71753  0.74227  Biso   1.000  Ni
  S6       1.0000 0.64350  0.39470  0.80410  Biso   1.000  S
  S7       1.0000 0.75500  0.05690  0.71270  Biso   1.000  S
  S8       1.0000 0.62310  0.42180  0.82760  Biso   1.000  S
  S9       1.0000 0.80960  0.03900  0.75060  Biso   1.000  S
  S10      1.0000 0.81890  0.02950  0.71390  Biso   1.000  S
  N11      1.0000 0.56830  0.71710  0.68130  Biso   1.000  N
  N12      1.0000 0.27060  0.73980  0.49740  Biso   1.000  N
  N13      1.0000 0.17390  0.72590  0.46210  Biso   1.000  N
  N14      1.0000 0.85350  0.78470  0.30400  Biso   1.000  N
  N15      1.0000 0.76910  0.65760  0.66550  Biso   1.000  N
  N16      1.0000 0.98230  0.52600  0.52270  Biso   1.000  N
  N17      1.0000 0.65260  0.77570  0.81910  Biso   1.000  N
  N18      1.0000 0.50990  0.98500  0.97010  Biso   1.000  N
  N19      1.0000 0.68710  0.58210  0.77260  Biso   1.000  N
  N20      1.0000 0.73630  0.85380  0.71360  Biso   1.000  N
  C27      1.0000 0.49320  0.67100  0.69690  Biso   1.000  C
  H21      1.0000 0.50330  0.64080  0.73770  Biso   1.000  H
  C28      1.0000 0.40110  0.66500  0.65650  Biso   1.000  C
  H22      1.0000 0.35000  0.63140  0.66970  Biso   1.000  H
  C29      1.0000 0.38470  0.70870  0.59660  Biso   1.000  C
  C30      1.0000 0.46200  0.75820  0.57940  Biso   1.000  C
  H23      1.0000 0.45340  0.78910  0.53900  Biso   1.000  H
  C31      1.0000 0.55140  0.76120  0.62280  Biso   1.000  C
  H24      1.0000 0.60350  0.79560  0.61130  Biso   1.000  H
  C32      1.0000 0.28650  0.70270  0.55270  Biso   1.000  C
  H25      1.0000 0.23500  0.67060  0.56650  Biso   1.000  H
  C33      1.0000 0.14240  0.79190  0.42500  Biso   1.000  C
  H26      1.0000 0.18320  0.84520  0.42240  Biso   1.000  H
  C34      1.0000 0.89120  0.70840  0.34010  Biso   1.000  C
  H27      1.0000 0.85250  0.65230  0.33750  Biso   1.000  H
  C35      1.0000 0.98200  0.70790  0.38010  Biso   1.000  C
  H28      1.0000 0.00460  0.65280  0.40480  Biso   1.000  H
  C36      1.0000 0.04190  0.78950  0.38440  Biso   1.000  C
  C37      1.0000 0.00360  0.86660  0.34640  Biso   1.000  C
  H29      1.0000 0.04170  0.92270  0.34700  Biso   1.000  H
  C38      1.0000 0.91040  0.86280  0.30780  Biso   1.000  C
  H30      1.0000 0.88580  0.91730  0.28300  Biso   1.000  H
  C39      1.0000 0.84520  0.69430  0.64850  Biso   1.000  C
  H31      1.0000 0.87110  0.75320  0.66660  Biso   1.000  H
  C40      1.0000 0.89170  0.64590  0.60150  Biso   1.000  C
  H32      1.0000 0.94780  0.67160  0.58930  Biso   1.000  H
  C41      1.0000 0.85050  0.56300  0.57660  Biso   1.000  C
  C42      1.0000 0.77100  0.52560  0.59160  Biso   1.000  C
  H33      1.0000 0.74120  0.46930  0.57170  Biso   1.000  H
  C43      1.0000 0.73440  0.57400  0.63800  Biso   1.000  C
  H34      1.0000 0.68040  0.54610  0.65160  Biso   1.000  H
  C44      1.0000 0.89690  0.51020  0.52760  Biso   1.000  C
  H35      1.0000 0.85930  0.46420  0.50020  Biso   1.000  H
  C45      1.0000 0.67730  0.73930  0.87850  Biso   1.000  C
  H36      1.0000 0.71630  0.68340  0.88550  Biso   1.000  H
  C46      1.0000 0.64730  0.78110  0.93070  Biso   1.000  C
  H37      1.0000 0.66660  0.75420  0.97240  Biso   1.000  H
  C47      1.0000 0.58920  0.86240  0.92100  Biso   1.000  C
  C48      1.0000 0.56170  0.89900  0.85850  Biso   1.000  C
  H38      1.0000 0.52110  0.95380  0.84990  Biso   1.000  H
  C49      1.0000 0.59470  0.85400  0.81000  Biso   1.000  C
  H39      1.0000 0.57590  0.87920  0.76780  Biso   1.000  H
  C50      1.0000 0.55870  0.90830  0.97650  Biso   1.000  C
  H40      1.0000 0.57620  0.87930  0.01770  Biso   1.000  H
  C51      1.0000 0.66660  0.51080  0.78970  Biso   1.000  C
  C52      1.0000 0.75510  0.93400  0.71540  Biso   1.000  C
  Ni3      1.0000 0.71043  0.78247  0.24227  Biso   1.000  Ni
  S11      1.0000 0.64350  0.10530  0.30410  Biso   1.000  S
  S12      1.0000 0.75500  0.44310  0.21270  Biso   1.000  S
  S13      1.0000 0.62310  0.07820  0.32760  Biso   1.000  S
  S14      1.0000 0.80960  0.46100  0.25060  Biso   1.000  S
  S15      1.0000 0.81890  0.47050  0.21390  Biso   1.000  S
  N21      1.0000 0.56830  0.78290  0.18130  Biso   1.000  N
  N22      1.0000 0.27060  0.76020  0.99740  Biso   1.000  N
  N23      1.0000 0.17390  0.77410  0.96210  Biso   1.000  N
  N24      1.0000 0.85350  0.71530  0.80400  Biso   1.000  N
  N25      1.0000 0.76910  0.84240  0.16550  Biso   1.000  N
  N26      1.0000 0.98230  0.97400  0.02270  Biso   1.000  N
  N27      1.0000 0.65260  0.72430  0.31910  Biso   1.000  N
  N28      1.0000 0.50990  0.51500  0.47010  Biso   1.000  N
  N29      1.0000 0.68710  0.91790  0.27260  Biso   1.000  N
  N30      1.0000 0.73630  0.64620  0.21360  Biso   1.000  N
  C53      1.0000 0.49320  0.82900  0.19690  Biso   1.000  C
  H41      1.0000 0.50330  0.85920  0.23770  Biso   1.000  H
  C54      1.0000 0.40110  0.83500  0.15650  Biso   1.000  C
  H42      1.0000 0.35000  0.86860  0.16970  Biso   1.000  H
  C55      1.0000 0.38470  0.79130  0.09660  Biso   1.000  C
  C56      1.0000 0.46200  0.74180  0.07940  Biso   1.000  C
  H43      1.0000 0.45340  0.71090  0.03900  Biso   1.000  H
  C57      1.0000 0.55140  0.73880  0.12280  Biso   1.000  C
  H44      1.0000 0.60350  0.70440  0.11130  Biso   1.000  H
  C58      1.0000 0.28650  0.79730  0.05270  Biso   1.000  C
  H45      1.0000 0.23500  0.82940  0.06650  Biso   1.000  H
  C59      1.0000 0.14240  0.70810  0.92500  Biso   1.000  C
  H46      1.0000 0.18320  0.65480  0.92240  Biso   1.000  H
  C60      1.0000 0.89120  0.79160  0.84010  Biso   1.000  C
  H47      1.0000 0.85250  0.84770  0.83750  Biso   1.000  H
  C61      1.0000 0.98200  0.79210  0.88010  Biso   1.000  C
  H48      1.0000 0.00460  0.84720  0.90480  Biso   1.000  H
  C62      1.0000 0.04190  0.71050  0.88440  Biso   1.000  C
  C63      1.0000 0.00360  0.63340  0.84640  Biso   1.000  C
  H49      1.0000 0.04170  0.57730  0.84700  Biso   1.000  H
  C64      1.0000 0.91040  0.63720  0.80780  Biso   1.000  C
  H50      1.0000 0.88580  0.58270  0.78300  Biso   1.000  H
  C65      1.0000 0.84520  0.80570  0.14850  Biso   1.000  C
  H51      1.0000 0.87110  0.74680  0.16660  Biso   1.000  H
  C66      1.0000 0.89170  0.85410  0.10150  Biso   1.000  C
  H52      1.0000 0.94780  0.82840  0.08930  Biso   1.000  H
  C67      1.0000 0.85050  0.93700  0.07660  Biso   1.000  C
  C68      1.0000 0.77100  0.97440  0.09160  Biso   1.000  C
  H53      1.0000 0.74120  0.03070  0.07170  Biso   1.000  H
  C69      1.0000 0.73440  0.92600  0.13800  Biso   1.000  C
  H54      1.0000 0.68040  0.95390  0.15160  Biso   1.000  H
  C70      1.0000 0.89690  0.98980  0.02760  Biso   1.000  C
  H55      1.0000 0.85930  0.03580  0.00020  Biso   1.000  H
  C71      1.0000 0.67730  0.76070  0.37850  Biso   1.000  C
  H56      1.0000 0.71630  0.81660  0.38550  Biso   1.000  H
  C72      1.0000 0.64730  0.71890  0.43070  Biso   1.000  C
  H57      1.0000 0.66660  0.74580  0.47240  Biso   1.000  H
  C73      1.0000 0.58920  0.63760  0.42100  Biso   1.000  C
  C74      1.0000 0.56170  0.60100  0.35850  Biso   1.000  C
  H58      1.0000 0.52110  0.54620  0.34990  Biso   1.000  H
  C75      1.0000 0.59470  0.64600  0.31000  Biso   1.000  C
  H59      1.0000 0.57590  0.62080  0.26780  Biso   1.000  H
  C76      1.0000 0.55870  0.59170  0.47650  Biso   1.000  C
  H60      1.0000 0.57620  0.62070  0.51770  Biso   1.000  H
  C77      1.0000 0.66660  0.98920  0.28970  Biso   1.000  C
  C78      1.0000 0.75510  0.56600  0.21540  Biso   1.000  C
  Ni4      1.0000 0.28957  0.28247  0.25773  Biso   1.000  Ni
  S16      1.0000 0.35650  0.60530  0.19590  Biso   1.000  S
  S17      1.0000 0.24500  0.94310  0.28730  Biso   1.000  S
  S18      1.0000 0.37690  0.57820  0.17240  Biso   1.000  S
  S19      1.0000 0.19040  0.96100  0.24940  Biso   1.000  S
  S20      1.0000 0.18110  0.97050  0.28610  Biso   1.000  S
  N31      1.0000 0.43170  0.28290  0.31870  Biso   1.000  N
  N32      1.0000 0.72940  0.26020  0.50260  Biso   1.000  N
  N33      1.0000 0.82610  0.27410  0.53790  Biso   1.000  N
  N34      1.0000 0.14650  0.21530  0.69600  Biso   1.000  N
  N35      1.0000 0.23090  0.34240  0.33450  Biso   1.000  N
  N36      1.0000 0.01770  0.47400  0.47730  Biso   1.000  N
  N37      1.0000 0.34740  0.22430  0.18090  Biso   1.000  N
  N38      1.0000 0.49010  0.01500  0.02990  Biso   1.000  N
  N39      1.0000 0.31290  0.41790  0.22740  Biso   1.000  N
  N40      1.0000 0.26370  0.14620  0.28640  Biso   1.000  N
  C79      1.0000 0.50680  0.32900  0.30310  Biso   1.000  C
  H61      1.0000 0.49670  0.35920  0.26230  Biso   1.000  H
  C80      1.0000 0.59890  0.33500  0.34350  Biso   1.000  C
  H62      1.0000 0.65000  0.36860  0.33030  Biso   1.000  H
  C81      1.0000 0.61530  0.29130  0.40340  Biso   1.000  C
  C82      1.0000 0.53800  0.24180  0.42060  Biso   1.000  C
  H63      1.0000 0.54660  0.21090  0.46100  Biso   1.000  H
  C83      1.0000 0.44860  0.23880  0.37720  Biso   1.000  C
  H64      1.0000 0.39650  0.20440  0.38870  Biso   1.000  H
  C84      1.0000 0.71350  0.29730  0.44730  Biso   1.000  C
  H65      1.0000 0.76500  0.32940  0.43350  Biso   1.000  H
  C85      1.0000 0.85760  0.20810  0.57500  Biso   1.000  C
  H66      1.0000 0.81680  0.15480  0.57760  Biso   1.000  H
  C86      1.0000 0.10880  0.29160  0.65990  Biso   1.000  C
  H67      1.0000 0.14750  0.34770  0.66250  Biso   1.000  H
  C87      1.0000 0.01800  0.29210  0.61990  Biso   1.000  C
  H68      1.0000 0.99540  0.34720  0.59520  Biso   1.000  H
  C88      1.0000 0.95810  0.21050  0.61560  Biso   1.000  C
  C89      1.0000 0.99640  0.13340  0.65360  Biso   1.000  C
  H69      1.0000 0.95830  0.07730  0.65300  Biso   1.000  H
  C90      1.0000 0.08960  0.13720  0.69220  Biso   1.000  C
  H70      1.0000 0.11420  0.08270  0.71700  Biso   1.000  H
  C91      1.0000 0.15480  0.30570  0.35150  Biso   1.000  C
  H71      1.0000 0.12890  0.24680  0.33340  Biso   1.000  H
  C92      1.0000 0.10830  0.35410  0.39850  Biso   1.000  C
  H72      1.0000 0.05220  0.32840  0.41070  Biso   1.000  H
  C93      1.0000 0.14950  0.43700  0.42340  Biso   1.000  C
  C94      1.0000 0.22900  0.47440  0.40840  Biso   1.000  C
  H73      1.0000 0.25880  0.53070  0.42830  Biso   1.000  H
  C95      1.0000 0.26560  0.42600  0.36200  Biso   1.000  C
  H74      1.0000 0.31960  0.45390  0.34840  Biso   1.000  H
  C96      1.0000 0.10310  0.48980  0.47240  Biso   1.000  C
  H75      1.0000 0.14070  0.53580  0.49980  Biso   1.000  H
  C97      1.0000 0.32270  0.26070  0.12150  Biso   1.000  C
  H76      1.0000 0.28370  0.31660  0.11450  Biso   1.000  H
  C98      1.0000 0.35270  0.21890  0.06930  Biso   1.000  C
  H77      1.0000 0.33340  0.24580  0.02760  Biso   1.000  H
  C99      1.0000 0.41080  0.13760  0.07900  Biso   1.000  C
  C100     1.0000 0.43830  0.10100  0.14150  Biso   1.000  C
  H78      1.0000 0.47890  0.04620  0.15010  Biso   1.000  H
  C101     1.0000 0.40530  0.14600  0.19000  Biso   1.000  C
  H79      1.0000 0.42410  0.12080  0.23220  Biso   1.000  H
  C102     1.0000 0.44130  0.09170  0.02350  Biso   1.000  C
  H80      1.0000 0.42380  0.12070  0.98230  Biso   1.000  H
  C103     1.0000 0.33340  0.48920  0.21030  Biso   1.000  C
  C104     1.0000 0.24490  0.06600  0.28460  Biso   1.000  C
