data_image0
_cell_length_a       21.6461
_cell_length_b       11.5792
_cell_length_c       19.7016
_cell_angle_alpha    90
_cell_angle_beta     93.866
_cell_angle_gamma    90

_symmetry_space_group_name_H-M    "P 1"
_symmetry_int_tables_number       1

loop_
  _symmetry_equiv_pos_as_xyz
  'x, y, z'

loop_
  _atom_site_label
  _atom_site_occupancy
  _atom_site_fract_x
  _atom_site_fract_y
  _atom_site_fract_z
  _atom_site_thermal_displace_type
  _atom_site_B_iso_or_equiv
  _atom_site_type_symbol
  Co1      1.0000 0.15118  0.34623  0.68016  Biso   1.000  Co
  Co2      1.0000 0.06187  0.19230  0.55659  Biso   1.000  Co
  N1       1.0000 0.38300  0.28550  0.45280  Biso   1.000  N
  H1       1.0000 0.39580  0.29390  0.49580  Biso   1.000  H
  N2       1.0000 0.78440  0.45700  0.63650  Biso   1.000  N
  H2       1.0000 0.75420  0.47370  0.66270  Biso   1.000  H
  N3       1.0000 0.17660  0.52420  0.69440  Biso   1.000  N
  N4       1.0000 0.11360  0.05720  0.51390  Biso   1.000  N
  O1       1.0000 0.19972  0.34000  0.59496  Biso   1.000  O
  O2       1.0000 0.11704  0.31810  0.52230  Biso   1.000  O
  O3       1.0000 0.14180  0.18240  0.28841  Biso   1.000  O
  O4       1.0000 0.23155  0.20560  0.24488  Biso   1.000  O
  O5       1.0000 0.41520  0.29000  0.34330  Biso   1.000  O
  O6       1.0000 0.80415  0.40130  0.53060  Biso   1.000  O
  O7       1.0000 0.00088  0.30720  0.59580  Biso   1.000  O
  O8       1.0000 0.06293  0.40360  0.67065  Biso   1.000  O
  O9       1.0000 0.96670  0.57920  0.86660  Biso   1.000  O
  O10      1.0000 0.87912  0.67190  0.84627  Biso   1.000  O
  C1       1.0000 0.17460  0.32070  0.53660  Biso   1.000  C
  C2       1.0000 0.19830  0.20670  0.29500  Biso   1.000  C
  C3       1.0000 0.21590  0.29650  0.47940  Biso   1.000  C
  C4       1.0000 0.18920  0.26400  0.41640  Biso   1.000  C
  H3       1.0000 0.14540  0.25840  0.40900  Biso   1.000  H
  C5       1.0000 0.22720  0.23990  0.36400  Biso   1.000  C
  C6       1.0000 0.29110  0.24680  0.37400  Biso   1.000  C
  H4       1.0000 0.31640  0.23040  0.33770  Biso   1.000  H
  C7       1.0000 0.31800  0.27790  0.43790  Biso   1.000  C
  C8       1.0000 0.28010  0.30200  0.49040  Biso   1.000  C
  H5       1.0000 0.29820  0.32240  0.53400  Biso   1.000  H
  C9       1.0000 0.42710  0.28120  0.40780  Biso   1.000  C
  C10      1.0000 0.49340  0.29670  0.43580  Biso   1.000  C
  C11      1.0000 0.53890  0.26690  0.39160  Biso   1.000  C
  H6       1.0000 0.52720  0.23620  0.34790  Biso   1.000  H
  C12      1.0000 0.60060  0.28210  0.41160  Biso   1.000  C
  H7       1.0000 0.63120  0.25850  0.38210  Biso   1.000  H
  C13      1.0000 0.61910  0.33160  0.47430  Biso   1.000  C
  C14      1.0000 0.68150  0.35300  0.49560  Biso   1.000  C
  H8       1.0000 0.71270  0.33110  0.46650  Biso   1.000  H
  C15      1.0000 0.69870  0.40420  0.55650  Biso   1.000  C
  C16      1.0000 0.65280  0.43900  0.59790  Biso   1.000  C
  H9       1.0000 0.66420  0.47530  0.64020  Biso   1.000  H
  C17      1.0000 0.59190  0.42190  0.57910  Biso   1.000  C
  H10      1.0000 0.56150  0.44850  0.60790  Biso   1.000  H
  C18      1.0000 0.57270  0.36580  0.51770  Biso   1.000  C
  C19      1.0000 0.50990  0.34760  0.49540  Biso   1.000  C
  H11      1.0000 0.47850  0.37230  0.52350  Biso   1.000  H
  C20      1.0000 0.76740  0.42090  0.57340  Biso   1.000  C
  C21      1.0000 0.84550  0.47130  0.66580  Biso   1.000  C
  C22      1.0000 0.89750  0.42100  0.63830  Biso   1.000  C
  H12      1.0000 0.89300  0.37930  0.59670  Biso   1.000  H
  C23      1.0000 0.95550  0.43260  0.67240  Biso   1.000  C
  C24      1.0000 0.96260  0.49310  0.73330  Biso   1.000  C
  H13      1.0000 0.00260  0.50080  0.75600  Biso   1.000  H
  C25      1.0000 0.91170  0.54220  0.76100  Biso   1.000  C
  C26      1.0000 0.85350  0.53290  0.72680  Biso   1.000  C
  H14      1.0000 0.81880  0.56880  0.74510  Biso   1.000  H
  C27      1.0000 0.01090  0.37520  0.64400  Biso   1.000  C
  C28      1.0000 0.91980  0.60200  0.82790  Biso   1.000  C
  C29      1.0000 0.19760  0.58950  0.64640  Biso   1.000  C
  H15      1.0000 0.20570  0.55330  0.60460  Biso   1.000  H
  C30      1.0000 0.20880  0.70550  0.65210  Biso   1.000  C
  H16      1.0000 0.22040  0.74920  0.61410  Biso   1.000  H
  C31      1.0000 0.20290  0.75710  0.71400  Biso   1.000  C
  H17      1.0000 0.21780  0.83300  0.72340  Biso   1.000  H
  C32      1.0000 0.17440  0.69390  0.76140  Biso   1.000  C
  H18      1.0000 0.16270  0.72960  0.80210  Biso   1.000  H
  C33      1.0000 0.16260  0.57870  0.75020  Biso   1.000  C
  H19      1.0000 0.14340  0.53610  0.78430  Biso   1.000  H
  C34      1.0000 0.08800  0.99340  0.46130  Biso   1.000  C
  H20      1.0000 0.04720  0.01270  0.44410  Biso   1.000  H
  C35      1.0000 0.11730  0.90220  0.43110  Biso   1.000  C
  H21      1.0000 0.09730  0.85980  0.39460  Biso   1.000  H
  C36      1.0000 0.17600  0.87580  0.45580  Biso   1.000  C
  H22      1.0000 0.19710  0.81210  0.43770  Biso   1.000  H
  C37      1.0000 0.20510  0.94280  0.50780  Biso   1.000  C
  H23      1.0000 0.24700  0.93050  0.52370  Biso   1.000  H
  C38      1.0000 0.16890  0.02830  0.53490  Biso   1.000  C
  H24      1.0000 0.18690  0.06960  0.57290  Biso   1.000  H
  O11      1.0000 0.41920  0.20900  0.35690  Biso   1.000  O
  Co3      1.0000 0.84882  0.84623  0.81984  Biso   1.000  Co
  Co4      1.0000 0.93813  0.69230  0.94341  Biso   1.000  Co
  N5       1.0000 0.61700  0.78550  0.04720  Biso   1.000  N
  H25      1.0000 0.60420  0.79390  0.00420  Biso   1.000  H
  N6       1.0000 0.21560  0.95700  0.86350  Biso   1.000  N
  H26      1.0000 0.24580  0.97370  0.83730  Biso   1.000  H
  N7       1.0000 0.82340  0.02420  0.80560  Biso   1.000  N
  N8       1.0000 0.88640  0.55720  0.98610  Biso   1.000  N
  O12      1.0000 0.80028  0.84000  0.90504  Biso   1.000  O
  O13      1.0000 0.88296  0.81810  0.97770  Biso   1.000  O
  O14      1.0000 0.85820  0.68240  0.21159  Biso   1.000  O
  O15      1.0000 0.76845  0.70560  0.25512  Biso   1.000  O
  O16      1.0000 0.58480  0.79000  0.15670  Biso   1.000  O
  O17      1.0000 0.19585  0.90130  0.96940  Biso   1.000  O
  O18      1.0000 0.99912  0.80720  0.90420  Biso   1.000  O
  O19      1.0000 0.93707  0.90360  0.82935  Biso   1.000  O
  O20      1.0000 0.03330  0.07920  0.63340  Biso   1.000  O
  O21      1.0000 0.12088  0.17190  0.65373  Biso   1.000  O
  C39      1.0000 0.82540  0.82070  0.96340  Biso   1.000  C
  C40      1.0000 0.80170  0.70670  0.20500  Biso   1.000  C
  C41      1.0000 0.78410  0.79650  0.02060  Biso   1.000  C
  C42      1.0000 0.81080  0.76400  0.08360  Biso   1.000  C
  H27      1.0000 0.85460  0.75840  0.09100  Biso   1.000  H
  C43      1.0000 0.77280  0.73990  0.13600  Biso   1.000  C
  C44      1.0000 0.70890  0.74680  0.12600  Biso   1.000  C
  H28      1.0000 0.68360  0.73040  0.16230  Biso   1.000  H
  C45      1.0000 0.68200  0.77790  0.06210  Biso   1.000  C
  C46      1.0000 0.71990  0.80200  0.00960  Biso   1.000  C
  H29      1.0000 0.70180  0.82240  0.96600  Biso   1.000  H
  C47      1.0000 0.57290  0.78120  0.09220  Biso   1.000  C
  C48      1.0000 0.50660  0.79670  0.06420  Biso   1.000  C
  C49      1.0000 0.46110  0.76690  0.10840  Biso   1.000  C
  H30      1.0000 0.47280  0.73620  0.15210  Biso   1.000  H
  C50      1.0000 0.39940  0.78210  0.08840  Biso   1.000  C
  H31      1.0000 0.36880  0.75850  0.11790  Biso   1.000  H
  C51      1.0000 0.38090  0.83160  0.02570  Biso   1.000  C
  C52      1.0000 0.31850  0.85300  0.00440  Biso   1.000  C
  H32      1.0000 0.28730  0.83110  0.03350  Biso   1.000  H
  C53      1.0000 0.30130  0.90420  0.94350  Biso   1.000  C
  C54      1.0000 0.34720  0.93900  0.90210  Biso   1.000  C
  H33      1.0000 0.33580  0.97530  0.85980  Biso   1.000  H
  C55      1.0000 0.40810  0.92190  0.92090  Biso   1.000  C
  H34      1.0000 0.43850  0.94850  0.89210  Biso   1.000  H
  C56      1.0000 0.42730  0.86580  0.98230  Biso   1.000  C
  C57      1.0000 0.49010  0.84760  0.00460  Biso   1.000  C
  H35      1.0000 0.52150  0.87230  0.97650  Biso   1.000  H
  C58      1.0000 0.23260  0.92090  0.92660  Biso   1.000  C
  C59      1.0000 0.15450  0.97130  0.83420  Biso   1.000  C
  C60      1.0000 0.10250  0.92100  0.86170  Biso   1.000  C
  H36      1.0000 0.10700  0.87930  0.90330  Biso   1.000  H
  C61      1.0000 0.04450  0.93260  0.82760  Biso   1.000  C
  C62      1.0000 0.03740  0.99310  0.76670  Biso   1.000  C
  H37      1.0000 0.99740  0.00080  0.74400  Biso   1.000  H
  C63      1.0000 0.08830  0.04220  0.73900  Biso   1.000  C
  C64      1.0000 0.14650  0.03290  0.77320  Biso   1.000  C
  H38      1.0000 0.18120  0.06880  0.75490  Biso   1.000  H
  C65      1.0000 0.98910  0.87520  0.85600  Biso   1.000  C
  C66      1.0000 0.08020  0.10200  0.67210  Biso   1.000  C
  C67      1.0000 0.80240  0.08950  0.85360  Biso   1.000  C
  H39      1.0000 0.79430  0.05330  0.89540  Biso   1.000  H
  C68      1.0000 0.79120  0.20550  0.84790  Biso   1.000  C
  H40      1.0000 0.77960  0.24920  0.88590  Biso   1.000  H
  C69      1.0000 0.79710  0.25710  0.78600  Biso   1.000  C
  H41      1.0000 0.78220  0.33300  0.77660  Biso   1.000  H
  C70      1.0000 0.82560  0.19390  0.73860  Biso   1.000  C
  H42      1.0000 0.83730  0.22960  0.69790  Biso   1.000  H
  C71      1.0000 0.83740  0.07870  0.74980  Biso   1.000  C
  H43      1.0000 0.85660  0.03610  0.71570  Biso   1.000  H
  C72      1.0000 0.91200  0.49340  0.03870  Biso   1.000  C
  H44      1.0000 0.95280  0.51270  0.05590  Biso   1.000  H
  C73      1.0000 0.88270  0.40220  0.06890  Biso   1.000  C
  H45      1.0000 0.90270  0.35980  0.10540  Biso   1.000  H
  C74      1.0000 0.82400  0.37580  0.04420  Biso   1.000  C
  H46      1.0000 0.80290  0.31210  0.06230  Biso   1.000  H
  C75      1.0000 0.79490  0.44280  0.99220  Biso   1.000  C
  H47      1.0000 0.75300  0.43050  0.97630  Biso   1.000  H
  C76      1.0000 0.83110  0.52830  0.96510  Biso   1.000  C
  H48      1.0000 0.81310  0.56960  0.92710  Biso   1.000  H
  O22      1.0000 0.58080  0.70900  0.14310  Biso   1.000  O
  Co5      1.0000 0.84882  0.65377  0.31984  Biso   1.000  Co
  Co6      1.0000 0.93813  0.80770  0.44341  Biso   1.000  Co
  N9       1.0000 0.61700  0.71450  0.54720  Biso   1.000  N
  H49      1.0000 0.60420  0.70610  0.50420  Biso   1.000  H
  N10      1.0000 0.21560  0.54300  0.36350  Biso   1.000  N
  H50      1.0000 0.24580  0.52630  0.33730  Biso   1.000  H
  N11      1.0000 0.82340  0.47580  0.30560  Biso   1.000  N
  N12      1.0000 0.88640  0.94280  0.48610  Biso   1.000  N
  O23      1.0000 0.80028  0.66000  0.40504  Biso   1.000  O
  O24      1.0000 0.88296  0.68190  0.47770  Biso   1.000  O
  O25      1.0000 0.85820  0.81760  0.71159  Biso   1.000  O
  O26      1.0000 0.76845  0.79440  0.75512  Biso   1.000  O
  O27      1.0000 0.58480  0.71000  0.65670  Biso   1.000  O
  O28      1.0000 0.19585  0.59870  0.46940  Biso   1.000  O
  O29      1.0000 0.99912  0.69280  0.40420  Biso   1.000  O
  O30      1.0000 0.93707  0.59640  0.32935  Biso   1.000  O
  O31      1.0000 0.03330  0.42080  0.13340  Biso   1.000  O
  O32      1.0000 0.12088  0.32810  0.15373  Biso   1.000  O
  C77      1.0000 0.82540  0.67930  0.46340  Biso   1.000  C
  C78      1.0000 0.80170  0.79330  0.70500  Biso   1.000  C
  C79      1.0000 0.78410  0.70350  0.52060  Biso   1.000  C
  C80      1.0000 0.81080  0.73600  0.58360  Biso   1.000  C
  H51      1.0000 0.85460  0.74160  0.59100  Biso   1.000  H
  C81      1.0000 0.77280  0.76010  0.63600  Biso   1.000  C
  C82      1.0000 0.70890  0.75320  0.62600  Biso   1.000  C
  H52      1.0000 0.68360  0.76960  0.66230  Biso   1.000  H
  C83      1.0000 0.68200  0.72210  0.56210  Biso   1.000  C
  C84      1.0000 0.71990  0.69800  0.50960  Biso   1.000  C
  H53      1.0000 0.70180  0.67760  0.46600  Biso   1.000  H
  C85      1.0000 0.57290  0.71880  0.59220  Biso   1.000  C
  C86      1.0000 0.50660  0.70330  0.56420  Biso   1.000  C
  C87      1.0000 0.46110  0.73310  0.60840  Biso   1.000  C
  H54      1.0000 0.47280  0.76380  0.65210  Biso   1.000  H
  C88      1.0000 0.39940  0.71790  0.58840  Biso   1.000  C
  H55      1.0000 0.36880  0.74150  0.61790  Biso   1.000  H
  C89      1.0000 0.38090  0.66840  0.52570  Biso   1.000  C
  C90      1.0000 0.31850  0.64700  0.50440  Biso   1.000  C
  H56      1.0000 0.28730  0.66890  0.53350  Biso   1.000  H
  C91      1.0000 0.30130  0.59580  0.44350  Biso   1.000  C
  C92      1.0000 0.34720  0.56100  0.40210  Biso   1.000  C
  H57      1.0000 0.33580  0.52470  0.35980  Biso   1.000  H
  C93      1.0000 0.40810  0.57810  0.42090  Biso   1.000  C
  H58      1.0000 0.43850  0.55150  0.39210  Biso   1.000  H
  C94      1.0000 0.42730  0.63420  0.48230  Biso   1.000  C
  C95      1.0000 0.49010  0.65240  0.50460  Biso   1.000  C
  H59      1.0000 0.52150  0.62770  0.47650  Biso   1.000  H
  C96      1.0000 0.23260  0.57910  0.42660  Biso   1.000  C
  C97      1.0000 0.15450  0.52870  0.33420  Biso   1.000  C
  C98      1.0000 0.10250  0.57900  0.36170  Biso   1.000  C
  H60      1.0000 0.10700  0.62070  0.40330  Biso   1.000  H
  C99      1.0000 0.04450  0.56740  0.32760  Biso   1.000  C
  C100     1.0000 0.03740  0.50690  0.26670  Biso   1.000  C
  H61      1.0000 0.99740  0.49920  0.24400  Biso   1.000  H
  C101     1.0000 0.08830  0.45780  0.23900  Biso   1.000  C
  C102     1.0000 0.14650  0.46710  0.27320  Biso   1.000  C
  H62      1.0000 0.18120  0.43120  0.25490  Biso   1.000  H
  C103     1.0000 0.98910  0.62480  0.35600  Biso   1.000  C
  C104     1.0000 0.08020  0.39800  0.17210  Biso   1.000  C
  C105     1.0000 0.80240  0.41050  0.35360  Biso   1.000  C
  H63      1.0000 0.79430  0.44670  0.39540  Biso   1.000  H
  C106     1.0000 0.79120  0.29450  0.34790  Biso   1.000  C
  H64      1.0000 0.77960  0.25080  0.38590  Biso   1.000  H
  C107     1.0000 0.79710  0.24290  0.28600  Biso   1.000  C
  H65      1.0000 0.78220  0.16700  0.27660  Biso   1.000  H
  C108     1.0000 0.82560  0.30610  0.23860  Biso   1.000  C
  H66      1.0000 0.83730  0.27040  0.19790  Biso   1.000  H
  C109     1.0000 0.83740  0.42130  0.24980  Biso   1.000  C
  H67      1.0000 0.85660  0.46390  0.21570  Biso   1.000  H
  C110     1.0000 0.91200  0.00660  0.53870  Biso   1.000  C
  H68      1.0000 0.95280  0.98730  0.55590  Biso   1.000  H
  C111     1.0000 0.88270  0.09780  0.56890  Biso   1.000  C
  H69      1.0000 0.90270  0.14020  0.60540  Biso   1.000  H
  C112     1.0000 0.82400  0.12420  0.54420  Biso   1.000  C
  H70      1.0000 0.80290  0.18790  0.56230  Biso   1.000  H
  C113     1.0000 0.79490  0.05720  0.49220  Biso   1.000  C
  H71      1.0000 0.75300  0.06950  0.47630  Biso   1.000  H
  C114     1.0000 0.83110  0.97170  0.46510  Biso   1.000  C
  H72      1.0000 0.81310  0.93040  0.42710  Biso   1.000  H
  O33      1.0000 0.58080  0.79100  0.64310  Biso   1.000  O
  Co7      1.0000 0.15118  0.15377  0.18016  Biso   1.000  Co
  Co8      1.0000 0.06187  0.30770  0.05659  Biso   1.000  Co
  N13      1.0000 0.38300  0.21450  0.95280  Biso   1.000  N
  H73      1.0000 0.39580  0.20610  0.99580  Biso   1.000  H
  N14      1.0000 0.78440  0.04300  0.13650  Biso   1.000  N
  H74      1.0000 0.75420  0.02630  0.16270  Biso   1.000  H
  N15      1.0000 0.17660  0.97580  0.19440  Biso   1.000  N
  N16      1.0000 0.11360  0.44280  0.01390  Biso   1.000  N
  O34      1.0000 0.19972  0.16000  0.09496  Biso   1.000  O
  O35      1.0000 0.11704  0.18190  0.02230  Biso   1.000  O
  O36      1.0000 0.14180  0.31760  0.78841  Biso   1.000  O
  O37      1.0000 0.23155  0.29440  0.74488  Biso   1.000  O
  O38      1.0000 0.41520  0.21000  0.84330  Biso   1.000  O
  O39      1.0000 0.80415  0.09870  0.03060  Biso   1.000  O
  O40      1.0000 0.00088  0.19280  0.09580  Biso   1.000  O
  O41      1.0000 0.06293  0.09640  0.17065  Biso   1.000  O
  O42      1.0000 0.96670  0.92080  0.36660  Biso   1.000  O
  O43      1.0000 0.87912  0.82810  0.34627  Biso   1.000  O
  C115     1.0000 0.17460  0.17930  0.03660  Biso   1.000  C
  C116     1.0000 0.19830  0.29330  0.79500  Biso   1.000  C
  C117     1.0000 0.21590  0.20350  0.97940  Biso   1.000  C
  C118     1.0000 0.18920  0.23600  0.91640  Biso   1.000  C
  H75      1.0000 0.14540  0.24160  0.90900  Biso   1.000  H
  C119     1.0000 0.22720  0.26010  0.86400  Biso   1.000  C
  C120     1.0000 0.29110  0.25320  0.87400  Biso   1.000  C
  H76      1.0000 0.31640  0.26960  0.83770  Biso   1.000  H
  C121     1.0000 0.31800  0.22210  0.93790  Biso   1.000  C
  C122     1.0000 0.28010  0.19800  0.99040  Biso   1.000  C
  H77      1.0000 0.29820  0.17760  0.03400  Biso   1.000  H
  C123     1.0000 0.42710  0.21880  0.90780  Biso   1.000  C
  C124     1.0000 0.49340  0.20330  0.93580  Biso   1.000  C
  C125     1.0000 0.53890  0.23310  0.89160  Biso   1.000  C
  H78      1.0000 0.52720  0.26380  0.84790  Biso   1.000  H
  C126     1.0000 0.60060  0.21790  0.91160  Biso   1.000  C
  H79      1.0000 0.63120  0.24150  0.88210  Biso   1.000  H
  C127     1.0000 0.61910  0.16840  0.97430  Biso   1.000  C
  C128     1.0000 0.68150  0.14700  0.99560  Biso   1.000  C
  H80      1.0000 0.71270  0.16890  0.96650  Biso   1.000  H
  C129     1.0000 0.69870  0.09580  0.05650  Biso   1.000  C
  C130     1.0000 0.65280  0.06100  0.09790  Biso   1.000  C
  H81      1.0000 0.66420  0.02470  0.14020  Biso   1.000  H
  C131     1.0000 0.59190  0.07810  0.07910  Biso   1.000  C
  H82      1.0000 0.56150  0.05150  0.10790  Biso   1.000  H
  C132     1.0000 0.57270  0.13420  0.01770  Biso   1.000  C
  C133     1.0000 0.50990  0.15240  0.99540  Biso   1.000  C
  H83      1.0000 0.47850  0.12770  0.02350  Biso   1.000  H
  C134     1.0000 0.76740  0.07910  0.07340  Biso   1.000  C
  C135     1.0000 0.84550  0.02870  0.16580  Biso   1.000  C
  C136     1.0000 0.89750  0.07900  0.13830  Biso   1.000  C
  H84      1.0000 0.89300  0.12070  0.09670  Biso   1.000  H
  C137     1.0000 0.95550  0.06740  0.17240  Biso   1.000  C
  C138     1.0000 0.96260  0.00690  0.23330  Biso   1.000  C
  H85      1.0000 0.00260  0.99920  0.25600  Biso   1.000  H
  C139     1.0000 0.91170  0.95780  0.26100  Biso   1.000  C
  C140     1.0000 0.85350  0.96710  0.22680  Biso   1.000  C
  H86      1.0000 0.81880  0.93120  0.24510  Biso   1.000  H
  C141     1.0000 0.01090  0.12480  0.14400  Biso   1.000  C
  C142     1.0000 0.91980  0.89800  0.32790  Biso   1.000  C
  C143     1.0000 0.19760  0.91050  0.14640  Biso   1.000  C
  H87      1.0000 0.20570  0.94670  0.10460  Biso   1.000  H
  C144     1.0000 0.20880  0.79450  0.15210  Biso   1.000  C
  H88      1.0000 0.22040  0.75080  0.11410  Biso   1.000  H
  C145     1.0000 0.20290  0.74290  0.21400  Biso   1.000  C
  H89      1.0000 0.21780  0.66700  0.22340  Biso   1.000  H
  C146     1.0000 0.17440  0.80610  0.26140  Biso   1.000  C
  H90      1.0000 0.16270  0.77040  0.30210  Biso   1.000  H
  C147     1.0000 0.16260  0.92130  0.25020  Biso   1.000  C
  H91      1.0000 0.14340  0.96390  0.28430  Biso   1.000  H
  C148     1.0000 0.08800  0.50660  0.96130  Biso   1.000  C
  H92      1.0000 0.04720  0.48730  0.94410  Biso   1.000  H
  C149     1.0000 0.11730  0.59780  0.93110  Biso   1.000  C
  H93      1.0000 0.09730  0.64020  0.89460  Biso   1.000  H
  C150     1.0000 0.17600  0.62420  0.95580  Biso   1.000  C
  H94      1.0000 0.19710  0.68790  0.93770  Biso   1.000  H
  C151     1.0000 0.20510  0.55720  0.00780  Biso   1.000  C
  H95      1.0000 0.24700  0.56950  0.02370  Biso   1.000  H
  C152     1.0000 0.16890  0.47170  0.03490  Biso   1.000  C
  H96      1.0000 0.18690  0.43040  0.07290  Biso   1.000  H
  O44      1.0000 0.41920  0.29100  0.85690  Biso   1.000  O
