data_image0
_cell_length_a       16.0914
_cell_length_b       16.0914
_cell_length_c       28.187
_cell_angle_alpha    90
_cell_angle_beta     90
_cell_angle_gamma    90

_symmetry_space_group_name_H-M    "P 1"
_symmetry_int_tables_number       1

loop_
  _symmetry_equiv_pos_as_xyz
  'x, y, z'

loop_
  _atom_site_label
  _atom_site_occupancy
  _atom_site_fract_x
  _atom_site_fract_y
  _atom_site_fract_z
  _atom_site_thermal_displace_type
  _atom_site_B_iso_or_equiv
  _atom_site_type_symbol
  C1       1.0000 0.33590  0.92750  0.33885  Biso   1.000  C
  H1       1.0000 0.31680  0.87710  0.35090  Biso   1.000  H
  C2       1.0000 0.39470  0.92760  0.30308  Biso   1.000  C
  H2       1.0000 0.41380  0.87710  0.29120  Biso   1.000  H
  N1       1.0000 0.16811  0.04134  0.45175  Biso   1.000  N
  N2       1.0000 0.21672  0.06902  0.41717  Biso   1.000  N
  C3       1.0000 0.83590  0.42750  0.83885  Biso   1.000  C
  H3       1.0000 0.81680  0.37710  0.85090  Biso   1.000  H
  C4       1.0000 0.89470  0.42760  0.80308  Biso   1.000  C
  H4       1.0000 0.91380  0.37710  0.79120  Biso   1.000  H
  N3       1.0000 0.66811  0.54134  0.95175  Biso   1.000  N
  N4       1.0000 0.71672  0.56902  0.91717  Biso   1.000  N
  C5       1.0000 0.66410  0.07250  0.33885  Biso   1.000  C
  H5       1.0000 0.68320  0.12290  0.35090  Biso   1.000  H
  C6       1.0000 0.60530  0.07240  0.30308  Biso   1.000  C
  H6       1.0000 0.58620  0.12290  0.29120  Biso   1.000  H
  N5       1.0000 0.83189  0.95866  0.45175  Biso   1.000  N
  N6       1.0000 0.78328  0.93098  0.41717  Biso   1.000  N
  C7       1.0000 0.16410  0.57250  0.83885  Biso   1.000  C
  H7       1.0000 0.18320  0.62290  0.85090  Biso   1.000  H
  C8       1.0000 0.10530  0.57240  0.80308  Biso   1.000  C
  H8       1.0000 0.08620  0.62290  0.79120  Biso   1.000  H
  N7       1.0000 0.33189  0.45866  0.95175  Biso   1.000  N
  N8       1.0000 0.28328  0.43098  0.91717  Biso   1.000  N
  C9       1.0000 0.07250  0.33590  0.33885  Biso   1.000  C
  H9       1.0000 0.12290  0.31680  0.35090  Biso   1.000  H
  C10      1.0000 0.07240  0.39470  0.30308  Biso   1.000  C
  H10      1.0000 0.12290  0.41380  0.29120  Biso   1.000  H
  N9       1.0000 0.95866  0.16811  0.45175  Biso   1.000  N
  N10      1.0000 0.93098  0.21672  0.41717  Biso   1.000  N
  C11      1.0000 0.57250  0.83590  0.83885  Biso   1.000  C
  H11      1.0000 0.62290  0.81680  0.85090  Biso   1.000  H
  C12      1.0000 0.57240  0.89470  0.80308  Biso   1.000  C
  H12      1.0000 0.62290  0.91380  0.79120  Biso   1.000  H
  N11      1.0000 0.45866  0.66811  0.95175  Biso   1.000  N
  N12      1.0000 0.43098  0.71672  0.91717  Biso   1.000  N
  C13      1.0000 0.92750  0.66410  0.33885  Biso   1.000  C
  H13      1.0000 0.87710  0.68320  0.35090  Biso   1.000  H
  C14      1.0000 0.92760  0.60530  0.30308  Biso   1.000  C
  H14      1.0000 0.87710  0.58620  0.29120  Biso   1.000  H
  N13      1.0000 0.04134  0.83189  0.45175  Biso   1.000  N
  N14      1.0000 0.06902  0.78328  0.41717  Biso   1.000  N
  C15      1.0000 0.42750  0.16410  0.83885  Biso   1.000  C
  H15      1.0000 0.37710  0.18320  0.85090  Biso   1.000  H
  C16      1.0000 0.42760  0.10530  0.80308  Biso   1.000  C
  H16      1.0000 0.37710  0.08620  0.79120  Biso   1.000  H
  N15      1.0000 0.54134  0.33189  0.95175  Biso   1.000  N
  N16      1.0000 0.56902  0.28328  0.91717  Biso   1.000  N
  C17      1.0000 0.66410  0.92750  0.66115  Biso   1.000  C
  H17      1.0000 0.68320  0.87710  0.64910  Biso   1.000  H
  C18      1.0000 0.60530  0.92760  0.69692  Biso   1.000  C
  H18      1.0000 0.58620  0.87710  0.70880  Biso   1.000  H
  N17      1.0000 0.83189  0.04134  0.54825  Biso   1.000  N
  N18      1.0000 0.78328  0.06902  0.58283  Biso   1.000  N
  C19      1.0000 0.16410  0.42750  0.16115  Biso   1.000  C
  H19      1.0000 0.18320  0.37710  0.14910  Biso   1.000  H
  C20      1.0000 0.10530  0.42760  0.19692  Biso   1.000  C
  H20      1.0000 0.08620  0.37710  0.20880  Biso   1.000  H
  N19      1.0000 0.33189  0.54134  0.04825  Biso   1.000  N
  N20      1.0000 0.28328  0.56902  0.08283  Biso   1.000  N
  C21      1.0000 0.33590  0.07250  0.66115  Biso   1.000  C
  H21      1.0000 0.31680  0.12290  0.64910  Biso   1.000  H
  C22      1.0000 0.39470  0.07240  0.69692  Biso   1.000  C
  H22      1.0000 0.41380  0.12290  0.70880  Biso   1.000  H
  N21      1.0000 0.16811  0.95866  0.54825  Biso   1.000  N
  N22      1.0000 0.21672  0.93098  0.58283  Biso   1.000  N
  C23      1.0000 0.83590  0.57250  0.16115  Biso   1.000  C
  H23      1.0000 0.81680  0.62290  0.14910  Biso   1.000  H
  C24      1.0000 0.89470  0.57240  0.19692  Biso   1.000  C
  H24      1.0000 0.91380  0.62290  0.20880  Biso   1.000  H
  N23      1.0000 0.66811  0.45866  0.04825  Biso   1.000  N
  N24      1.0000 0.71672  0.43098  0.08283  Biso   1.000  N
  C25      1.0000 0.92750  0.33590  0.66115  Biso   1.000  C
  H25      1.0000 0.87710  0.31680  0.64910  Biso   1.000  H
  C26      1.0000 0.92760  0.39470  0.69692  Biso   1.000  C
  H26      1.0000 0.87710  0.41380  0.70880  Biso   1.000  H
  N25      1.0000 0.04134  0.16811  0.54825  Biso   1.000  N
  N26      1.0000 0.06902  0.21672  0.58283  Biso   1.000  N
  C27      1.0000 0.42750  0.83590  0.16115  Biso   1.000  C
  H27      1.0000 0.37710  0.81680  0.14910  Biso   1.000  H
  C28      1.0000 0.42760  0.89470  0.19692  Biso   1.000  C
  H28      1.0000 0.37710  0.91380  0.20880  Biso   1.000  H
  N27      1.0000 0.54134  0.66811  0.04825  Biso   1.000  N
  N28      1.0000 0.56902  0.71672  0.08283  Biso   1.000  N
  C29      1.0000 0.07250  0.66410  0.66115  Biso   1.000  C
  H29      1.0000 0.12290  0.68320  0.64910  Biso   1.000  H
  C30      1.0000 0.07240  0.60530  0.69692  Biso   1.000  C
  H30      1.0000 0.12290  0.58620  0.70880  Biso   1.000  H
  N29      1.0000 0.95866  0.83189  0.54825  Biso   1.000  N
  N30      1.0000 0.93098  0.78328  0.58283  Biso   1.000  N
  C31      1.0000 0.57250  0.16410  0.16115  Biso   1.000  C
  H31      1.0000 0.62290  0.18320  0.14910  Biso   1.000  H
  C32      1.0000 0.57240  0.10530  0.19692  Biso   1.000  C
  H32      1.0000 0.62290  0.08620  0.20880  Biso   1.000  H
  N31      1.0000 0.45866  0.33189  0.04825  Biso   1.000  N
  N32      1.0000 0.43098  0.28328  0.08283  Biso   1.000  N
  C33      1.0000 0.66410  0.07250  0.66115  Biso   1.000  C
  H33      1.0000 0.68320  0.12290  0.64910  Biso   1.000  H
  C34      1.0000 0.60530  0.07240  0.69692  Biso   1.000  C
  H34      1.0000 0.58620  0.12290  0.70880  Biso   1.000  H
  N33      1.0000 0.83189  0.95866  0.54825  Biso   1.000  N
  N34      1.0000 0.78328  0.93098  0.58283  Biso   1.000  N
  C35      1.0000 0.16410  0.57250  0.16115  Biso   1.000  C
  H35      1.0000 0.18320  0.62290  0.14910  Biso   1.000  H
  C36      1.0000 0.10530  0.57240  0.19692  Biso   1.000  C
  H36      1.0000 0.08620  0.62290  0.20880  Biso   1.000  H
  N35      1.0000 0.33189  0.45866  0.04825  Biso   1.000  N
  N36      1.0000 0.28328  0.43098  0.08283  Biso   1.000  N
  C37      1.0000 0.33590  0.92750  0.66115  Biso   1.000  C
  H37      1.0000 0.31680  0.87710  0.64910  Biso   1.000  H
  C38      1.0000 0.39470  0.92760  0.69692  Biso   1.000  C
  H38      1.0000 0.41380  0.87710  0.70880  Biso   1.000  H
  N37      1.0000 0.16811  0.04134  0.54825  Biso   1.000  N
  N38      1.0000 0.21672  0.06902  0.58283  Biso   1.000  N
  C39      1.0000 0.83590  0.42750  0.16115  Biso   1.000  C
  H39      1.0000 0.81680  0.37710  0.14910  Biso   1.000  H
  C40      1.0000 0.89470  0.42760  0.19692  Biso   1.000  C
  H40      1.0000 0.91380  0.37710  0.20880  Biso   1.000  H
  N39      1.0000 0.66811  0.54134  0.04825  Biso   1.000  N
  N40      1.0000 0.71672  0.56902  0.08283  Biso   1.000  N
  C41      1.0000 0.92750  0.66410  0.66115  Biso   1.000  C
  H41      1.0000 0.87710  0.68320  0.64910  Biso   1.000  H
  C42      1.0000 0.92760  0.60530  0.69692  Biso   1.000  C
  H42      1.0000 0.87710  0.58620  0.70880  Biso   1.000  H
  N41      1.0000 0.04134  0.83189  0.54825  Biso   1.000  N
  N42      1.0000 0.06902  0.78328  0.58283  Biso   1.000  N
  C43      1.0000 0.42750  0.16410  0.16115  Biso   1.000  C
  H43      1.0000 0.37710  0.18320  0.14910  Biso   1.000  H
  C44      1.0000 0.42760  0.10530  0.19692  Biso   1.000  C
  H44      1.0000 0.37710  0.08620  0.20880  Biso   1.000  H
  N43      1.0000 0.54134  0.33189  0.04825  Biso   1.000  N
  N44      1.0000 0.56902  0.28328  0.08283  Biso   1.000  N
  C45      1.0000 0.07250  0.33590  0.66115  Biso   1.000  C
  H45      1.0000 0.12290  0.31680  0.64910  Biso   1.000  H
  C46      1.0000 0.07240  0.39470  0.69692  Biso   1.000  C
  H46      1.0000 0.12290  0.41380  0.70880  Biso   1.000  H
  N45      1.0000 0.95866  0.16811  0.54825  Biso   1.000  N
  N46      1.0000 0.93098  0.21672  0.58283  Biso   1.000  N
  C47      1.0000 0.57250  0.83590  0.16115  Biso   1.000  C
  H47      1.0000 0.62290  0.81680  0.14910  Biso   1.000  H
  C48      1.0000 0.57240  0.89470  0.19692  Biso   1.000  C
  H48      1.0000 0.62290  0.91380  0.20880  Biso   1.000  H
  N47      1.0000 0.45866  0.66811  0.04825  Biso   1.000  N
  N48      1.0000 0.43098  0.71672  0.08283  Biso   1.000  N
  C49      1.0000 0.33590  0.07250  0.33885  Biso   1.000  C
  H49      1.0000 0.31680  0.12290  0.35090  Biso   1.000  H
  C50      1.0000 0.39470  0.07240  0.30308  Biso   1.000  C
  H50      1.0000 0.41380  0.12290  0.29120  Biso   1.000  H
  N49      1.0000 0.16811  0.95866  0.45175  Biso   1.000  N
  N50      1.0000 0.21672  0.93098  0.41717  Biso   1.000  N
  C51      1.0000 0.83590  0.57250  0.83885  Biso   1.000  C
  H51      1.0000 0.81680  0.62290  0.85090  Biso   1.000  H
  C52      1.0000 0.89470  0.57240  0.80308  Biso   1.000  C
  H52      1.0000 0.91380  0.62290  0.79120  Biso   1.000  H
  N51      1.0000 0.66811  0.45866  0.95175  Biso   1.000  N
  N52      1.0000 0.71672  0.43098  0.91717  Biso   1.000  N
  C53      1.0000 0.66410  0.92750  0.33885  Biso   1.000  C
  H53      1.0000 0.68320  0.87710  0.35090  Biso   1.000  H
  C54      1.0000 0.60530  0.92760  0.30308  Biso   1.000  C
  H54      1.0000 0.58620  0.87710  0.29120  Biso   1.000  H
  N53      1.0000 0.83189  0.04134  0.45175  Biso   1.000  N
  N54      1.0000 0.78328  0.06902  0.41717  Biso   1.000  N
  C55      1.0000 0.16410  0.42750  0.83885  Biso   1.000  C
  H55      1.0000 0.18320  0.37710  0.85090  Biso   1.000  H
  C56      1.0000 0.10530  0.42760  0.80308  Biso   1.000  C
  H56      1.0000 0.08620  0.37710  0.79120  Biso   1.000  H
  N55      1.0000 0.33189  0.54134  0.95175  Biso   1.000  N
  N56      1.0000 0.28328  0.56902  0.91717  Biso   1.000  N
  C57      1.0000 0.07250  0.66410  0.33885  Biso   1.000  C
  H57      1.0000 0.12290  0.68320  0.35090  Biso   1.000  H
  C58      1.0000 0.07240  0.60530  0.30308  Biso   1.000  C
  H58      1.0000 0.12290  0.58620  0.29120  Biso   1.000  H
  N57      1.0000 0.95866  0.83189  0.45175  Biso   1.000  N
  N58      1.0000 0.93098  0.78328  0.41717  Biso   1.000  N
  C59      1.0000 0.57250  0.16410  0.83885  Biso   1.000  C
  H59      1.0000 0.62290  0.18320  0.85090  Biso   1.000  H
  C60      1.0000 0.57240  0.10530  0.80308  Biso   1.000  C
  H60      1.0000 0.62290  0.08620  0.79120  Biso   1.000  H
  N59      1.0000 0.45866  0.33189  0.95175  Biso   1.000  N
  N60      1.0000 0.43098  0.28328  0.91717  Biso   1.000  N
  C61      1.0000 0.92750  0.33590  0.33885  Biso   1.000  C
  H61      1.0000 0.87710  0.31680  0.35090  Biso   1.000  H
  C62      1.0000 0.92760  0.39470  0.30308  Biso   1.000  C
  H62      1.0000 0.87710  0.41380  0.29120  Biso   1.000  H
  N61      1.0000 0.04134  0.16811  0.45175  Biso   1.000  N
  N62      1.0000 0.06902  0.21672  0.41717  Biso   1.000  N
  C63      1.0000 0.42750  0.83590  0.83885  Biso   1.000  C
  H63      1.0000 0.37710  0.81680  0.85090  Biso   1.000  H
  C64      1.0000 0.42760  0.89470  0.80308  Biso   1.000  C
  H64      1.0000 0.37710  0.91380  0.79120  Biso   1.000  H
  N63      1.0000 0.54134  0.66811  0.95175  Biso   1.000  N
  N64      1.0000 0.56902  0.71672  0.91717  Biso   1.000  N
  Cu1      1.0000 0.10836  0.10836  0.50000  Biso   1.000  Cu
  Cu2      1.0000 0.60836  0.60836  0.00000  Biso   1.000  Cu
  Cu3      1.0000 0.89164  0.89164  0.50000  Biso   1.000  Cu
  Cu4      1.0000 0.39164  0.39164  0.00000  Biso   1.000  Cu
  Cu5      1.0000 0.89164  0.10836  0.50000  Biso   1.000  Cu
  Cu6      1.0000 0.39164  0.60836  0.00000  Biso   1.000  Cu
  Cu7      1.0000 0.10836  0.89164  0.50000  Biso   1.000  Cu
  Cu8      1.0000 0.60836  0.39164  0.00000  Biso   1.000  Cu
  Cu9      1.0000 0.19380  0.19380  0.40810  Biso   1.000  Cu
  Cu10     1.0000 0.69380  0.69380  0.90810  Biso   1.000  Cu
  Cu11     1.0000 0.80620  0.80620  0.40810  Biso   1.000  Cu
  Cu12     1.0000 0.30620  0.30620  0.90810  Biso   1.000  Cu
  Cu13     1.0000 0.80620  0.19380  0.40810  Biso   1.000  Cu
  Cu14     1.0000 0.30620  0.69380  0.90810  Biso   1.000  Cu
  Cu15     1.0000 0.19380  0.80620  0.40810  Biso   1.000  Cu
  Cu16     1.0000 0.69380  0.30620  0.90810  Biso   1.000  Cu
  Cu17     1.0000 0.80620  0.19380  0.59190  Biso   1.000  Cu
  Cu18     1.0000 0.30620  0.69380  0.09190  Biso   1.000  Cu
  Cu19     1.0000 0.19380  0.80620  0.59190  Biso   1.000  Cu
  Cu20     1.0000 0.69380  0.30620  0.09190  Biso   1.000  Cu
  Cu21     1.0000 0.19380  0.19380  0.59190  Biso   1.000  Cu
  Cu22     1.0000 0.69380  0.69380  0.09190  Biso   1.000  Cu
  Cu23     1.0000 0.80620  0.80620  0.59190  Biso   1.000  Cu
  Cu24     1.0000 0.30620  0.30620  0.09190  Biso   1.000  Cu
  C65      1.0000 0.24660  0.00000  0.39664  Biso   1.000  C
  C66      1.0000 0.30550  0.00000  0.35678  Biso   1.000  C
  C67      1.0000 0.42560  0.00000  0.28459  Biso   1.000  C
  C68      1.0000 0.74660  0.50000  0.89664  Biso   1.000  C
  C69      1.0000 0.80550  0.50000  0.85678  Biso   1.000  C
  C70      1.0000 0.92560  0.50000  0.78459  Biso   1.000  C
  C71      1.0000 0.75340  0.00000  0.39664  Biso   1.000  C
  C72      1.0000 0.69450  0.00000  0.35678  Biso   1.000  C
  C73      1.0000 0.57440  0.00000  0.28459  Biso   1.000  C
  C74      1.0000 0.25340  0.50000  0.89664  Biso   1.000  C
  C75      1.0000 0.19450  0.50000  0.85678  Biso   1.000  C
  C76      1.0000 0.07440  0.50000  0.78459  Biso   1.000  C
  C77      1.0000 0.00000  0.24660  0.39664  Biso   1.000  C
  C78      1.0000 0.00000  0.30550  0.35678  Biso   1.000  C
  C79      1.0000 0.00000  0.42560  0.28459  Biso   1.000  C
  C80      1.0000 0.50000  0.74660  0.89664  Biso   1.000  C
  C81      1.0000 0.50000  0.80550  0.85678  Biso   1.000  C
  C82      1.0000 0.50000  0.92560  0.78459  Biso   1.000  C
  C83      1.0000 0.00000  0.75340  0.39664  Biso   1.000  C
  C84      1.0000 0.00000  0.69450  0.35678  Biso   1.000  C
  C85      1.0000 0.00000  0.57440  0.28459  Biso   1.000  C
  C86      1.0000 0.50000  0.25340  0.89664  Biso   1.000  C
  C87      1.0000 0.50000  0.19450  0.85678  Biso   1.000  C
  C88      1.0000 0.50000  0.07440  0.78459  Biso   1.000  C
  C89      1.0000 0.75340  0.00000  0.60336  Biso   1.000  C
  C90      1.0000 0.69450  0.00000  0.64322  Biso   1.000  C
  C91      1.0000 0.57440  0.00000  0.71541  Biso   1.000  C
  C92      1.0000 0.25340  0.50000  0.10336  Biso   1.000  C
  C93      1.0000 0.19450  0.50000  0.14322  Biso   1.000  C
  C94      1.0000 0.07440  0.50000  0.21541  Biso   1.000  C
  C95      1.0000 0.24660  0.00000  0.60336  Biso   1.000  C
  C96      1.0000 0.30550  0.00000  0.64322  Biso   1.000  C
  C97      1.0000 0.42560  0.00000  0.71541  Biso   1.000  C
  C98      1.0000 0.74660  0.50000  0.10336  Biso   1.000  C
  C99      1.0000 0.80550  0.50000  0.14322  Biso   1.000  C
  C100     1.0000 0.92560  0.50000  0.21541  Biso   1.000  C
  C101     1.0000 0.00000  0.24660  0.60336  Biso   1.000  C
  C102     1.0000 0.00000  0.30550  0.64322  Biso   1.000  C
  C103     1.0000 0.00000  0.42560  0.71541  Biso   1.000  C
  C104     1.0000 0.50000  0.74660  0.10336  Biso   1.000  C
  C105     1.0000 0.50000  0.80550  0.14322  Biso   1.000  C
  C106     1.0000 0.50000  0.92560  0.21541  Biso   1.000  C
  C107     1.0000 0.00000  0.75340  0.60336  Biso   1.000  C
  C108     1.0000 0.00000  0.69450  0.64322  Biso   1.000  C
  C109     1.0000 0.00000  0.57440  0.71541  Biso   1.000  C
  C110     1.0000 0.50000  0.25340  0.10336  Biso   1.000  C
  C111     1.0000 0.50000  0.19450  0.14322  Biso   1.000  C
  C112     1.0000 0.50000  0.07440  0.21541  Biso   1.000  C
  C113     1.0000 0.50000  0.00000  0.25000  Biso   1.000  C
  C114     1.0000 0.00000  0.50000  0.25000  Biso   1.000  C
  C115     1.0000 0.50000  0.00000  0.75000  Biso   1.000  C
  C116     1.0000 0.00000  0.50000  0.75000  Biso   1.000  C
  Cl1      1.0000 0.00000  0.00000  0.48800  Biso   1.000  Cl
  Cl2      1.0000 0.50000  0.50000  0.98800  Biso   1.000  Cl
  Cl3      1.0000 0.00000  0.00000  0.51200  Biso   1.000  Cl
  Cl4      1.0000 0.50000  0.50000  0.01200  Biso   1.000  Cl
