data_image0
_cell_length_a       9.8941
_cell_length_b       9.8941
_cell_length_c       9.8941
_cell_angle_alpha    90
_cell_angle_beta     90
_cell_angle_gamma    90

_symmetry_space_group_name_H-M    "P 1"
_symmetry_int_tables_number       1

loop_
  _symmetry_equiv_pos_as_xyz
  'x, y, z'

loop_
  _atom_site_label
  _atom_site_occupancy
  _atom_site_fract_x
  _atom_site_fract_y
  _atom_site_fract_z
  _atom_site_thermal_displace_type
  _atom_site_B_iso_or_equiv
  _atom_site_type_symbol
  C1       1.0000 0.59950  0.24610  0.02640  Biso   1.000  C
  C2       1.0000 0.64840  0.36560  0.94570  Biso   1.000  C
  C3       1.0000 0.57370  0.32960  0.90190  Biso   1.000  C
  C4       1.0000 0.60290  0.24190  0.02150  Biso   1.000  C
  N1       1.0000 0.51800  0.23930  0.93470  Biso   1.000  N
  N2       1.0000 0.60700  0.22130  0.03270  Biso   1.000  N
  N3       1.0000 0.69820  0.31710  0.02930  Biso   1.000  N
  O1       1.0000 0.71570  0.22700  0.07610  Biso   1.000  O
  O2       1.0000 0.51520  0.15010  0.02380  Biso   1.000  O
  O3       1.0000 0.68260  0.22640  0.11870  Biso   1.000  O
  O4       1.0000 0.48370  0.19890  0.02980  Biso   1.000  O
  C5       1.0000 0.90050  0.75390  0.52640  Biso   1.000  C
  C6       1.0000 0.85160  0.63440  0.44570  Biso   1.000  C
  C7       1.0000 0.92630  0.67040  0.40190  Biso   1.000  C
  C8       1.0000 0.89710  0.75810  0.52150  Biso   1.000  C
  N4       1.0000 0.98200  0.76070  0.43470  Biso   1.000  N
  N5       1.0000 0.89300  0.77870  0.53270  Biso   1.000  N
  N6       1.0000 0.80180  0.68290  0.52930  Biso   1.000  N
  O5       1.0000 0.78430  0.77300  0.57610  Biso   1.000  O
  O6       1.0000 0.98480  0.84990  0.52380  Biso   1.000  O
  O7       1.0000 0.81740  0.77360  0.61870  Biso   1.000  O
  O8       1.0000 0.01630  0.80110  0.52980  Biso   1.000  O
  C9       1.0000 0.40050  0.74610  0.47360  Biso   1.000  C
  C10      1.0000 0.35160  0.86560  0.55430  Biso   1.000  C
  C11      1.0000 0.42630  0.82960  0.59810  Biso   1.000  C
  C12      1.0000 0.39710  0.74190  0.47850  Biso   1.000  C
  N7       1.0000 0.48200  0.73930  0.56530  Biso   1.000  N
  N8       1.0000 0.39300  0.72130  0.46730  Biso   1.000  N
  N9       1.0000 0.30180  0.81710  0.47070  Biso   1.000  N
  O9       1.0000 0.28430  0.72700  0.42390  Biso   1.000  O
  O10      1.0000 0.48480  0.65010  0.47620  Biso   1.000  O
  O11      1.0000 0.31740  0.72640  0.38130  Biso   1.000  O
  O12      1.0000 0.51630  0.69890  0.47020  Biso   1.000  O
  C13      1.0000 0.09950  0.25390  0.97360  Biso   1.000  C
  C14      1.0000 0.14840  0.13440  0.05430  Biso   1.000  C
  C15      1.0000 0.07370  0.17040  0.09810  Biso   1.000  C
  C16      1.0000 0.10290  0.25810  0.97850  Biso   1.000  C
  N10      1.0000 0.01800  0.26070  0.06530  Biso   1.000  N
  N11      1.0000 0.10700  0.27870  0.96730  Biso   1.000  N
  N12      1.0000 0.19820  0.18290  0.97070  Biso   1.000  N
  O13      1.0000 0.21570  0.27300  0.92390  Biso   1.000  O
  O14      1.0000 0.01520  0.34990  0.97620  Biso   1.000  O
  O15      1.0000 0.18260  0.27360  0.88130  Biso   1.000  O
  O16      1.0000 0.98370  0.30110  0.97020  Biso   1.000  O
  C17      1.0000 0.02640  0.59950  0.24610  Biso   1.000  C
  C18      1.0000 0.94570  0.64840  0.36560  Biso   1.000  C
  C19      1.0000 0.90190  0.57370  0.32960  Biso   1.000  C
  C20      1.0000 0.02150  0.60290  0.24190  Biso   1.000  C
  N13      1.0000 0.93470  0.51800  0.23930  Biso   1.000  N
  N14      1.0000 0.03270  0.60700  0.22130  Biso   1.000  N
  N15      1.0000 0.02930  0.69820  0.31710  Biso   1.000  N
  O17      1.0000 0.07610  0.71570  0.22700  Biso   1.000  O
  O18      1.0000 0.02380  0.51520  0.15010  Biso   1.000  O
  O19      1.0000 0.11870  0.68260  0.22640  Biso   1.000  O
  O20      1.0000 0.02980  0.48370  0.19890  Biso   1.000  O
  C21      1.0000 0.52640  0.90050  0.75390  Biso   1.000  C
  C22      1.0000 0.44570  0.85160  0.63440  Biso   1.000  C
  C23      1.0000 0.40190  0.92630  0.67040  Biso   1.000  C
  C24      1.0000 0.52150  0.89710  0.75810  Biso   1.000  C
  N16      1.0000 0.43470  0.98200  0.76070  Biso   1.000  N
  N17      1.0000 0.53270  0.89300  0.77870  Biso   1.000  N
  N18      1.0000 0.52930  0.80180  0.68290  Biso   1.000  N
  O21      1.0000 0.57610  0.78430  0.77300  Biso   1.000  O
  O22      1.0000 0.52380  0.98480  0.84990  Biso   1.000  O
  O23      1.0000 0.61870  0.81740  0.77360  Biso   1.000  O
  O24      1.0000 0.52980  0.01630  0.80110  Biso   1.000  O
  C25      1.0000 0.47360  0.40050  0.74610  Biso   1.000  C
  C26      1.0000 0.55430  0.35160  0.86560  Biso   1.000  C
  C27      1.0000 0.59810  0.42630  0.82960  Biso   1.000  C
  C28      1.0000 0.47850  0.39710  0.74190  Biso   1.000  C
  N19      1.0000 0.56530  0.48200  0.73930  Biso   1.000  N
  N20      1.0000 0.46730  0.39300  0.72130  Biso   1.000  N
  N21      1.0000 0.47070  0.30180  0.81710  Biso   1.000  N
  O25      1.0000 0.42390  0.28430  0.72700  Biso   1.000  O
  O26      1.0000 0.47620  0.48480  0.65010  Biso   1.000  O
  O27      1.0000 0.38130  0.31740  0.72640  Biso   1.000  O
  O28      1.0000 0.47020  0.51630  0.69890  Biso   1.000  O
  C29      1.0000 0.97360  0.09950  0.25390  Biso   1.000  C
  C30      1.0000 0.05430  0.14840  0.13440  Biso   1.000  C
  C31      1.0000 0.09810  0.07370  0.17040  Biso   1.000  C
  C32      1.0000 0.97850  0.10290  0.25810  Biso   1.000  C
  N22      1.0000 0.06530  0.01800  0.26070  Biso   1.000  N
  N23      1.0000 0.96730  0.10700  0.27870  Biso   1.000  N
  N24      1.0000 0.97070  0.19820  0.18290  Biso   1.000  N
  O29      1.0000 0.92390  0.21570  0.27300  Biso   1.000  O
  O30      1.0000 0.97620  0.01520  0.34990  Biso   1.000  O
  O31      1.0000 0.88130  0.18260  0.27360  Biso   1.000  O
  O32      1.0000 0.97020  0.98370  0.30110  Biso   1.000  O
  C33      1.0000 0.24610  0.02640  0.59950  Biso   1.000  C
  C34      1.0000 0.36560  0.94570  0.64840  Biso   1.000  C
  C35      1.0000 0.32960  0.90190  0.57370  Biso   1.000  C
  C36      1.0000 0.24190  0.02150  0.60290  Biso   1.000  C
  N25      1.0000 0.23930  0.93470  0.51800  Biso   1.000  N
  N26      1.0000 0.22130  0.03270  0.60700  Biso   1.000  N
  N27      1.0000 0.31710  0.02930  0.69820  Biso   1.000  N
  O33      1.0000 0.22700  0.07610  0.71570  Biso   1.000  O
  O34      1.0000 0.15010  0.02380  0.51520  Biso   1.000  O
  O35      1.0000 0.22640  0.11870  0.68260  Biso   1.000  O
  O36      1.0000 0.19890  0.02980  0.48370  Biso   1.000  O
  C37      1.0000 0.75390  0.52640  0.90050  Biso   1.000  C
  C38      1.0000 0.63440  0.44570  0.85160  Biso   1.000  C
  C39      1.0000 0.67040  0.40190  0.92630  Biso   1.000  C
  C40      1.0000 0.75810  0.52150  0.89710  Biso   1.000  C
  N28      1.0000 0.76070  0.43470  0.98200  Biso   1.000  N
  N29      1.0000 0.77870  0.53270  0.89300  Biso   1.000  N
  N30      1.0000 0.68290  0.52930  0.80180  Biso   1.000  N
  O37      1.0000 0.77300  0.57610  0.78430  Biso   1.000  O
  O38      1.0000 0.84990  0.52380  0.98480  Biso   1.000  O
  O39      1.0000 0.77360  0.61870  0.81740  Biso   1.000  O
  O40      1.0000 0.80110  0.52980  0.01630  Biso   1.000  O
  C41      1.0000 0.74610  0.47360  0.40050  Biso   1.000  C
  C42      1.0000 0.86560  0.55430  0.35160  Biso   1.000  C
  C43      1.0000 0.82960  0.59810  0.42630  Biso   1.000  C
  C44      1.0000 0.74190  0.47850  0.39710  Biso   1.000  C
  N31      1.0000 0.73930  0.56530  0.48200  Biso   1.000  N
  N32      1.0000 0.72130  0.46730  0.39300  Biso   1.000  N
  N33      1.0000 0.81710  0.47070  0.30180  Biso   1.000  N
  O41      1.0000 0.72700  0.42390  0.28430  Biso   1.000  O
  O42      1.0000 0.65010  0.47620  0.48480  Biso   1.000  O
  O43      1.0000 0.72640  0.38130  0.31740  Biso   1.000  O
  O44      1.0000 0.69890  0.47020  0.51630  Biso   1.000  O
  C45      1.0000 0.25390  0.97360  0.09950  Biso   1.000  C
  C46      1.0000 0.13440  0.05430  0.14840  Biso   1.000  C
  C47      1.0000 0.17040  0.09810  0.07370  Biso   1.000  C
  C48      1.0000 0.25810  0.97850  0.10290  Biso   1.000  C
  N34      1.0000 0.26070  0.06530  0.01800  Biso   1.000  N
  N35      1.0000 0.27870  0.96730  0.10700  Biso   1.000  N
  N36      1.0000 0.18290  0.97070  0.19820  Biso   1.000  N
  O45      1.0000 0.27300  0.92390  0.21570  Biso   1.000  O
  O46      1.0000 0.34990  0.97620  0.01520  Biso   1.000  O
  O47      1.0000 0.27360  0.88130  0.18260  Biso   1.000  O
  O48      1.0000 0.30110  0.97020  0.98370  Biso   1.000  O
  Co1      1.0000 0.36220  0.13780  0.86220  Biso   1.000  Co
  Co2      1.0000 0.13780  0.86220  0.36220  Biso   1.000  Co
  Co3      1.0000 0.63780  0.63780  0.63780  Biso   1.000  Co
  Co4      1.0000 0.86220  0.36220  0.13780  Biso   1.000  Co
