data_image0
_cell_length_a       10.2304
_cell_length_b       10.2304
_cell_length_c       10.2304
_cell_angle_alpha    90
_cell_angle_beta     90
_cell_angle_gamma    90

_symmetry_space_group_name_H-M    "P 1"
_symmetry_int_tables_number       1

loop_
  _symmetry_equiv_pos_as_xyz
  'x, y, z'

loop_
  _atom_site_label
  _atom_site_occupancy
  _atom_site_fract_x
  _atom_site_fract_y
  _atom_site_fract_z
  _atom_site_thermal_displace_type
  _atom_site_B_iso_or_equiv
  _atom_site_type_symbol
  C1       1.0000 0.36400  0.76300  0.98000  Biso   1.000  C
  C2       1.0000 0.33050  0.64700  0.06040  Biso   1.000  C
  C3       1.0000 0.40200  0.67020  0.10970  Biso   1.000  C
  C4       1.0000 0.39000  0.76800  0.00300  Biso   1.000  C
  N1       1.0000 0.46490  0.77150  0.06710  Biso   1.000  N
  N2       1.0000 0.37500  0.77400  0.97430  Biso   1.000  N
  N3       1.0000 0.29210  0.67700  0.99080  Biso   1.000  N
  O1       1.0000 0.28100  0.77200  0.89000  Biso   1.000  O
  O2       1.0000 0.45200  0.84900  0.99300  Biso   1.000  O
  O3       1.0000 0.29900  0.77700  0.92300  Biso   1.000  O
  O4       1.0000 0.50700  0.79000  0.98000  Biso   1.000  O
  C5       1.0000 0.13600  0.23700  0.48000  Biso   1.000  C
  C6       1.0000 0.16950  0.35300  0.56040  Biso   1.000  C
  C7       1.0000 0.09800  0.32980  0.60970  Biso   1.000  C
  C8       1.0000 0.11000  0.23200  0.50300  Biso   1.000  C
  N4       1.0000 0.03510  0.22850  0.56710  Biso   1.000  N
  N5       1.0000 0.12500  0.22600  0.47430  Biso   1.000  N
  N6       1.0000 0.20790  0.32300  0.49080  Biso   1.000  N
  O5       1.0000 0.21900  0.22800  0.39000  Biso   1.000  O
  O6       1.0000 0.04800  0.15100  0.49300  Biso   1.000  O
  O7       1.0000 0.20100  0.22300  0.42300  Biso   1.000  O
  O8       1.0000 0.99300  0.21000  0.48000  Biso   1.000  O
  C9       1.0000 0.63600  0.26300  0.52000  Biso   1.000  C
  C10      1.0000 0.66950  0.14700  0.43960  Biso   1.000  C
  C11      1.0000 0.59800  0.17020  0.39030  Biso   1.000  C
  C12      1.0000 0.61000  0.26800  0.49700  Biso   1.000  C
  N7       1.0000 0.53510  0.27150  0.43290  Biso   1.000  N
  N8       1.0000 0.62500  0.27400  0.52570  Biso   1.000  N
  N9       1.0000 0.70790  0.17700  0.50920  Biso   1.000  N
  O9       1.0000 0.71900  0.27200  0.61000  Biso   1.000  O
  O10      1.0000 0.54800  0.34900  0.50700  Biso   1.000  O
  O11      1.0000 0.70100  0.27700  0.57700  Biso   1.000  O
  O12      1.0000 0.49300  0.29000  0.52000  Biso   1.000  O
  C13      1.0000 0.86400  0.73700  0.02000  Biso   1.000  C
  C14      1.0000 0.83050  0.85300  0.93960  Biso   1.000  C
  C15      1.0000 0.90200  0.82980  0.89030  Biso   1.000  C
  C16      1.0000 0.89000  0.73200  0.99700  Biso   1.000  C
  N10      1.0000 0.96490  0.72850  0.93290  Biso   1.000  N
  N11      1.0000 0.87500  0.72600  0.02570  Biso   1.000  N
  N12      1.0000 0.79210  0.82300  0.00920  Biso   1.000  N
  O13      1.0000 0.78100  0.72800  0.11000  Biso   1.000  O
  O14      1.0000 0.95200  0.65100  0.00700  Biso   1.000  O
  O15      1.0000 0.79900  0.72300  0.07700  Biso   1.000  O
  O16      1.0000 0.00700  0.71000  0.02000  Biso   1.000  O
  C17      1.0000 0.98000  0.36400  0.76300  Biso   1.000  C
  C18      1.0000 0.06040  0.33050  0.64700  Biso   1.000  C
  C19      1.0000 0.10970  0.40200  0.67020  Biso   1.000  C
  C20      1.0000 0.00300  0.39000  0.76800  Biso   1.000  C
  N13      1.0000 0.06710  0.46490  0.77150  Biso   1.000  N
  N14      1.0000 0.97430  0.37500  0.77400  Biso   1.000  N
  N15      1.0000 0.99080  0.29210  0.67700  Biso   1.000  N
  O17      1.0000 0.89000  0.28100  0.77200  Biso   1.000  O
  O18      1.0000 0.99300  0.45200  0.84900  Biso   1.000  O
  O19      1.0000 0.92300  0.29900  0.77700  Biso   1.000  O
  O20      1.0000 0.98000  0.50700  0.79000  Biso   1.000  O
  C21      1.0000 0.48000  0.13600  0.23700  Biso   1.000  C
  C22      1.0000 0.56040  0.16950  0.35300  Biso   1.000  C
  C23      1.0000 0.60970  0.09800  0.32980  Biso   1.000  C
  C24      1.0000 0.50300  0.11000  0.23200  Biso   1.000  C
  N16      1.0000 0.56710  0.03510  0.22850  Biso   1.000  N
  N17      1.0000 0.47430  0.12500  0.22600  Biso   1.000  N
  N18      1.0000 0.49080  0.20790  0.32300  Biso   1.000  N
  O21      1.0000 0.39000  0.21900  0.22800  Biso   1.000  O
  O22      1.0000 0.49300  0.04800  0.15100  Biso   1.000  O
  O23      1.0000 0.42300  0.20100  0.22300  Biso   1.000  O
  O24      1.0000 0.48000  0.99300  0.21000  Biso   1.000  O
  C25      1.0000 0.52000  0.63600  0.26300  Biso   1.000  C
  C26      1.0000 0.43960  0.66950  0.14700  Biso   1.000  C
  C27      1.0000 0.39030  0.59800  0.17020  Biso   1.000  C
  C28      1.0000 0.49700  0.61000  0.26800  Biso   1.000  C
  N19      1.0000 0.43290  0.53510  0.27150  Biso   1.000  N
  N20      1.0000 0.52570  0.62500  0.27400  Biso   1.000  N
  N21      1.0000 0.50920  0.70790  0.17700  Biso   1.000  N
  O25      1.0000 0.61000  0.71900  0.27200  Biso   1.000  O
  O26      1.0000 0.50700  0.54800  0.34900  Biso   1.000  O
  O27      1.0000 0.57700  0.70100  0.27700  Biso   1.000  O
  O28      1.0000 0.52000  0.49300  0.29000  Biso   1.000  O
  C29      1.0000 0.02000  0.86400  0.73700  Biso   1.000  C
  C30      1.0000 0.93960  0.83050  0.85300  Biso   1.000  C
  C31      1.0000 0.89030  0.90200  0.82980  Biso   1.000  C
  C32      1.0000 0.99700  0.89000  0.73200  Biso   1.000  C
  N22      1.0000 0.93290  0.96490  0.72850  Biso   1.000  N
  N23      1.0000 0.02570  0.87500  0.72600  Biso   1.000  N
  N24      1.0000 0.00920  0.79210  0.82300  Biso   1.000  N
  O29      1.0000 0.11000  0.78100  0.72800  Biso   1.000  O
  O30      1.0000 0.00700  0.95200  0.65100  Biso   1.000  O
  O31      1.0000 0.07700  0.79900  0.72300  Biso   1.000  O
  O32      1.0000 0.02000  0.00700  0.71000  Biso   1.000  O
  C33      1.0000 0.76300  0.98000  0.36400  Biso   1.000  C
  C34      1.0000 0.64700  0.06040  0.33050  Biso   1.000  C
  C35      1.0000 0.67020  0.10970  0.40200  Biso   1.000  C
  C36      1.0000 0.76800  0.00300  0.39000  Biso   1.000  C
  N25      1.0000 0.77150  0.06710  0.46490  Biso   1.000  N
  N26      1.0000 0.77400  0.97430  0.37500  Biso   1.000  N
  N27      1.0000 0.67700  0.99080  0.29210  Biso   1.000  N
  O33      1.0000 0.77200  0.89000  0.28100  Biso   1.000  O
  O34      1.0000 0.84900  0.99300  0.45200  Biso   1.000  O
  O35      1.0000 0.77700  0.92300  0.29900  Biso   1.000  O
  O36      1.0000 0.79000  0.98000  0.50700  Biso   1.000  O
  C37      1.0000 0.23700  0.48000  0.13600  Biso   1.000  C
  C38      1.0000 0.35300  0.56040  0.16950  Biso   1.000  C
  C39      1.0000 0.32980  0.60970  0.09800  Biso   1.000  C
  C40      1.0000 0.23200  0.50300  0.11000  Biso   1.000  C
  N28      1.0000 0.22850  0.56710  0.03510  Biso   1.000  N
  N29      1.0000 0.22600  0.47430  0.12500  Biso   1.000  N
  N30      1.0000 0.32300  0.49080  0.20790  Biso   1.000  N
  O37      1.0000 0.22800  0.39000  0.21900  Biso   1.000  O
  O38      1.0000 0.15100  0.49300  0.04800  Biso   1.000  O
  O39      1.0000 0.22300  0.42300  0.20100  Biso   1.000  O
  O40      1.0000 0.21000  0.48000  0.99300  Biso   1.000  O
  C41      1.0000 0.26300  0.52000  0.63600  Biso   1.000  C
  C42      1.0000 0.14700  0.43960  0.66950  Biso   1.000  C
  C43      1.0000 0.17020  0.39030  0.59800  Biso   1.000  C
  C44      1.0000 0.26800  0.49700  0.61000  Biso   1.000  C
  N31      1.0000 0.27150  0.43290  0.53510  Biso   1.000  N
  N32      1.0000 0.27400  0.52570  0.62500  Biso   1.000  N
  N33      1.0000 0.17700  0.50920  0.70790  Biso   1.000  N
  O41      1.0000 0.27200  0.61000  0.71900  Biso   1.000  O
  O42      1.0000 0.34900  0.50700  0.54800  Biso   1.000  O
  O43      1.0000 0.27700  0.57700  0.70100  Biso   1.000  O
  O44      1.0000 0.29000  0.52000  0.49300  Biso   1.000  O
  C45      1.0000 0.73700  0.02000  0.86400  Biso   1.000  C
  C46      1.0000 0.85300  0.93960  0.83050  Biso   1.000  C
  C47      1.0000 0.82980  0.89030  0.90200  Biso   1.000  C
  C48      1.0000 0.73200  0.99700  0.89000  Biso   1.000  C
  N34      1.0000 0.72850  0.93290  0.96490  Biso   1.000  N
  N35      1.0000 0.72600  0.02570  0.87500  Biso   1.000  N
  N36      1.0000 0.82300  0.00920  0.79210  Biso   1.000  N
  O45      1.0000 0.72800  0.11000  0.78100  Biso   1.000  O
  O46      1.0000 0.65100  0.00700  0.95200  Biso   1.000  O
  O47      1.0000 0.72300  0.07700  0.79900  Biso   1.000  O
  O48      1.0000 0.71000  0.02000  0.00700  Biso   1.000  O
  Mn1      1.0000 0.62599  0.87401  0.12599  Biso   1.000  Mn
  Mn2      1.0000 0.87401  0.12599  0.62599  Biso   1.000  Mn
  Mn3      1.0000 0.37401  0.37401  0.37401  Biso   1.000  Mn
  Mn4      1.0000 0.12599  0.62599  0.87401  Biso   1.000  Mn
