data_image0
_cell_length_a       12.7544
_cell_length_b       10.6828
_cell_length_c       15.4642
_cell_angle_alpha    90
_cell_angle_beta     90
_cell_angle_gamma    90

_symmetry_space_group_name_H-M    "P 1"
_symmetry_int_tables_number       1

loop_
  _symmetry_equiv_pos_as_xyz
  'x, y, z'

loop_
  _atom_site_label
  _atom_site_occupancy
  _atom_site_fract_x
  _atom_site_fract_y
  _atom_site_fract_z
  _atom_site_thermal_displace_type
  _atom_site_B_iso_or_equiv
  _atom_site_type_symbol
  O1       1.0000 0.36050  0.25810  0.84720  Biso   1.000  O
  O2       1.0000 0.41280  0.40770  0.75770  Biso   1.000  O
  O3       1.0000 0.40800  0.14200  0.43690  Biso   1.000  O
  O4       1.0000 0.38330  0.95460  0.50320  Biso   1.000  O
  C1       1.0000 0.30610  0.26380  0.69710  Biso   1.000  C
  C2       1.0000 0.36190  0.20620  0.63080  Biso   1.000  C
  H1       1.0000 0.43480  0.20790  0.63040  Biso   1.000  H
  C3       1.0000 0.30580  0.14460  0.56340  Biso   1.000  C
  C4       1.0000 0.37470  0.32810  0.76490  Biso   1.000  C
  C5       1.0000 0.37180  0.08990  0.49060  Biso   1.000  C
  O5       1.0000 0.15460  0.89720  0.31770  Biso   1.000  O
  O6       1.0000 0.02100  0.84280  0.24680  Biso   1.000  O
  O7       1.0000 0.03300  0.63850  0.97870  Biso   1.000  O
  O8       1.0000 0.16240  0.52240  0.93670  Biso   1.000  O
  O9       1.0000 0.36050  0.75810  0.34720  Biso   1.000  O
  O10      1.0000 0.41280  0.90770  0.25770  Biso   1.000  O
  O11      1.0000 0.40800  0.64200  0.93690  Biso   1.000  O
  O12      1.0000 0.38330  0.45460  0.00320  Biso   1.000  O
  C6       1.0000 0.30610  0.76380  0.19710  Biso   1.000  C
  C7       1.0000 0.36190  0.70620  0.13080  Biso   1.000  C
  H2       1.0000 0.43480  0.70790  0.13040  Biso   1.000  H
  C8       1.0000 0.30580  0.64460  0.06340  Biso   1.000  C
  C9       1.0000 0.37470  0.82810  0.26490  Biso   1.000  C
  C10      1.0000 0.37180  0.58990  0.99060  Biso   1.000  C
  O13      1.0000 0.15460  0.39720  0.81770  Biso   1.000  O
  O14      1.0000 0.02100  0.34280  0.74680  Biso   1.000  O
  O15      1.0000 0.03300  0.13850  0.47870  Biso   1.000  O
  O16      1.0000 0.16240  0.02240  0.43670  Biso   1.000  O
  O17      1.0000 0.63950  0.74190  0.84720  Biso   1.000  O
  O18      1.0000 0.58720  0.59230  0.75770  Biso   1.000  O
  O19      1.0000 0.59200  0.85800  0.43690  Biso   1.000  O
  O20      1.0000 0.61670  0.04540  0.50320  Biso   1.000  O
  C11      1.0000 0.69390  0.73620  0.69710  Biso   1.000  C
  C12      1.0000 0.63810  0.79380  0.63080  Biso   1.000  C
  H3       1.0000 0.56520  0.79210  0.63040  Biso   1.000  H
  C13      1.0000 0.69420  0.85540  0.56340  Biso   1.000  C
  C14      1.0000 0.62530  0.67190  0.76490  Biso   1.000  C
  C15      1.0000 0.62820  0.91010  0.49060  Biso   1.000  C
  O21      1.0000 0.84540  0.10280  0.31770  Biso   1.000  O
  O22      1.0000 0.97900  0.15720  0.24680  Biso   1.000  O
  O23      1.0000 0.96700  0.36150  0.97870  Biso   1.000  O
  O24      1.0000 0.83760  0.47760  0.93670  Biso   1.000  O
  O25      1.0000 0.63950  0.24190  0.34720  Biso   1.000  O
  O26      1.0000 0.58720  0.09230  0.25770  Biso   1.000  O
  O27      1.0000 0.59200  0.35800  0.93690  Biso   1.000  O
  O28      1.0000 0.61670  0.54540  0.00320  Biso   1.000  O
  C16      1.0000 0.69390  0.23620  0.19710  Biso   1.000  C
  C17      1.0000 0.63810  0.29380  0.13080  Biso   1.000  C
  H4       1.0000 0.56520  0.29210  0.13040  Biso   1.000  H
  C18      1.0000 0.69420  0.35540  0.06340  Biso   1.000  C
  C19      1.0000 0.62530  0.17190  0.26490  Biso   1.000  C
  C20      1.0000 0.62820  0.41010  0.99060  Biso   1.000  C
  O29      1.0000 0.84540  0.60280  0.81770  Biso   1.000  O
  O30      1.0000 0.97900  0.65720  0.74680  Biso   1.000  O
  O31      1.0000 0.96700  0.86150  0.47870  Biso   1.000  O
  O32      1.0000 0.83760  0.97760  0.43670  Biso   1.000  O
  O33      1.0000 0.86050  0.74190  0.84720  Biso   1.000  O
  O34      1.0000 0.91280  0.59230  0.75770  Biso   1.000  O
  O35      1.0000 0.90800  0.85800  0.43690  Biso   1.000  O
  O36      1.0000 0.88330  0.04540  0.50320  Biso   1.000  O
  C21      1.0000 0.80610  0.73620  0.69710  Biso   1.000  C
  C22      1.0000 0.86190  0.79380  0.63080  Biso   1.000  C
  H5       1.0000 0.93480  0.79210  0.63040  Biso   1.000  H
  C23      1.0000 0.80580  0.85540  0.56340  Biso   1.000  C
  C24      1.0000 0.87470  0.67190  0.76490  Biso   1.000  C
  C25      1.0000 0.87180  0.91010  0.49060  Biso   1.000  C
  O37      1.0000 0.65460  0.10280  0.31770  Biso   1.000  O
  O38      1.0000 0.52100  0.15720  0.24680  Biso   1.000  O
  O39      1.0000 0.53300  0.36150  0.97870  Biso   1.000  O
  O40      1.0000 0.66240  0.47760  0.93670  Biso   1.000  O
  O41      1.0000 0.86050  0.24190  0.34720  Biso   1.000  O
  O42      1.0000 0.91280  0.09230  0.25770  Biso   1.000  O
  O43      1.0000 0.90800  0.35800  0.93690  Biso   1.000  O
  O44      1.0000 0.88330  0.54540  0.00320  Biso   1.000  O
  C26      1.0000 0.80610  0.23620  0.19710  Biso   1.000  C
  C27      1.0000 0.86190  0.29380  0.13080  Biso   1.000  C
  H6       1.0000 0.93480  0.29210  0.13040  Biso   1.000  H
  C28      1.0000 0.80580  0.35540  0.06340  Biso   1.000  C
  C29      1.0000 0.87470  0.17190  0.26490  Biso   1.000  C
  C30      1.0000 0.87180  0.41010  0.99060  Biso   1.000  C
  O45      1.0000 0.65460  0.60280  0.81770  Biso   1.000  O
  O46      1.0000 0.52100  0.65720  0.74680  Biso   1.000  O
  O47      1.0000 0.53300  0.86150  0.47870  Biso   1.000  O
  O48      1.0000 0.66240  0.97760  0.43670  Biso   1.000  O
  O49      1.0000 0.13950  0.25810  0.84720  Biso   1.000  O
  O50      1.0000 0.08720  0.40770  0.75770  Biso   1.000  O
  O51      1.0000 0.09200  0.14200  0.43690  Biso   1.000  O
  O52      1.0000 0.11670  0.95460  0.50320  Biso   1.000  O
  C31      1.0000 0.19390  0.26380  0.69710  Biso   1.000  C
  C32      1.0000 0.13810  0.20620  0.63080  Biso   1.000  C
  H7       1.0000 0.06520  0.20790  0.63040  Biso   1.000  H
  C33      1.0000 0.19420  0.14460  0.56340  Biso   1.000  C
  C34      1.0000 0.12530  0.32810  0.76490  Biso   1.000  C
  C35      1.0000 0.12820  0.08990  0.49060  Biso   1.000  C
  O53      1.0000 0.34540  0.89720  0.31770  Biso   1.000  O
  O54      1.0000 0.47900  0.84280  0.24680  Biso   1.000  O
  O55      1.0000 0.46700  0.63850  0.97870  Biso   1.000  O
  O56      1.0000 0.33760  0.52240  0.93670  Biso   1.000  O
  O57      1.0000 0.13950  0.75810  0.34720  Biso   1.000  O
  O58      1.0000 0.08720  0.90770  0.25770  Biso   1.000  O
  O59      1.0000 0.09200  0.64200  0.93690  Biso   1.000  O
  O60      1.0000 0.11670  0.45460  0.00320  Biso   1.000  O
  C36      1.0000 0.19390  0.76380  0.19710  Biso   1.000  C
  C37      1.0000 0.13810  0.70620  0.13080  Biso   1.000  C
  H8       1.0000 0.06520  0.70790  0.13040  Biso   1.000  H
  C38      1.0000 0.19420  0.64460  0.06340  Biso   1.000  C
  C39      1.0000 0.12530  0.82810  0.26490  Biso   1.000  C
  C40      1.0000 0.12820  0.58990  0.99060  Biso   1.000  C
  O61      1.0000 0.34540  0.39720  0.81770  Biso   1.000  O
  O62      1.0000 0.47900  0.34280  0.74680  Biso   1.000  O
  O63      1.0000 0.46700  0.13850  0.47870  Biso   1.000  O
  O64      1.0000 0.33760  0.02240  0.43670  Biso   1.000  O
  Cd1      1.0000 0.25000  0.33177  0.94619  Biso   1.000  Cd
  Cd2      1.0000 0.25000  0.83177  0.44619  Biso   1.000  Cd
  Cd3      1.0000 0.75000  0.66823  0.94619  Biso   1.000  Cd
  Cd4      1.0000 0.75000  0.16823  0.44619  Biso   1.000  Cd
  Cd5      1.0000 0.50000  0.50000  0.86151  Biso   1.000  Cd
  Cd6      1.0000 0.50000  0.00000  0.36151  Biso   1.000  Cd
  Cd7      1.0000 0.00000  0.50000  0.86151  Biso   1.000  Cd
  Cd8      1.0000 0.00000  0.00000  0.36151  Biso   1.000  Cd
