data_image0
_cell_length_a       20.423
_cell_length_b       43.214
_cell_length_c       7.0518
_cell_angle_alpha    90
_cell_angle_beta     90
_cell_angle_gamma    90

_symmetry_space_group_name_H-M    "P 1"
_symmetry_int_tables_number       1

loop_
  _symmetry_equiv_pos_as_xyz
  'x, y, z'

loop_
  _atom_site_label
  _atom_site_occupancy
  _atom_site_fract_x
  _atom_site_fract_y
  _atom_site_fract_z
  _atom_site_thermal_displace_type
  _atom_site_B_iso_or_equiv
  _atom_site_type_symbol
  C1       1.0000 0.62640  0.81198  0.28450  Biso   1.000  C
  C2       1.0000 0.56860  0.83200  0.24480  Biso   1.000  C
  C3       1.0000 0.50940  0.81931  0.18350  Biso   1.000  C
  H1       1.0000 0.50540  0.79800  0.16670  Biso   1.000  H
  C4       1.0000 0.45660  0.83860  0.14770  Biso   1.000  C
  C5       1.0000 0.46280  0.87028  0.17690  Biso   1.000  C
  H2       1.0000 0.42720  0.88330  0.15620  Biso   1.000  H
  C6       1.0000 0.52270  0.88268  0.23760  Biso   1.000  C
  C7       1.0000 0.57510  0.86370  0.26820  Biso   1.000  C
  H3       1.0000 0.61510  0.87200  0.30470  Biso   1.000  H
  C8       1.0000 0.39250  0.82615  0.08140  Biso   1.000  C
  C9       1.0000 0.58590  0.92708  0.30260  Biso   1.000  C
  H4       1.0000 0.61710  0.92070  0.20660  Biso   1.000  H
  H5       1.0000 0.60100  0.91950  0.42450  Biso   1.000  H
  C10      1.0000 0.58120  0.96153  0.30640  Biso   1.000  C
  C11      1.0000 0.58510  0.97704  0.47990  Biso   1.000  C
  H6       1.0000 0.58940  0.96580  0.59180  Biso   1.000  H
  C12      1.0000 0.58250  0.00931  0.48620  Biso   1.000  C
  H7       1.0000 0.58570  0.01950  0.60200  Biso   1.000  H
  C13      1.0000 0.57540  0.02587  0.32380  Biso   1.000  C
  C14      1.0000 0.57080  0.01050  0.15130  Biso   1.000  C
  H8       1.0000 0.56580  0.02170  0.03960  Biso   1.000  H
  C15      1.0000 0.57380  0.97868  0.14530  Biso   1.000  C
  H9       1.0000 0.57070  0.96870  0.02900  Biso   1.000  H
  C16      1.0000 0.57410  0.06080  0.33320  Biso   1.000  C
  H10      1.0000 0.58050  0.06750  0.46310  Biso   1.000  H
  H11      1.0000 0.60930  0.06920  0.25670  Biso   1.000  H
  C17      1.0000 0.50410  0.10316  0.27420  Biso   1.000  C
  C18      1.0000 0.55310  0.12390  0.33300  Biso   1.000  C
  H12      1.0000 0.59440  0.11650  0.36480  Biso   1.000  H
  C19      1.0000 0.54000  0.15494  0.34340  Biso   1.000  C
  C20      1.0000 0.47880  0.16617  0.29270  Biso   1.000  C
  H13      1.0000 0.47020  0.18730  0.29910  Biso   1.000  H
  C21      1.0000 0.43000  0.14572  0.23220  Biso   1.000  C
  C22      1.0000 0.44340  0.11432  0.22400  Biso   1.000  C
  H14      1.0000 0.41100  0.10060  0.18420  Biso   1.000  H
  C23      1.0000 0.36530  0.15860  0.17190  Biso   1.000  C
  C24      1.0000 0.59370  0.17677  0.40750  Biso   1.000  C
  C25      1.0000 0.71700  0.05640  0.92100  Biso   1.000  C
  C26      1.0000 0.71820  0.08780  0.96300  Biso   1.000  C
  O1       1.0000 0.68220  0.82345  0.28910  Biso   1.000  O
  O2       1.0000 0.61520  0.78358  0.31860  Biso   1.000  O
  O3       1.0000 0.38540  0.79772  0.05890  Biso   1.000  O
  O4       1.0000 0.34780  0.84572  0.05330  Biso   1.000  O
  O5       1.0000 0.52350  0.91445  0.26160  Biso   1.000  O
  O6       1.0000 0.51330  0.07175  0.26550  Biso   1.000  O
  O7       1.0000 0.32540  0.14142  0.08790  Biso   1.000  O
  O8       1.0000 0.35440  0.18703  0.20260  Biso   1.000  O
  O9       1.0000 0.57680  0.20441  0.42800  Biso   1.000  O
  O10      1.0000 0.64950  0.16613  0.44090  Biso   1.000  O
  C27      1.0000 0.72460  0.06780  0.63000  Biso   1.000  C
  C28      1.0000 0.72620  0.09870  0.68900  Biso   1.000  C
  C29      1.0000 0.87360  0.68802  0.28450  Biso   1.000  C
  C30      1.0000 0.93140  0.66800  0.24480  Biso   1.000  C
  C31      1.0000 0.99060  0.68069  0.18350  Biso   1.000  C
  H15      1.0000 0.99460  0.70200  0.16670  Biso   1.000  H
  C32      1.0000 0.04340  0.66140  0.14770  Biso   1.000  C
  C33      1.0000 0.03720  0.62972  0.17690  Biso   1.000  C
  H16      1.0000 0.07280  0.61670  0.15620  Biso   1.000  H
  C34      1.0000 0.97730  0.61732  0.23760  Biso   1.000  C
  C35      1.0000 0.92490  0.63630  0.26820  Biso   1.000  C
  H17      1.0000 0.88490  0.62800  0.30470  Biso   1.000  H
  C36      1.0000 0.10750  0.67385  0.08140  Biso   1.000  C
  C37      1.0000 0.91410  0.57292  0.30260  Biso   1.000  C
  H18      1.0000 0.88290  0.57930  0.20660  Biso   1.000  H
  H19      1.0000 0.89900  0.58050  0.42450  Biso   1.000  H
  C38      1.0000 0.91880  0.53847  0.30640  Biso   1.000  C
  C39      1.0000 0.91490  0.52296  0.47990  Biso   1.000  C
  H20      1.0000 0.91060  0.53420  0.59180  Biso   1.000  H
  C40      1.0000 0.91750  0.49069  0.48620  Biso   1.000  C
  H21      1.0000 0.91430  0.48050  0.60200  Biso   1.000  H
  C41      1.0000 0.92460  0.47413  0.32380  Biso   1.000  C
  C42      1.0000 0.92920  0.48950  0.15130  Biso   1.000  C
  H22      1.0000 0.93420  0.47830  0.03960  Biso   1.000  H
  C43      1.0000 0.92620  0.52132  0.14530  Biso   1.000  C
  H23      1.0000 0.92930  0.53130  0.02900  Biso   1.000  H
  C44      1.0000 0.92590  0.43920  0.33320  Biso   1.000  C
  H24      1.0000 0.91950  0.43250  0.46310  Biso   1.000  H
  H25      1.0000 0.89070  0.43080  0.25670  Biso   1.000  H
  C45      1.0000 0.99590  0.39684  0.27420  Biso   1.000  C
  C46      1.0000 0.94690  0.37610  0.33300  Biso   1.000  C
  H26      1.0000 0.90560  0.38350  0.36480  Biso   1.000  H
  C47      1.0000 0.96000  0.34506  0.34340  Biso   1.000  C
  C48      1.0000 0.02120  0.33383  0.29270  Biso   1.000  C
  H27      1.0000 0.02980  0.31270  0.29910  Biso   1.000  H
  C49      1.0000 0.07000  0.35428  0.23220  Biso   1.000  C
  C50      1.0000 0.05660  0.38568  0.22400  Biso   1.000  C
  H28      1.0000 0.08900  0.39940  0.18420  Biso   1.000  H
  C51      1.0000 0.13470  0.34140  0.17190  Biso   1.000  C
  C52      1.0000 0.90630  0.32323  0.40750  Biso   1.000  C
  C53      1.0000 0.78300  0.44360  0.92100  Biso   1.000  C
  C54      1.0000 0.78180  0.41220  0.96300  Biso   1.000  C
  O11      1.0000 0.81780  0.67655  0.28910  Biso   1.000  O
  O12      1.0000 0.88480  0.71642  0.31860  Biso   1.000  O
  O13      1.0000 0.11460  0.70228  0.05890  Biso   1.000  O
  O14      1.0000 0.15220  0.65428  0.05330  Biso   1.000  O
  O15      1.0000 0.97650  0.58555  0.26160  Biso   1.000  O
  O16      1.0000 0.98670  0.42825  0.26550  Biso   1.000  O
  O17      1.0000 0.17460  0.35858  0.08790  Biso   1.000  O
  O18      1.0000 0.14560  0.31297  0.20260  Biso   1.000  O
  O19      1.0000 0.92320  0.29559  0.42800  Biso   1.000  O
  O20      1.0000 0.85050  0.33387  0.44090  Biso   1.000  O
  C55      1.0000 0.77540  0.43220  0.63000  Biso   1.000  C
  C56      1.0000 0.77380  0.40130  0.68900  Biso   1.000  C
  C57      1.0000 0.37360  0.31198  0.71550  Biso   1.000  C
  C58      1.0000 0.43140  0.33200  0.75520  Biso   1.000  C
  C59      1.0000 0.49060  0.31931  0.81650  Biso   1.000  C
  H29      1.0000 0.49460  0.29800  0.83330  Biso   1.000  H
  C60      1.0000 0.54340  0.33860  0.85230  Biso   1.000  C
  C61      1.0000 0.53720  0.37028  0.82310  Biso   1.000  C
  H30      1.0000 0.57280  0.38330  0.84380  Biso   1.000  H
  C62      1.0000 0.47730  0.38268  0.76240  Biso   1.000  C
  C63      1.0000 0.42490  0.36370  0.73180  Biso   1.000  C
  H31      1.0000 0.38490  0.37200  0.69530  Biso   1.000  H
  C64      1.0000 0.60750  0.32615  0.91860  Biso   1.000  C
  C65      1.0000 0.41410  0.42708  0.69740  Biso   1.000  C
  H32      1.0000 0.38290  0.42070  0.79340  Biso   1.000  H
  H33      1.0000 0.39900  0.41950  0.57550  Biso   1.000  H
  C66      1.0000 0.41880  0.46153  0.69360  Biso   1.000  C
  C67      1.0000 0.41490  0.47704  0.52010  Biso   1.000  C
  H34      1.0000 0.41060  0.46580  0.40820  Biso   1.000  H
  C68      1.0000 0.41750  0.50931  0.51380  Biso   1.000  C
  H35      1.0000 0.41430  0.51950  0.39800  Biso   1.000  H
  C69      1.0000 0.42460  0.52587  0.67620  Biso   1.000  C
  C70      1.0000 0.42920  0.51050  0.84870  Biso   1.000  C
  H36      1.0000 0.43420  0.52170  0.96040  Biso   1.000  H
  C71      1.0000 0.42620  0.47868  0.85470  Biso   1.000  C
  H37      1.0000 0.42930  0.46870  0.97100  Biso   1.000  H
  C72      1.0000 0.42590  0.56080  0.66680  Biso   1.000  C
  H38      1.0000 0.41950  0.56750  0.53690  Biso   1.000  H
  H39      1.0000 0.39070  0.56920  0.74330  Biso   1.000  H
  C73      1.0000 0.49590  0.60316  0.72580  Biso   1.000  C
  C74      1.0000 0.44690  0.62390  0.66700  Biso   1.000  C
  H40      1.0000 0.40560  0.61650  0.63520  Biso   1.000  H
  C75      1.0000 0.46000  0.65494  0.65660  Biso   1.000  C
  C76      1.0000 0.52120  0.66617  0.70730  Biso   1.000  C
  H41      1.0000 0.52980  0.68730  0.70090  Biso   1.000  H
  C77      1.0000 0.57000  0.64572  0.76780  Biso   1.000  C
  C78      1.0000 0.55660  0.61432  0.77600  Biso   1.000  C
  H42      1.0000 0.58900  0.60060  0.81580  Biso   1.000  H
  C79      1.0000 0.63470  0.65860  0.82810  Biso   1.000  C
  C80      1.0000 0.40630  0.67677  0.59250  Biso   1.000  C
  C81      1.0000 0.28300  0.55640  0.07900  Biso   1.000  C
  C82      1.0000 0.28180  0.58780  0.03700  Biso   1.000  C
  O21      1.0000 0.31780  0.32345  0.71090  Biso   1.000  O
  O22      1.0000 0.38480  0.28358  0.68140  Biso   1.000  O
  O23      1.0000 0.61460  0.29772  0.94110  Biso   1.000  O
  O24      1.0000 0.65220  0.34572  0.94670  Biso   1.000  O
  O25      1.0000 0.47650  0.41445  0.73840  Biso   1.000  O
  O26      1.0000 0.48670  0.57175  0.73450  Biso   1.000  O
  O27      1.0000 0.67460  0.64142  0.91210  Biso   1.000  O
  O28      1.0000 0.64560  0.68703  0.79740  Biso   1.000  O
  O29      1.0000 0.42320  0.70441  0.57200  Biso   1.000  O
  O30      1.0000 0.35050  0.66613  0.55910  Biso   1.000  O
  C83      1.0000 0.27540  0.56780  0.37000  Biso   1.000  C
  C84      1.0000 0.27380  0.59870  0.31100  Biso   1.000  C
  C85      1.0000 0.12640  0.18802  0.71550  Biso   1.000  C
  C86      1.0000 0.06860  0.16800  0.75520  Biso   1.000  C
  C87      1.0000 0.00940  0.18069  0.81650  Biso   1.000  C
  H43      1.0000 0.00540  0.20200  0.83330  Biso   1.000  H
  C88      1.0000 0.95660  0.16140  0.85230  Biso   1.000  C
  C89      1.0000 0.96280  0.12972  0.82310  Biso   1.000  C
  H44      1.0000 0.92720  0.11670  0.84380  Biso   1.000  H
  C90      1.0000 0.02270  0.11732  0.76240  Biso   1.000  C
  C91      1.0000 0.07510  0.13630  0.73180  Biso   1.000  C
  H45      1.0000 0.11510  0.12800  0.69530  Biso   1.000  H
  C92      1.0000 0.89250  0.17385  0.91860  Biso   1.000  C
  C93      1.0000 0.08590  0.07292  0.69740  Biso   1.000  C
  H46      1.0000 0.11710  0.07930  0.79340  Biso   1.000  H
  H47      1.0000 0.10100  0.08050  0.57550  Biso   1.000  H
  C94      1.0000 0.08120  0.03847  0.69360  Biso   1.000  C
  C95      1.0000 0.08510  0.02296  0.52010  Biso   1.000  C
  H48      1.0000 0.08940  0.03420  0.40820  Biso   1.000  H
  C96      1.0000 0.08250  0.99069  0.51380  Biso   1.000  C
  H49      1.0000 0.08570  0.98050  0.39800  Biso   1.000  H
  C97      1.0000 0.07540  0.97413  0.67620  Biso   1.000  C
  C98      1.0000 0.07080  0.98950  0.84870  Biso   1.000  C
  H50      1.0000 0.06580  0.97830  0.96040  Biso   1.000  H
  C99      1.0000 0.07380  0.02132  0.85470  Biso   1.000  C
  H51      1.0000 0.07070  0.03130  0.97100  Biso   1.000  H
  C100     1.0000 0.07410  0.93920  0.66680  Biso   1.000  C
  H52      1.0000 0.08050  0.93250  0.53690  Biso   1.000  H
  H53      1.0000 0.10930  0.93080  0.74330  Biso   1.000  H
  C101     1.0000 0.00410  0.89684  0.72580  Biso   1.000  C
  C102     1.0000 0.05310  0.87610  0.66700  Biso   1.000  C
  H54      1.0000 0.09440  0.88350  0.63520  Biso   1.000  H
  C103     1.0000 0.04000  0.84506  0.65660  Biso   1.000  C
  C104     1.0000 0.97880  0.83383  0.70730  Biso   1.000  C
  H55      1.0000 0.97020  0.81270  0.70090  Biso   1.000  H
  C105     1.0000 0.93000  0.85428  0.76780  Biso   1.000  C
  C106     1.0000 0.94340  0.88568  0.77600  Biso   1.000  C
  H56      1.0000 0.91100  0.89940  0.81580  Biso   1.000  H
  C107     1.0000 0.86530  0.84140  0.82810  Biso   1.000  C
  C108     1.0000 0.09370  0.82323  0.59250  Biso   1.000  C
  C109     1.0000 0.21700  0.94360  0.07900  Biso   1.000  C
  C110     1.0000 0.21820  0.91220  0.03700  Biso   1.000  C
  O31      1.0000 0.18220  0.17655  0.71090  Biso   1.000  O
  O32      1.0000 0.11520  0.21642  0.68140  Biso   1.000  O
  O33      1.0000 0.88540  0.20228  0.94110  Biso   1.000  O
  O34      1.0000 0.84780  0.15428  0.94670  Biso   1.000  O
  O35      1.0000 0.02350  0.08555  0.73840  Biso   1.000  O
  O36      1.0000 0.01330  0.92825  0.73450  Biso   1.000  O
  O37      1.0000 0.82540  0.85858  0.91210  Biso   1.000  O
  O38      1.0000 0.85440  0.81297  0.79740  Biso   1.000  O
  O39      1.0000 0.07680  0.79559  0.57200  Biso   1.000  O
  O40      1.0000 0.14950  0.83387  0.55910  Biso   1.000  O
  C111     1.0000 0.22460  0.93220  0.37000  Biso   1.000  C
  C112     1.0000 0.22620  0.90130  0.31100  Biso   1.000  C
  C113     1.0000 0.37360  0.18802  0.71550  Biso   1.000  C
  C114     1.0000 0.43140  0.16800  0.75520  Biso   1.000  C
  C115     1.0000 0.49060  0.18069  0.81650  Biso   1.000  C
  H57      1.0000 0.49460  0.20200  0.83330  Biso   1.000  H
  C116     1.0000 0.54340  0.16140  0.85230  Biso   1.000  C
  C117     1.0000 0.53720  0.12972  0.82310  Biso   1.000  C
  H58      1.0000 0.57280  0.11670  0.84380  Biso   1.000  H
  C118     1.0000 0.47730  0.11732  0.76240  Biso   1.000  C
  C119     1.0000 0.42490  0.13630  0.73180  Biso   1.000  C
  H59      1.0000 0.38490  0.12800  0.69530  Biso   1.000  H
  C120     1.0000 0.60750  0.17385  0.91860  Biso   1.000  C
  C121     1.0000 0.41410  0.07292  0.69740  Biso   1.000  C
  H60      1.0000 0.38290  0.07930  0.79340  Biso   1.000  H
  H61      1.0000 0.39900  0.08050  0.57550  Biso   1.000  H
  C122     1.0000 0.41880  0.03847  0.69360  Biso   1.000  C
  C123     1.0000 0.41490  0.02296  0.52010  Biso   1.000  C
  H62      1.0000 0.41060  0.03420  0.40820  Biso   1.000  H
  C124     1.0000 0.41750  0.99069  0.51380  Biso   1.000  C
  H63      1.0000 0.41430  0.98050  0.39800  Biso   1.000  H
  C125     1.0000 0.42460  0.97413  0.67620  Biso   1.000  C
  C126     1.0000 0.42920  0.98950  0.84870  Biso   1.000  C
  H64      1.0000 0.43420  0.97830  0.96040  Biso   1.000  H
  C127     1.0000 0.42620  0.02132  0.85470  Biso   1.000  C
  H65      1.0000 0.42930  0.03130  0.97100  Biso   1.000  H
  C128     1.0000 0.42590  0.93920  0.66680  Biso   1.000  C
  H66      1.0000 0.41950  0.93250  0.53690  Biso   1.000  H
  H67      1.0000 0.39070  0.93080  0.74330  Biso   1.000  H
  C129     1.0000 0.49590  0.89684  0.72580  Biso   1.000  C
  C130     1.0000 0.44690  0.87610  0.66700  Biso   1.000  C
  H68      1.0000 0.40560  0.88350  0.63520  Biso   1.000  H
  C131     1.0000 0.46000  0.84506  0.65660  Biso   1.000  C
  C132     1.0000 0.52120  0.83383  0.70730  Biso   1.000  C
  H69      1.0000 0.52980  0.81270  0.70090  Biso   1.000  H
  C133     1.0000 0.57000  0.85428  0.76780  Biso   1.000  C
  C134     1.0000 0.55660  0.88568  0.77600  Biso   1.000  C
  H70      1.0000 0.58900  0.89940  0.81580  Biso   1.000  H
  C135     1.0000 0.63470  0.84140  0.82810  Biso   1.000  C
  C136     1.0000 0.40630  0.82323  0.59250  Biso   1.000  C
  C137     1.0000 0.28300  0.94360  0.07900  Biso   1.000  C
  C138     1.0000 0.28180  0.91220  0.03700  Biso   1.000  C
  O41      1.0000 0.31780  0.17655  0.71090  Biso   1.000  O
  O42      1.0000 0.38480  0.21642  0.68140  Biso   1.000  O
  O43      1.0000 0.61460  0.20228  0.94110  Biso   1.000  O
  O44      1.0000 0.65220  0.15428  0.94670  Biso   1.000  O
  O45      1.0000 0.47650  0.08555  0.73840  Biso   1.000  O
  O46      1.0000 0.48670  0.92825  0.73450  Biso   1.000  O
  O47      1.0000 0.67460  0.85858  0.91210  Biso   1.000  O
  O48      1.0000 0.64560  0.81297  0.79740  Biso   1.000  O
  O49      1.0000 0.42320  0.79559  0.57200  Biso   1.000  O
  O50      1.0000 0.35050  0.83387  0.55910  Biso   1.000  O
  C139     1.0000 0.27540  0.93220  0.37000  Biso   1.000  C
  C140     1.0000 0.27380  0.90130  0.31100  Biso   1.000  C
  C141     1.0000 0.12640  0.31198  0.71550  Biso   1.000  C
  C142     1.0000 0.06860  0.33200  0.75520  Biso   1.000  C
  C143     1.0000 0.00940  0.31931  0.81650  Biso   1.000  C
  H71      1.0000 0.00540  0.29800  0.83330  Biso   1.000  H
  C144     1.0000 0.95660  0.33860  0.85230  Biso   1.000  C
  C145     1.0000 0.96280  0.37028  0.82310  Biso   1.000  C
  H72      1.0000 0.92720  0.38330  0.84380  Biso   1.000  H
  C146     1.0000 0.02270  0.38268  0.76240  Biso   1.000  C
  C147     1.0000 0.07510  0.36370  0.73180  Biso   1.000  C
  H73      1.0000 0.11510  0.37200  0.69530  Biso   1.000  H
  C148     1.0000 0.89250  0.32615  0.91860  Biso   1.000  C
  C149     1.0000 0.08590  0.42708  0.69740  Biso   1.000  C
  H74      1.0000 0.11710  0.42070  0.79340  Biso   1.000  H
  H75      1.0000 0.10100  0.41950  0.57550  Biso   1.000  H
  C150     1.0000 0.08120  0.46153  0.69360  Biso   1.000  C
  C151     1.0000 0.08510  0.47704  0.52010  Biso   1.000  C
  H76      1.0000 0.08940  0.46580  0.40820  Biso   1.000  H
  C152     1.0000 0.08250  0.50931  0.51380  Biso   1.000  C
  H77      1.0000 0.08570  0.51950  0.39800  Biso   1.000  H
  C153     1.0000 0.07540  0.52587  0.67620  Biso   1.000  C
  C154     1.0000 0.07080  0.51050  0.84870  Biso   1.000  C
  H78      1.0000 0.06580  0.52170  0.96040  Biso   1.000  H
  C155     1.0000 0.07380  0.47868  0.85470  Biso   1.000  C
  H79      1.0000 0.07070  0.46870  0.97100  Biso   1.000  H
  C156     1.0000 0.07410  0.56080  0.66680  Biso   1.000  C
  H80      1.0000 0.08050  0.56750  0.53690  Biso   1.000  H
  H81      1.0000 0.10930  0.56920  0.74330  Biso   1.000  H
  C157     1.0000 0.00410  0.60316  0.72580  Biso   1.000  C
  C158     1.0000 0.05310  0.62390  0.66700  Biso   1.000  C
  H82      1.0000 0.09440  0.61650  0.63520  Biso   1.000  H
  C159     1.0000 0.04000  0.65494  0.65660  Biso   1.000  C
  C160     1.0000 0.97880  0.66617  0.70730  Biso   1.000  C
  H83      1.0000 0.97020  0.68730  0.70090  Biso   1.000  H
  C161     1.0000 0.93000  0.64572  0.76780  Biso   1.000  C
  C162     1.0000 0.94340  0.61432  0.77600  Biso   1.000  C
  H84      1.0000 0.91100  0.60060  0.81580  Biso   1.000  H
  C163     1.0000 0.86530  0.65860  0.82810  Biso   1.000  C
  C164     1.0000 0.09370  0.67677  0.59250  Biso   1.000  C
  C165     1.0000 0.21700  0.55640  0.07900  Biso   1.000  C
  C166     1.0000 0.21820  0.58780  0.03700  Biso   1.000  C
  O51      1.0000 0.18220  0.32345  0.71090  Biso   1.000  O
  O52      1.0000 0.11520  0.28358  0.68140  Biso   1.000  O
  O53      1.0000 0.88540  0.29772  0.94110  Biso   1.000  O
  O54      1.0000 0.84780  0.34572  0.94670  Biso   1.000  O
  O55      1.0000 0.02350  0.41445  0.73840  Biso   1.000  O
  O56      1.0000 0.01330  0.57175  0.73450  Biso   1.000  O
  O57      1.0000 0.82540  0.64142  0.91210  Biso   1.000  O
  O58      1.0000 0.85440  0.68703  0.79740  Biso   1.000  O
  O59      1.0000 0.07680  0.70441  0.57200  Biso   1.000  O
  O60      1.0000 0.14950  0.66613  0.55910  Biso   1.000  O
  C167     1.0000 0.22460  0.56780  0.37000  Biso   1.000  C
  C168     1.0000 0.22620  0.59870  0.31100  Biso   1.000  C
  C169     1.0000 0.62640  0.68802  0.28450  Biso   1.000  C
  C170     1.0000 0.56860  0.66800  0.24480  Biso   1.000  C
  C171     1.0000 0.50940  0.68069  0.18350  Biso   1.000  C
  H85      1.0000 0.50540  0.70200  0.16670  Biso   1.000  H
  C172     1.0000 0.45660  0.66140  0.14770  Biso   1.000  C
  C173     1.0000 0.46280  0.62972  0.17690  Biso   1.000  C
  H86      1.0000 0.42720  0.61670  0.15620  Biso   1.000  H
  C174     1.0000 0.52270  0.61732  0.23760  Biso   1.000  C
  C175     1.0000 0.57510  0.63630  0.26820  Biso   1.000  C
  H87      1.0000 0.61510  0.62800  0.30470  Biso   1.000  H
  C176     1.0000 0.39250  0.67385  0.08140  Biso   1.000  C
  C177     1.0000 0.58590  0.57292  0.30260  Biso   1.000  C
  H88      1.0000 0.61710  0.57930  0.20660  Biso   1.000  H
  H89      1.0000 0.60100  0.58050  0.42450  Biso   1.000  H
  C178     1.0000 0.58120  0.53847  0.30640  Biso   1.000  C
  C179     1.0000 0.58510  0.52296  0.47990  Biso   1.000  C
  H90      1.0000 0.58940  0.53420  0.59180  Biso   1.000  H
  C180     1.0000 0.58250  0.49069  0.48620  Biso   1.000  C
  H91      1.0000 0.58570  0.48050  0.60200  Biso   1.000  H
  C181     1.0000 0.57540  0.47413  0.32380  Biso   1.000  C
  C182     1.0000 0.57080  0.48950  0.15130  Biso   1.000  C
  H92      1.0000 0.56580  0.47830  0.03960  Biso   1.000  H
  C183     1.0000 0.57380  0.52132  0.14530  Biso   1.000  C
  H93      1.0000 0.57070  0.53130  0.02900  Biso   1.000  H
  C184     1.0000 0.57410  0.43920  0.33320  Biso   1.000  C
  H94      1.0000 0.58050  0.43250  0.46310  Biso   1.000  H
  H95      1.0000 0.60930  0.43080  0.25670  Biso   1.000  H
  C185     1.0000 0.50410  0.39684  0.27420  Biso   1.000  C
  C186     1.0000 0.55310  0.37610  0.33300  Biso   1.000  C
  H96      1.0000 0.59440  0.38350  0.36480  Biso   1.000  H
  C187     1.0000 0.54000  0.34506  0.34340  Biso   1.000  C
  C188     1.0000 0.47880  0.33383  0.29270  Biso   1.000  C
  H97      1.0000 0.47020  0.31270  0.29910  Biso   1.000  H
  C189     1.0000 0.43000  0.35428  0.23220  Biso   1.000  C
  C190     1.0000 0.44340  0.38568  0.22400  Biso   1.000  C
  H98      1.0000 0.41100  0.39940  0.18420  Biso   1.000  H
  C191     1.0000 0.36530  0.34140  0.17190  Biso   1.000  C
  C192     1.0000 0.59370  0.32323  0.40750  Biso   1.000  C
  C193     1.0000 0.71700  0.44360  0.92100  Biso   1.000  C
  C194     1.0000 0.71820  0.41220  0.96300  Biso   1.000  C
  O61      1.0000 0.68220  0.67655  0.28910  Biso   1.000  O
  O62      1.0000 0.61520  0.71642  0.31860  Biso   1.000  O
  O63      1.0000 0.38540  0.70228  0.05890  Biso   1.000  O
  O64      1.0000 0.34780  0.65428  0.05330  Biso   1.000  O
  O65      1.0000 0.52350  0.58555  0.26160  Biso   1.000  O
  O66      1.0000 0.51330  0.42825  0.26550  Biso   1.000  O
  O67      1.0000 0.32540  0.35858  0.08790  Biso   1.000  O
  O68      1.0000 0.35440  0.31297  0.20260  Biso   1.000  O
  O69      1.0000 0.57680  0.29559  0.42800  Biso   1.000  O
  O70      1.0000 0.64950  0.33387  0.44090  Biso   1.000  O
  C195     1.0000 0.72460  0.43220  0.63000  Biso   1.000  C
  C196     1.0000 0.72620  0.40130  0.68900  Biso   1.000  C
  C197     1.0000 0.87360  0.81198  0.28450  Biso   1.000  C
  C198     1.0000 0.93140  0.83200  0.24480  Biso   1.000  C
  C199     1.0000 0.99060  0.81931  0.18350  Biso   1.000  C
  H99      1.0000 0.99460  0.79800  0.16670  Biso   1.000  H
  C200     1.0000 0.04340  0.83860  0.14770  Biso   1.000  C
  C201     1.0000 0.03720  0.87028  0.17690  Biso   1.000  C
  H100     1.0000 0.07280  0.88330  0.15620  Biso   1.000  H
  C202     1.0000 0.97730  0.88268  0.23760  Biso   1.000  C
  C203     1.0000 0.92490  0.86370  0.26820  Biso   1.000  C
  H101     1.0000 0.88490  0.87200  0.30470  Biso   1.000  H
  C204     1.0000 0.10750  0.82615  0.08140  Biso   1.000  C
  C205     1.0000 0.91410  0.92708  0.30260  Biso   1.000  C
  H102     1.0000 0.88290  0.92070  0.20660  Biso   1.000  H
  H103     1.0000 0.89900  0.91950  0.42450  Biso   1.000  H
  C206     1.0000 0.91880  0.96153  0.30640  Biso   1.000  C
  C207     1.0000 0.91490  0.97704  0.47990  Biso   1.000  C
  H104     1.0000 0.91060  0.96580  0.59180  Biso   1.000  H
  C208     1.0000 0.91750  0.00931  0.48620  Biso   1.000  C
  H105     1.0000 0.91430  0.01950  0.60200  Biso   1.000  H
  C209     1.0000 0.92460  0.02587  0.32380  Biso   1.000  C
  C210     1.0000 0.92920  0.01050  0.15130  Biso   1.000  C
  H106     1.0000 0.93420  0.02170  0.03960  Biso   1.000  H
  C211     1.0000 0.92620  0.97868  0.14530  Biso   1.000  C
  H107     1.0000 0.92930  0.96870  0.02900  Biso   1.000  H
  C212     1.0000 0.92590  0.06080  0.33320  Biso   1.000  C
  H108     1.0000 0.91950  0.06750  0.46310  Biso   1.000  H
  H109     1.0000 0.89070  0.06920  0.25670  Biso   1.000  H
  C213     1.0000 0.99590  0.10316  0.27420  Biso   1.000  C
  C214     1.0000 0.94690  0.12390  0.33300  Biso   1.000  C
  H110     1.0000 0.90560  0.11650  0.36480  Biso   1.000  H
  C215     1.0000 0.96000  0.15494  0.34340  Biso   1.000  C
  C216     1.0000 0.02120  0.16617  0.29270  Biso   1.000  C
  H111     1.0000 0.02980  0.18730  0.29910  Biso   1.000  H
  C217     1.0000 0.07000  0.14572  0.23220  Biso   1.000  C
  C218     1.0000 0.05660  0.11432  0.22400  Biso   1.000  C
  H112     1.0000 0.08900  0.10060  0.18420  Biso   1.000  H
  C219     1.0000 0.13470  0.15860  0.17190  Biso   1.000  C
  C220     1.0000 0.90630  0.17677  0.40750  Biso   1.000  C
  C221     1.0000 0.78300  0.05640  0.92100  Biso   1.000  C
  C222     1.0000 0.78180  0.08780  0.96300  Biso   1.000  C
  O71      1.0000 0.81780  0.82345  0.28910  Biso   1.000  O
  O72      1.0000 0.88480  0.78358  0.31860  Biso   1.000  O
  O73      1.0000 0.11460  0.79772  0.05890  Biso   1.000  O
  O74      1.0000 0.15220  0.84572  0.05330  Biso   1.000  O
  O75      1.0000 0.97650  0.91445  0.26160  Biso   1.000  O
  O76      1.0000 0.98670  0.07175  0.26550  Biso   1.000  O
  O77      1.0000 0.17460  0.14142  0.08790  Biso   1.000  O
  O78      1.0000 0.14560  0.18703  0.20260  Biso   1.000  O
  O79      1.0000 0.92320  0.20441  0.42800  Biso   1.000  O
  O80      1.0000 0.85050  0.16613  0.44090  Biso   1.000  O
  C223     1.0000 0.77540  0.06780  0.63000  Biso   1.000  C
  C224     1.0000 0.77380  0.09870  0.68900  Biso   1.000  C
  Co1      1.0000 0.75000  0.84311  0.08890  Biso   1.000  Co
  C225     1.0000 0.75000  0.88440  0.43970  Biso   1.000  C
  H113     1.0000 0.75000  0.86510  0.49870  Biso   1.000  H
  C226     1.0000 0.75000  0.91040  0.55410  Biso   1.000  C
  H114     1.0000 0.75000  0.90840  0.68540  Biso   1.000  H
  C227     1.0000 0.75000  0.93960  0.46980  Biso   1.000  C
  C228     1.0000 0.75000  0.94080  0.27240  Biso   1.000  C
  H115     1.0000 0.75000  0.95980  0.21000  Biso   1.000  H
  C229     1.0000 0.75000  0.91310  0.16860  Biso   1.000  C
  H116     1.0000 0.75000  0.91420  0.03690  Biso   1.000  H
  C230     1.0000 0.75000  0.96650  0.59770  Biso   1.000  C
  C231     1.0000 0.75000  0.01280  0.71980  Biso   1.000  C
  C232     1.0000 0.75000  0.04630  0.75270  Biso   1.000  C
  N1       1.0000 0.75000  0.88503  0.25010  Biso   1.000  N
  N2       1.0000 0.75000  0.99270  0.86000  Biso   1.000  N
  N3       1.0000 0.75000  0.96330  0.78280  Biso   1.000  N
  N4       1.0000 0.75000  0.99723  0.55200  Biso   1.000  N
  N5       1.0000 0.75000  0.01180  0.37400  Biso   1.000  N
  H117     1.0000 0.75000  0.03170  0.36710  Biso   1.000  H
  H118     1.0000 0.75000  0.00090  0.27210  Biso   1.000  H
  N6       1.0000 0.75000  0.10908  0.85060  Biso   1.000  N
  O81      1.0000 0.75000  0.78319  0.51600  Biso   1.000  O
  Co2      1.0000 0.75000  0.65689  0.08890  Biso   1.000  Co
  C233     1.0000 0.75000  0.61560  0.43970  Biso   1.000  C
  H119     1.0000 0.75000  0.63490  0.49870  Biso   1.000  H
  C234     1.0000 0.75000  0.58960  0.55410  Biso   1.000  C
  H120     1.0000 0.75000  0.59160  0.68540  Biso   1.000  H
  C235     1.0000 0.75000  0.56040  0.46980  Biso   1.000  C
  C236     1.0000 0.75000  0.55920  0.27240  Biso   1.000  C
  H121     1.0000 0.75000  0.54020  0.21000  Biso   1.000  H
  C237     1.0000 0.75000  0.58690  0.16860  Biso   1.000  C
  H122     1.0000 0.75000  0.58580  0.03690  Biso   1.000  H
  C238     1.0000 0.75000  0.53350  0.59770  Biso   1.000  C
  C239     1.0000 0.75000  0.48720  0.71980  Biso   1.000  C
  C240     1.0000 0.75000  0.45370  0.75270  Biso   1.000  C
  N7       1.0000 0.75000  0.61497  0.25010  Biso   1.000  N
  N8       1.0000 0.75000  0.50730  0.86000  Biso   1.000  N
  N9       1.0000 0.75000  0.53670  0.78280  Biso   1.000  N
  N10      1.0000 0.75000  0.50277  0.55200  Biso   1.000  N
  N11      1.0000 0.75000  0.48820  0.37400  Biso   1.000  N
  H123     1.0000 0.75000  0.46830  0.36710  Biso   1.000  H
  H124     1.0000 0.75000  0.49910  0.27210  Biso   1.000  H
  N12      1.0000 0.75000  0.39092  0.85060  Biso   1.000  N
  O82      1.0000 0.75000  0.71681  0.51600  Biso   1.000  O
  Co3      1.0000 0.25000  0.34311  0.91110  Biso   1.000  Co
  C241     1.0000 0.25000  0.38440  0.56030  Biso   1.000  C
  H125     1.0000 0.25000  0.36510  0.50130  Biso   1.000  H
  C242     1.0000 0.25000  0.41040  0.44590  Biso   1.000  C
  H126     1.0000 0.25000  0.40840  0.31460  Biso   1.000  H
  C243     1.0000 0.25000  0.43960  0.53020  Biso   1.000  C
  C244     1.0000 0.25000  0.44080  0.72760  Biso   1.000  C
  H127     1.0000 0.25000  0.45980  0.79000  Biso   1.000  H
  C245     1.0000 0.25000  0.41310  0.83140  Biso   1.000  C
  H128     1.0000 0.25000  0.41420  0.96310  Biso   1.000  H
  C246     1.0000 0.25000  0.46650  0.40230  Biso   1.000  C
  C247     1.0000 0.25000  0.51280  0.28020  Biso   1.000  C
  C248     1.0000 0.25000  0.54630  0.24730  Biso   1.000  C
  N13      1.0000 0.25000  0.38503  0.74990  Biso   1.000  N
  N14      1.0000 0.25000  0.49270  0.14000  Biso   1.000  N
  N15      1.0000 0.25000  0.46330  0.21720  Biso   1.000  N
  N16      1.0000 0.25000  0.49723  0.44800  Biso   1.000  N
  N17      1.0000 0.25000  0.51180  0.62600  Biso   1.000  N
  H129     1.0000 0.25000  0.53170  0.63290  Biso   1.000  H
  H130     1.0000 0.25000  0.50090  0.72790  Biso   1.000  H
  N18      1.0000 0.25000  0.60908  0.14940  Biso   1.000  N
  O83      1.0000 0.25000  0.28319  0.48400  Biso   1.000  O
  Co4      1.0000 0.25000  0.15689  0.91110  Biso   1.000  Co
  C249     1.0000 0.25000  0.11560  0.56030  Biso   1.000  C
  H131     1.0000 0.25000  0.13490  0.50130  Biso   1.000  H
  C250     1.0000 0.25000  0.08960  0.44590  Biso   1.000  C
  H132     1.0000 0.25000  0.09160  0.31460  Biso   1.000  H
  C251     1.0000 0.25000  0.06040  0.53020  Biso   1.000  C
  C252     1.0000 0.25000  0.05920  0.72760  Biso   1.000  C
  H133     1.0000 0.25000  0.04020  0.79000  Biso   1.000  H
  C253     1.0000 0.25000  0.08690  0.83140  Biso   1.000  C
  H134     1.0000 0.25000  0.08580  0.96310  Biso   1.000  H
  C254     1.0000 0.25000  0.03350  0.40230  Biso   1.000  C
  C255     1.0000 0.25000  0.98720  0.28020  Biso   1.000  C
  C256     1.0000 0.25000  0.95370  0.24730  Biso   1.000  C
  N19      1.0000 0.25000  0.11497  0.74990  Biso   1.000  N
  N20      1.0000 0.25000  0.00730  0.14000  Biso   1.000  N
  N21      1.0000 0.25000  0.03670  0.21720  Biso   1.000  N
  N22      1.0000 0.25000  0.00277  0.44800  Biso   1.000  N
  N23      1.0000 0.25000  0.98820  0.62600  Biso   1.000  N
  H135     1.0000 0.25000  0.96830  0.63290  Biso   1.000  H
  H136     1.0000 0.25000  0.99910  0.72790  Biso   1.000  H
  N24      1.0000 0.25000  0.89092  0.14940  Biso   1.000  N
  O84      1.0000 0.25000  0.21681  0.48400  Biso   1.000  O
  Co5      1.0000 0.25000  0.84292  0.05065  Biso   1.000  Co
  Co6      1.0000 0.25000  0.65708  0.05065  Biso   1.000  Co
  Co7      1.0000 0.75000  0.34292  0.94935  Biso   1.000  Co
  Co8      1.0000 0.75000  0.15708  0.94935  Biso   1.000  Co
  Co9      1.0000 0.67566  0.75000  0.41050  Biso   1.000  Co
  Co10     1.0000 0.82434  0.75000  0.41050  Biso   1.000  Co
  Co11     1.0000 0.32434  0.25000  0.58950  Biso   1.000  Co
  Co12     1.0000 0.17566  0.25000  0.58950  Biso   1.000  Co
  Co13     1.0000 0.58975  0.25000  0.43130  Biso   1.000  Co
  Co14     1.0000 0.91025  0.25000  0.43130  Biso   1.000  Co
  Co15     1.0000 0.41025  0.75000  0.56870  Biso   1.000  Co
  Co16     1.0000 0.08975  0.75000  0.56870  Biso   1.000  Co
  O85      1.0000 0.75000  0.75000  0.19360  Biso   1.000  O
  O86      1.0000 0.25000  0.25000  0.80640  Biso   1.000  O
