data_image0
_cell_length_a       26.1243
_cell_length_b       26.1243
_cell_length_c       6.8752
_cell_angle_alpha    90
_cell_angle_beta     90
_cell_angle_gamma    120

_symmetry_space_group_name_H-M    "P 1"
_symmetry_int_tables_number       1

loop_
  _symmetry_equiv_pos_as_xyz
  'x, y, z'

loop_
  _atom_site_label
  _atom_site_occupancy
  _atom_site_fract_x
  _atom_site_fract_y
  _atom_site_fract_z
  _atom_site_thermal_displace_type
  _atom_site_B_iso_or_equiv
  _atom_site_type_symbol
  Fe1      1.0000 0.38284  0.35180  0.14790  Biso   1.000  Fe
  O1       1.0000 0.32708  0.29516  0.36190  Biso   1.000  O
  O2       1.0000 0.30065  0.22525  0.59290  Biso   1.000  O
  O3       1.0000 0.35544  0.27360  0.00590  Biso   1.000  O
  C1       1.0000 0.31936  0.24711  0.42340  Biso   1.000  C
  C2       1.0000 0.32668  0.20573  0.28720  Biso   1.000  C
  C3       1.0000 0.34574  0.22231  0.09560  Biso   1.000  C
  C4       1.0000 0.35073  0.18081  0.97680  Biso   1.000  C
  H1       1.0000 0.36320  0.19310  0.83080  Biso   1.000  H
  O4       1.0000 0.47040  0.35150  0.24900  Biso   1.000  O
  N1       1.0000 0.51756  0.39191  0.21330  Biso   1.000  N
  N2       1.0000 0.56100  0.43090  0.16350  Biso   1.000  N
  N3       1.0000 0.50900  0.37320  0.33270  Biso   1.000  N
  O5       1.0000 0.55910  0.40270  0.40200  Biso   1.000  O
  N4       1.0000 0.46190  0.34810  0.28530  Biso   1.000  N
  N5       1.0000 0.47110  0.36300  0.26830  Biso   1.000  N
  O6       1.0000 0.56570  0.41870  0.14200  Biso   1.000  O
  Fe2      1.0000 0.04951  0.68513  0.48123  Biso   1.000  Fe
  O7       1.0000 0.99375  0.62849  0.69523  Biso   1.000  O
  O8       1.0000 0.96732  0.55858  0.92623  Biso   1.000  O
  O9       1.0000 0.02211  0.60693  0.33923  Biso   1.000  O
  C5       1.0000 0.98603  0.58044  0.75673  Biso   1.000  C
  C6       1.0000 0.99335  0.53906  0.62053  Biso   1.000  C
  C7       1.0000 0.01241  0.55564  0.42893  Biso   1.000  C
  C8       1.0000 0.01740  0.51414  0.31013  Biso   1.000  C
  H2       1.0000 0.02987  0.52643  0.16413  Biso   1.000  H
  O10      1.0000 0.13707  0.68483  0.58233  Biso   1.000  O
  N6       1.0000 0.18423  0.72524  0.54663  Biso   1.000  N
  N7       1.0000 0.22767  0.76423  0.49683  Biso   1.000  N
  N8       1.0000 0.17567  0.70653  0.66603  Biso   1.000  N
  O11      1.0000 0.22577  0.73603  0.73533  Biso   1.000  O
  N9       1.0000 0.12857  0.68143  0.61863  Biso   1.000  N
  N10      1.0000 0.13777  0.69633  0.60163  Biso   1.000  N
  O12      1.0000 0.23237  0.75203  0.47533  Biso   1.000  O
  Fe3      1.0000 0.71617  0.01847  0.81457  Biso   1.000  Fe
  O13      1.0000 0.66041  0.96183  0.02857  Biso   1.000  O
  O14      1.0000 0.63398  0.89192  0.25957  Biso   1.000  O
  O15      1.0000 0.68877  0.94027  0.67257  Biso   1.000  O
  C9       1.0000 0.65269  0.91378  0.09007  Biso   1.000  C
  C10      1.0000 0.66001  0.87240  0.95387  Biso   1.000  C
  C11      1.0000 0.67907  0.88898  0.76227  Biso   1.000  C
  C12      1.0000 0.68406  0.84748  0.64347  Biso   1.000  C
  H3       1.0000 0.69653  0.85977  0.49747  Biso   1.000  H
  O16      1.0000 0.80373  0.01817  0.91567  Biso   1.000  O
  N11      1.0000 0.85089  0.05858  0.87997  Biso   1.000  N
  N12      1.0000 0.89433  0.09757  0.83017  Biso   1.000  N
  N13      1.0000 0.84233  0.03987  0.99937  Biso   1.000  N
  O17      1.0000 0.89243  0.06937  0.06867  Biso   1.000  O
  N14      1.0000 0.79523  0.01477  0.95197  Biso   1.000  N
  N15      1.0000 0.80443  0.02967  0.93497  Biso   1.000  N
  O18      1.0000 0.89903  0.08537  0.80867  Biso   1.000  O
  Fe4      1.0000 0.64820  0.03104  0.14790  Biso   1.000  Fe
  O19      1.0000 0.70484  0.03192  0.36190  Biso   1.000  O
  O20      1.0000 0.77475  0.07540  0.59290  Biso   1.000  O
  O21      1.0000 0.72640  0.08184  0.00590  Biso   1.000  O
  C13      1.0000 0.75289  0.07225  0.42340  Biso   1.000  C
  C14      1.0000 0.79427  0.12095  0.28720  Biso   1.000  C
  C15      1.0000 0.77769  0.12343  0.09560  Biso   1.000  C
  C16      1.0000 0.81919  0.16992  0.97680  Biso   1.000  C
  H4       1.0000 0.80690  0.17010  0.83080  Biso   1.000  H
  O22      1.0000 0.64850  0.11890  0.24900  Biso   1.000  O
  N16      1.0000 0.60809  0.12565  0.21330  Biso   1.000  N
  N17      1.0000 0.56910  0.13010  0.16350  Biso   1.000  N
  N18      1.0000 0.62680  0.13580  0.33270  Biso   1.000  N
  O23      1.0000 0.59730  0.15640  0.40200  Biso   1.000  O
  N19      1.0000 0.65190  0.11380  0.28530  Biso   1.000  N
  N20      1.0000 0.63700  0.10810  0.26830  Biso   1.000  N
  O24      1.0000 0.58130  0.14700  0.14200  Biso   1.000  O
  Fe5      1.0000 0.31487  0.36437  0.48123  Biso   1.000  Fe
  O25      1.0000 0.37151  0.36525  0.69523  Biso   1.000  O
  O26      1.0000 0.44142  0.40873  0.92623  Biso   1.000  O
  O27      1.0000 0.39307  0.41517  0.33923  Biso   1.000  O
  C17      1.0000 0.41956  0.40558  0.75673  Biso   1.000  C
  C18      1.0000 0.46094  0.45428  0.62053  Biso   1.000  C
  C19      1.0000 0.44436  0.45676  0.42893  Biso   1.000  C
  C20      1.0000 0.48586  0.50325  0.31013  Biso   1.000  C
  H5       1.0000 0.47357  0.50343  0.16413  Biso   1.000  H
  O28      1.0000 0.31517  0.45223  0.58233  Biso   1.000  O
  N21      1.0000 0.27476  0.45898  0.54663  Biso   1.000  N
  N22      1.0000 0.23577  0.46343  0.49683  Biso   1.000  N
  N23      1.0000 0.29347  0.46913  0.66603  Biso   1.000  N
  O29      1.0000 0.26397  0.48973  0.73533  Biso   1.000  O
  N24      1.0000 0.31857  0.44713  0.61863  Biso   1.000  N
  N25      1.0000 0.30367  0.44143  0.60163  Biso   1.000  N
  O30      1.0000 0.24797  0.48033  0.47533  Biso   1.000  O
  Fe6      1.0000 0.98153  0.69771  0.81457  Biso   1.000  Fe
  O31      1.0000 0.03817  0.69859  0.02857  Biso   1.000  O
  O32      1.0000 0.10808  0.74207  0.25957  Biso   1.000  O
  O33      1.0000 0.05973  0.74851  0.67257  Biso   1.000  O
  C21      1.0000 0.08622  0.73892  0.09007  Biso   1.000  C
  C22      1.0000 0.12760  0.78762  0.95387  Biso   1.000  C
  C23      1.0000 0.11102  0.79010  0.76227  Biso   1.000  C
  C24      1.0000 0.15252  0.83659  0.64347  Biso   1.000  C
  H6       1.0000 0.14023  0.83677  0.49747  Biso   1.000  H
  O34      1.0000 0.98183  0.78557  0.91567  Biso   1.000  O
  N26      1.0000 0.94142  0.79232  0.87997  Biso   1.000  N
  N27      1.0000 0.90243  0.79677  0.83017  Biso   1.000  N
  N28      1.0000 0.96013  0.80247  0.99937  Biso   1.000  N
  O35      1.0000 0.93063  0.82307  0.06867  Biso   1.000  O
  N29      1.0000 0.98523  0.78047  0.95197  Biso   1.000  N
  N30      1.0000 0.97033  0.77477  0.93497  Biso   1.000  N
  O36      1.0000 0.91463  0.81367  0.80867  Biso   1.000  O
  Fe7      1.0000 0.96896  0.61716  0.14790  Biso   1.000  Fe
  O37      1.0000 0.96808  0.67292  0.36190  Biso   1.000  O
  O38      1.0000 0.92460  0.69935  0.59290  Biso   1.000  O
  O39      1.0000 0.91816  0.64456  0.00590  Biso   1.000  O
  C25      1.0000 0.92775  0.68064  0.42340  Biso   1.000  C
  C26      1.0000 0.87905  0.67332  0.28720  Biso   1.000  C
  C27      1.0000 0.87657  0.65426  0.09560  Biso   1.000  C
  C28      1.0000 0.83008  0.64927  0.97680  Biso   1.000  C
  H7       1.0000 0.82990  0.63680  0.83080  Biso   1.000  H
  O40      1.0000 0.88110  0.52960  0.24900  Biso   1.000  O
  N31      1.0000 0.87435  0.48244  0.21330  Biso   1.000  N
  N32      1.0000 0.86990  0.43900  0.16350  Biso   1.000  N
  N33      1.0000 0.86420  0.49100  0.33270  Biso   1.000  N
  O41      1.0000 0.84360  0.44090  0.40200  Biso   1.000  O
  N34      1.0000 0.88620  0.53810  0.28530  Biso   1.000  N
  N35      1.0000 0.89190  0.52890  0.26830  Biso   1.000  N
  O42      1.0000 0.85300  0.43430  0.14200  Biso   1.000  O
  Fe8      1.0000 0.63563  0.95049  0.48123  Biso   1.000  Fe
  O43      1.0000 0.63475  0.00625  0.69523  Biso   1.000  O
  O44      1.0000 0.59127  0.03268  0.92623  Biso   1.000  O
  O45      1.0000 0.58483  0.97789  0.33923  Biso   1.000  O
  C29      1.0000 0.59442  0.01397  0.75673  Biso   1.000  C
  C30      1.0000 0.54572  0.00665  0.62053  Biso   1.000  C
  C31      1.0000 0.54324  0.98759  0.42893  Biso   1.000  C
  C32      1.0000 0.49675  0.98260  0.31013  Biso   1.000  C
  H8       1.0000 0.49657  0.97013  0.16413  Biso   1.000  H
  O46      1.0000 0.54777  0.86293  0.58233  Biso   1.000  O
  N36      1.0000 0.54102  0.81577  0.54663  Biso   1.000  N
  N37      1.0000 0.53657  0.77233  0.49683  Biso   1.000  N
  N38      1.0000 0.53087  0.82433  0.66603  Biso   1.000  N
  O47      1.0000 0.51027  0.77423  0.73533  Biso   1.000  O
  N39      1.0000 0.55287  0.87143  0.61863  Biso   1.000  N
  N40      1.0000 0.55857  0.86223  0.60163  Biso   1.000  N
  O48      1.0000 0.51967  0.76763  0.47533  Biso   1.000  O
  Fe9      1.0000 0.30229  0.28383  0.81457  Biso   1.000  Fe
  O49      1.0000 0.30141  0.33959  0.02857  Biso   1.000  O
  O50      1.0000 0.25793  0.36602  0.25957  Biso   1.000  O
  O51      1.0000 0.25149  0.31123  0.67257  Biso   1.000  O
  C33      1.0000 0.26108  0.34731  0.09007  Biso   1.000  C
  C34      1.0000 0.21238  0.33999  0.95387  Biso   1.000  C
  C35      1.0000 0.20990  0.32093  0.76227  Biso   1.000  C
  C36      1.0000 0.16341  0.31594  0.64347  Biso   1.000  C
  H9       1.0000 0.16323  0.30347  0.49747  Biso   1.000  H
  O52      1.0000 0.21443  0.19627  0.91567  Biso   1.000  O
  N41      1.0000 0.20768  0.14911  0.87997  Biso   1.000  N
  N42      1.0000 0.20323  0.10567  0.83017  Biso   1.000  N
  N43      1.0000 0.19753  0.15767  0.99937  Biso   1.000  N
  O53      1.0000 0.17693  0.10757  0.06867  Biso   1.000  O
  N44      1.0000 0.21953  0.20477  0.95197  Biso   1.000  N
  N45      1.0000 0.22523  0.19557  0.93497  Biso   1.000  N
  O54      1.0000 0.18633  0.10097  0.80867  Biso   1.000  O
  Fe10     1.0000 0.61716  0.64820  0.85210  Biso   1.000  Fe
  O55      1.0000 0.67292  0.70484  0.63810  Biso   1.000  O
  O56      1.0000 0.69935  0.77475  0.40710  Biso   1.000  O
  O57      1.0000 0.64456  0.72640  0.99410  Biso   1.000  O
  C37      1.0000 0.68064  0.75289  0.57660  Biso   1.000  C
  C38      1.0000 0.67332  0.79427  0.71280  Biso   1.000  C
  C39      1.0000 0.65426  0.77769  0.90440  Biso   1.000  C
  C40      1.0000 0.64927  0.81919  0.02320  Biso   1.000  C
  H10      1.0000 0.63680  0.80690  0.16920  Biso   1.000  H
  O58      1.0000 0.52960  0.64850  0.75100  Biso   1.000  O
  N46      1.0000 0.48244  0.60809  0.78670  Biso   1.000  N
  N47      1.0000 0.43900  0.56910  0.83650  Biso   1.000  N
  N48      1.0000 0.49100  0.62680  0.66730  Biso   1.000  N
  O59      1.0000 0.44090  0.59730  0.59800  Biso   1.000  O
  N49      1.0000 0.53810  0.65190  0.71470  Biso   1.000  N
  N50      1.0000 0.52890  0.63700  0.73170  Biso   1.000  N
  O60      1.0000 0.43430  0.58130  0.85800  Biso   1.000  O
  Fe11     1.0000 0.28383  0.98153  0.18543  Biso   1.000  Fe
  O61      1.0000 0.33959  0.03817  0.97143  Biso   1.000  O
  O62      1.0000 0.36602  0.10808  0.74043  Biso   1.000  O
  O63      1.0000 0.31123  0.05973  0.32743  Biso   1.000  O
  C41      1.0000 0.34731  0.08622  0.90993  Biso   1.000  C
  C42      1.0000 0.33999  0.12760  0.04613  Biso   1.000  C
  C43      1.0000 0.32093  0.11102  0.23773  Biso   1.000  C
  C44      1.0000 0.31594  0.15252  0.35653  Biso   1.000  C
  H11      1.0000 0.30347  0.14023  0.50253  Biso   1.000  H
  O64      1.0000 0.19627  0.98183  0.08433  Biso   1.000  O
  N51      1.0000 0.14911  0.94142  0.12003  Biso   1.000  N
  N52      1.0000 0.10567  0.90243  0.16983  Biso   1.000  N
  N53      1.0000 0.15767  0.96013  0.00063  Biso   1.000  N
  O65      1.0000 0.10757  0.93063  0.93133  Biso   1.000  O
  N54      1.0000 0.20477  0.98523  0.04803  Biso   1.000  N
  N55      1.0000 0.19557  0.97033  0.06503  Biso   1.000  N
  O66      1.0000 0.10097  0.91463  0.19133  Biso   1.000  O
  Fe12     1.0000 0.95049  0.31487  0.51877  Biso   1.000  Fe
  O67      1.0000 0.00625  0.37151  0.30477  Biso   1.000  O
  O68      1.0000 0.03268  0.44142  0.07377  Biso   1.000  O
  O69      1.0000 0.97789  0.39307  0.66077  Biso   1.000  O
  C45      1.0000 0.01397  0.41956  0.24327  Biso   1.000  C
  C46      1.0000 0.00665  0.46094  0.37947  Biso   1.000  C
  C47      1.0000 0.98759  0.44436  0.57107  Biso   1.000  C
  C48      1.0000 0.98260  0.48586  0.68987  Biso   1.000  C
  H12      1.0000 0.97013  0.47357  0.83587  Biso   1.000  H
  O70      1.0000 0.86293  0.31517  0.41767  Biso   1.000  O
  N56      1.0000 0.81577  0.27476  0.45337  Biso   1.000  N
  N57      1.0000 0.77233  0.23577  0.50317  Biso   1.000  N
  N58      1.0000 0.82433  0.29347  0.33397  Biso   1.000  N
  O71      1.0000 0.77423  0.26397  0.26467  Biso   1.000  O
  N59      1.0000 0.87143  0.31857  0.38137  Biso   1.000  N
  N60      1.0000 0.86223  0.30367  0.39837  Biso   1.000  N
  O72      1.0000 0.76763  0.24797  0.52467  Biso   1.000  O
  Fe13     1.0000 0.35180  0.96896  0.85210  Biso   1.000  Fe
  O73      1.0000 0.29516  0.96808  0.63810  Biso   1.000  O
  O74      1.0000 0.22525  0.92460  0.40710  Biso   1.000  O
  O75      1.0000 0.27360  0.91816  0.99410  Biso   1.000  O
  C49      1.0000 0.24711  0.92775  0.57660  Biso   1.000  C
  C50      1.0000 0.20573  0.87905  0.71280  Biso   1.000  C
  C51      1.0000 0.22231  0.87657  0.90440  Biso   1.000  C
  C52      1.0000 0.18081  0.83008  0.02320  Biso   1.000  C
  H13      1.0000 0.19310  0.82990  0.16920  Biso   1.000  H
  O76      1.0000 0.35150  0.88110  0.75100  Biso   1.000  O
  N61      1.0000 0.39191  0.87435  0.78670  Biso   1.000  N
  N62      1.0000 0.43090  0.86990  0.83650  Biso   1.000  N
  N63      1.0000 0.37320  0.86420  0.66730  Biso   1.000  N
  O77      1.0000 0.40270  0.84360  0.59800  Biso   1.000  O
  N64      1.0000 0.34810  0.88620  0.71470  Biso   1.000  N
  N65      1.0000 0.36300  0.89190  0.73170  Biso   1.000  N
  O78      1.0000 0.41870  0.85300  0.85800  Biso   1.000  O
  Fe14     1.0000 0.01847  0.30229  0.18543  Biso   1.000  Fe
  O79      1.0000 0.96183  0.30141  0.97143  Biso   1.000  O
  O80      1.0000 0.89192  0.25793  0.74043  Biso   1.000  O
  O81      1.0000 0.94027  0.25149  0.32743  Biso   1.000  O
  C53      1.0000 0.91378  0.26108  0.90993  Biso   1.000  C
  C54      1.0000 0.87240  0.21238  0.04613  Biso   1.000  C
  C55      1.0000 0.88898  0.20990  0.23773  Biso   1.000  C
  C56      1.0000 0.84748  0.16341  0.35653  Biso   1.000  C
  H14      1.0000 0.85977  0.16323  0.50253  Biso   1.000  H
  O82      1.0000 0.01817  0.21443  0.08433  Biso   1.000  O
  N66      1.0000 0.05858  0.20768  0.12003  Biso   1.000  N
  N67      1.0000 0.09757  0.20323  0.16983  Biso   1.000  N
  N68      1.0000 0.03987  0.19753  0.00063  Biso   1.000  N
  O83      1.0000 0.06937  0.17693  0.93133  Biso   1.000  O
  N69      1.0000 0.01477  0.21953  0.04803  Biso   1.000  N
  N70      1.0000 0.02967  0.22523  0.06503  Biso   1.000  N
  O84      1.0000 0.08537  0.18633  0.19133  Biso   1.000  O
  Fe15     1.0000 0.68513  0.63563  0.51877  Biso   1.000  Fe
  O85      1.0000 0.62849  0.63475  0.30477  Biso   1.000  O
  O86      1.0000 0.55858  0.59127  0.07377  Biso   1.000  O
  O87      1.0000 0.60693  0.58483  0.66077  Biso   1.000  O
  C57      1.0000 0.58044  0.59442  0.24327  Biso   1.000  C
  C58      1.0000 0.53906  0.54572  0.37947  Biso   1.000  C
  C59      1.0000 0.55564  0.54324  0.57107  Biso   1.000  C
  C60      1.0000 0.51414  0.49675  0.68987  Biso   1.000  C
  H15      1.0000 0.52643  0.49657  0.83587  Biso   1.000  H
  O88      1.0000 0.68483  0.54777  0.41767  Biso   1.000  O
  N71      1.0000 0.72524  0.54102  0.45337  Biso   1.000  N
  N72      1.0000 0.76423  0.53657  0.50317  Biso   1.000  N
  N73      1.0000 0.70653  0.53087  0.33397  Biso   1.000  N
  O89      1.0000 0.73603  0.51027  0.26467  Biso   1.000  O
  N74      1.0000 0.68143  0.55287  0.38137  Biso   1.000  N
  N75      1.0000 0.69633  0.55857  0.39837  Biso   1.000  N
  O90      1.0000 0.75203  0.51967  0.52467  Biso   1.000  O
  Fe16     1.0000 0.03104  0.38284  0.85210  Biso   1.000  Fe
  O91      1.0000 0.03192  0.32708  0.63810  Biso   1.000  O
  O92      1.0000 0.07540  0.30065  0.40710  Biso   1.000  O
  O93      1.0000 0.08184  0.35544  0.99410  Biso   1.000  O
  C61      1.0000 0.07225  0.31936  0.57660  Biso   1.000  C
  C62      1.0000 0.12095  0.32668  0.71280  Biso   1.000  C
  C63      1.0000 0.12343  0.34574  0.90440  Biso   1.000  C
  C64      1.0000 0.16992  0.35073  0.02320  Biso   1.000  C
  H16      1.0000 0.17010  0.36320  0.16920  Biso   1.000  H
  O94      1.0000 0.11890  0.47040  0.75100  Biso   1.000  O
  N76      1.0000 0.12565  0.51756  0.78670  Biso   1.000  N
  N77      1.0000 0.13010  0.56100  0.83650  Biso   1.000  N
  N78      1.0000 0.13580  0.50900  0.66730  Biso   1.000  N
  O95      1.0000 0.15640  0.55910  0.59800  Biso   1.000  O
  N79      1.0000 0.11380  0.46190  0.71470  Biso   1.000  N
  N80      1.0000 0.10810  0.47110  0.73170  Biso   1.000  N
  O96      1.0000 0.14700  0.56570  0.85800  Biso   1.000  O
  Fe17     1.0000 0.69771  0.71617  0.18543  Biso   1.000  Fe
  O97      1.0000 0.69859  0.66041  0.97143  Biso   1.000  O
  O98      1.0000 0.74207  0.63398  0.74043  Biso   1.000  O
  O99      1.0000 0.74851  0.68877  0.32743  Biso   1.000  O
  C65      1.0000 0.73892  0.65269  0.90993  Biso   1.000  C
  C66      1.0000 0.78762  0.66001  0.04613  Biso   1.000  C
  C67      1.0000 0.79010  0.67907  0.23773  Biso   1.000  C
  C68      1.0000 0.83659  0.68406  0.35653  Biso   1.000  C
  H17      1.0000 0.83677  0.69653  0.50253  Biso   1.000  H
  O100     1.0000 0.78557  0.80373  0.08433  Biso   1.000  O
  N81      1.0000 0.79232  0.85089  0.12003  Biso   1.000  N
  N82      1.0000 0.79677  0.89433  0.16983  Biso   1.000  N
  N83      1.0000 0.80247  0.84233  0.00063  Biso   1.000  N
  O101     1.0000 0.82307  0.89243  0.93133  Biso   1.000  O
  N84      1.0000 0.78047  0.79523  0.04803  Biso   1.000  N
  N85      1.0000 0.77477  0.80443  0.06503  Biso   1.000  N
  O102     1.0000 0.81367  0.89903  0.19133  Biso   1.000  O
  Fe18     1.0000 0.36437  0.04951  0.51877  Biso   1.000  Fe
  O103     1.0000 0.36525  0.99375  0.30477  Biso   1.000  O
  O104     1.0000 0.40873  0.96732  0.07377  Biso   1.000  O
  O105     1.0000 0.41517  0.02211  0.66077  Biso   1.000  O
  C69      1.0000 0.40558  0.98603  0.24327  Biso   1.000  C
  C70      1.0000 0.45428  0.99335  0.37947  Biso   1.000  C
  C71      1.0000 0.45676  0.01241  0.57107  Biso   1.000  C
  C72      1.0000 0.50325  0.01740  0.68987  Biso   1.000  C
  H18      1.0000 0.50343  0.02987  0.83587  Biso   1.000  H
  O106     1.0000 0.45223  0.13707  0.41767  Biso   1.000  O
  N86      1.0000 0.45898  0.18423  0.45337  Biso   1.000  N
  N87      1.0000 0.46343  0.22767  0.50317  Biso   1.000  N
  N88      1.0000 0.46913  0.17567  0.33397  Biso   1.000  N
  O107     1.0000 0.48973  0.22577  0.26467  Biso   1.000  O
  N89      1.0000 0.44713  0.12857  0.38137  Biso   1.000  N
  N90      1.0000 0.44143  0.13777  0.39837  Biso   1.000  N
  O108     1.0000 0.48033  0.23237  0.52467  Biso   1.000  O
