data_image0
_cell_length_a       16.6324
_cell_length_b       6.3219
_cell_length_c       11.0725
_cell_angle_alpha    90
_cell_angle_beta     94.362
_cell_angle_gamma    90

_symmetry_space_group_name_H-M    "P 1"
_symmetry_int_tables_number       1

loop_
  _symmetry_equiv_pos_as_xyz
  'x, y, z'

loop_
  _atom_site_label
  _atom_site_occupancy
  _atom_site_fract_x
  _atom_site_fract_y
  _atom_site_fract_z
  _atom_site_thermal_displace_type
  _atom_site_B_iso_or_equiv
  _atom_site_type_symbol
  P1       1.0000 0.55710  0.57110  0.66910  Biso   1.000  P
  O1       1.0000 0.63980  0.80640  0.40760  Biso   1.000  O
  O2       1.0000 0.78590  0.30530  0.15020  Biso   1.000  O
  O3       1.0000 0.55670  0.81910  0.67530  Biso   1.000  O
  P2       1.0000 0.05710  0.07110  0.66910  Biso   1.000  P
  O4       1.0000 0.13980  0.30640  0.40760  Biso   1.000  O
  O5       1.0000 0.28590  0.80530  0.15020  Biso   1.000  O
  O6       1.0000 0.05670  0.31910  0.67530  Biso   1.000  O
  P3       1.0000 0.44290  0.57110  0.33090  Biso   1.000  P
  O7       1.0000 0.36020  0.80640  0.59240  Biso   1.000  O
  O8       1.0000 0.21410  0.30530  0.84980  Biso   1.000  O
  O9       1.0000 0.44330  0.81910  0.32470  Biso   1.000  O
  P4       1.0000 0.94290  0.07110  0.33090  Biso   1.000  P
  O10      1.0000 0.86020  0.30640  0.59240  Biso   1.000  O
  O11      1.0000 0.71410  0.80530  0.84980  Biso   1.000  O
  O12      1.0000 0.94330  0.31910  0.32470  Biso   1.000  O
  P5       1.0000 0.44290  0.42890  0.33090  Biso   1.000  P
  O13      1.0000 0.36020  0.19360  0.59240  Biso   1.000  O
  O14      1.0000 0.21410  0.69470  0.84980  Biso   1.000  O
  O15      1.0000 0.44330  0.18090  0.32470  Biso   1.000  O
  P6       1.0000 0.94290  0.92890  0.33090  Biso   1.000  P
  O16      1.0000 0.86020  0.69360  0.59240  Biso   1.000  O
  O17      1.0000 0.71410  0.19470  0.84980  Biso   1.000  O
  O18      1.0000 0.94330  0.68090  0.32470  Biso   1.000  O
  P7       1.0000 0.55710  0.42890  0.66910  Biso   1.000  P
  O19      1.0000 0.63980  0.19360  0.40760  Biso   1.000  O
  O20      1.0000 0.78590  0.69470  0.15020  Biso   1.000  O
  O21      1.0000 0.55670  0.18090  0.67530  Biso   1.000  O
  P8       1.0000 0.05710  0.92890  0.66910  Biso   1.000  P
  O22      1.0000 0.13980  0.69360  0.40760  Biso   1.000  O
  O23      1.0000 0.28590  0.19470  0.15020  Biso   1.000  O
  O24      1.0000 0.05670  0.68090  0.67530  Biso   1.000  O
  Ti1      1.0000 0.64110  0.50000  0.39960  Biso   1.000  Ti
  Ti2      1.0000 0.71670  0.50000  0.85040  Biso   1.000  Ti
  P9       1.0000 0.73180  0.50000  0.13880  Biso   1.000  P
  F1       1.0000 0.82340  0.50000  0.91040  Biso   1.000  F
  O25      1.0000 0.59380  0.50000  0.55640  Biso   1.000  O
  O26      1.0000 0.47050  0.50000  0.67300  Biso   1.000  O
  O27      1.0000 0.67190  0.50000  0.23760  Biso   1.000  O
  O28      1.0000 0.68250  0.50000  0.01580  Biso   1.000  O
  O29      1.0000 0.60400  0.50000  0.78560  Biso   1.000  O
  Ti3      1.0000 0.14110  0.00000  0.39960  Biso   1.000  Ti
  Ti4      1.0000 0.21670  0.00000  0.85040  Biso   1.000  Ti
  P10      1.0000 0.23180  0.00000  0.13880  Biso   1.000  P
  F2       1.0000 0.32340  0.00000  0.91040  Biso   1.000  F
  O30      1.0000 0.09380  0.00000  0.55640  Biso   1.000  O
  O31      1.0000 0.97050  0.00000  0.67300  Biso   1.000  O
  O32      1.0000 0.17190  0.00000  0.23760  Biso   1.000  O
  O33      1.0000 0.18250  0.00000  0.01580  Biso   1.000  O
  O34      1.0000 0.10400  0.00000  0.78560  Biso   1.000  O
  Ti5      1.0000 0.35890  0.50000  0.60040  Biso   1.000  Ti
  Ti6      1.0000 0.28330  0.50000  0.14960  Biso   1.000  Ti
  P11      1.0000 0.26820  0.50000  0.86120  Biso   1.000  P
  F3       1.0000 0.17660  0.50000  0.08960  Biso   1.000  F
  O35      1.0000 0.40620  0.50000  0.44360  Biso   1.000  O
  O36      1.0000 0.52950  0.50000  0.32700  Biso   1.000  O
  O37      1.0000 0.32810  0.50000  0.76240  Biso   1.000  O
  O38      1.0000 0.31750  0.50000  0.98420  Biso   1.000  O
  O39      1.0000 0.39600  0.50000  0.21440  Biso   1.000  O
  Ti7      1.0000 0.85890  0.00000  0.60040  Biso   1.000  Ti
  Ti8      1.0000 0.78330  0.00000  0.14960  Biso   1.000  Ti
  P12      1.0000 0.76820  0.00000  0.86120  Biso   1.000  P
  F4       1.0000 0.67660  0.00000  0.08960  Biso   1.000  F
  O40      1.0000 0.90620  0.00000  0.44360  Biso   1.000  O
  O41      1.0000 0.02950  0.00000  0.32700  Biso   1.000  O
  O42      1.0000 0.82810  0.00000  0.76240  Biso   1.000  O
  O43      1.0000 0.81750  0.00000  0.98420  Biso   1.000  O
  O44      1.0000 0.89600  0.00000  0.21440  Biso   1.000  O
  P13      1.0000 0.69570  0.00000  0.41360  Biso   1.000  P
  O45      1.0000 0.74920  0.00000  0.53230  Biso   1.000  O
  O46      1.0000 0.74940  0.00000  0.30930  Biso   1.000  O
  P14      1.0000 0.19570  0.50000  0.41360  Biso   1.000  P
  O47      1.0000 0.24920  0.50000  0.53230  Biso   1.000  O
  O48      1.0000 0.24940  0.50000  0.30930  Biso   1.000  O
  P15      1.0000 0.30430  0.00000  0.58640  Biso   1.000  P
  O49      1.0000 0.25080  0.00000  0.46770  Biso   1.000  O
  O50      1.0000 0.25060  0.00000  0.69070  Biso   1.000  O
  P16      1.0000 0.80430  0.50000  0.58640  Biso   1.000  P
  O51      1.0000 0.75080  0.50000  0.46770  Biso   1.000  O
  O52      1.0000 0.75060  0.50000  0.69070  Biso   1.000  O
