data_image0
_cell_length_a       12.355
_cell_length_b       33.452
_cell_length_c       12.952
_cell_angle_alpha    90
_cell_angle_beta     97.63
_cell_angle_gamma    90

_symmetry_space_group_name_H-M    "P 1"
_symmetry_int_tables_number       1

loop_
  _symmetry_equiv_pos_as_xyz
  'x, y, z'

loop_
  _atom_site_label
  _atom_site_occupancy
  _atom_site_fract_x
  _atom_site_fract_y
  _atom_site_fract_z
  _atom_site_thermal_displace_type
  _atom_site_B_iso_or_equiv
  _atom_site_type_symbol
  Mn1      1.0000 0.79230  0.06795  0.39752  Biso   1.000  Mn
  N1       1.0000 0.61090  0.13092  0.30780  Biso   1.000  N
  O1       1.0000 0.96640  0.05510  0.40290  Biso   1.000  O
  O2       1.0000 0.72110  0.01273  0.34870  Biso   1.000  O
  N2       1.0000 0.79290  0.08652  0.22790  Biso   1.000  N
  N3       1.0000 0.63450  0.10029  0.37630  Biso   1.000  N
  N4       1.0000 0.74060  0.12017  0.18940  Biso   1.000  N
  C1       1.0000 0.82310  0.06754  0.14510  Biso   1.000  C
  O3       1.0000 0.92060  0.02624  0.61780  Biso   1.000  O
  O4       1.0000 0.79530  0.06960  0.55910  Biso   1.000  O
  O5       1.0000 0.93800  0.11949  0.41260  Biso   1.000  O
  C2       1.0000 0.70140  0.14795  0.26080  Biso   1.000  C
  H1       1.0000 0.67700  0.17280  0.22320  Biso   1.000  H
  H2       1.0000 0.76160  0.15490  0.31620  Biso   1.000  H
  C3       1.0000 0.76430  0.97961  0.37160  Biso   1.000  C
  C4       1.0000 0.00000  0.09088  0.40160  Biso   1.000  C
  C5       1.0000 0.28530  0.07079  0.34360  Biso   1.000  C
  H3       1.0000 0.32610  0.04850  0.32450  Biso   1.000  H
  C6       1.0000 0.53750  0.08850  0.40140  Biso   1.000  C
  C7       1.0000 0.50300  0.13858  0.28930  Biso   1.000  C
  C8       1.0000 0.83470  0.06039  0.74100  Biso   1.000  C
  C9       1.0000 0.45260  0.11209  0.34880  Biso   1.000  C
  C10      1.0000 0.78870  0.08900  0.05360  Biso   1.000  C
  C11      1.0000 0.33620  0.10776  0.35740  Biso   1.000  C
  C12      1.0000 0.70320  0.94259  0.33420  Biso   1.000  C
  C13      1.0000 0.73610  0.12286  0.08430  Biso   1.000  C
  C14      1.0000 0.11640  0.09769  0.38460  Biso   1.000  C
  C15      1.0000 0.85310  0.05111  0.62930  Biso   1.000  C
  C16      1.0000 0.80550  0.07887  0.94600  Biso   1.000  C
  C17      1.0000 0.16340  0.13518  0.39660  Biso   1.000  C
  H4       1.0000 0.12150  0.15750  0.41340  Biso   1.000  H
  N5       1.0000 0.43730  0.78493  0.17290  Biso   1.000  N
  C18      1.0000 0.88270  0.02849  0.15740  Biso   1.000  C
  H5       1.0000 0.93210  0.02630  0.10440  Biso   1.000  H
  H6       1.0000 0.83000  0.00650  0.14890  Biso   1.000  H
  H7       1.0000 0.92510  0.02710  0.22680  Biso   1.000  H
  C19      1.0000 0.68170  0.15645  0.02210  Biso   1.000  C
  H8       1.0000 0.71880  0.18160  0.04370  Biso   1.000  H
  H9       1.0000 0.60510  0.15810  0.03380  Biso   1.000  H
  H10      1.0000 0.68560  0.15180  0.94800  Biso   1.000  H
  C20      1.0000 0.50440  0.83902  0.24870  Biso   1.000  C
  C21      1.0000 0.27270  0.13997  0.38370  Biso   1.000  C
  H11      1.0000 0.30500  0.16570  0.39290  Biso   1.000  H
  C22      1.0000 0.57680  0.87473  0.27520  Biso   1.000  C
  C23      1.0000 0.53070  0.05402  0.47330  Biso   1.000  C
  H12      1.0000 0.52610  0.02910  0.43330  Biso   1.000  H
  H13      1.0000 0.46550  0.05680  0.50840  Biso   1.000  H
  H14      1.0000 0.59590  0.05350  0.52530  Biso   1.000  H
  N6       1.0000 0.36860  0.79405  0.24750  Biso   1.000  N
  C24      1.0000 0.41400  0.82623  0.29300  Biso   1.000  C
  C25      1.0000 0.51770  0.81177  0.17200  Biso   1.000  C
  C26      1.0000 0.73310  0.07000  0.76630  Biso   1.000  C
  H15      1.0000 0.67120  0.06950  0.71430  Biso   1.000  H
  C27      1.0000 0.45600  0.16865  0.21250  Biso   1.000  C
  H16      1.0000 0.49070  0.19460  0.22910  Biso   1.000  H
  H17      1.0000 0.37730  0.17090  0.21490  Biso   1.000  H
  H18      1.0000 0.46870  0.16040  0.14250  Biso   1.000  H
  C28      1.0000 0.58360  0.90240  0.21060  Biso   1.000  C
  H19      1.0000 0.54650  0.89990  0.14180  Biso   1.000  H
  C29      1.0000 0.92130  0.05490  0.82200  Biso   1.000  C
  H20      1.0000 0.98880  0.04410  0.80750  Biso   1.000  H
  C30      1.0000 0.36930  0.84505  0.38440  Biso   1.000  C
  H21      1.0000 0.37180  0.87420  0.37830  Biso   1.000  H
  H22      1.0000 0.41340  0.83670  0.44930  Biso   1.000  H
  H23      1.0000 0.29350  0.83650  0.38490  Biso   1.000  H
  C31      1.0000 0.60650  0.80933  0.10000  Biso   1.000  C
  H24      1.0000 0.66680  0.79270  0.13260  Biso   1.000  H
  H25      1.0000 0.63360  0.83620  0.08820  Biso   1.000  H
  H26      1.0000 0.57570  0.79750  0.03330  Biso   1.000  H
  C32      1.0000 0.17700  0.06535  0.35690  Biso   1.000  C
  H27      1.0000 0.14430  0.03970  0.34710  Biso   1.000  H
  C33      1.0000 0.90770  0.06530  0.92320  Biso   1.000  C
  H28      1.0000 0.96750  0.06330  0.97720  Biso   1.000  H
  C34      1.0000 0.72150  0.08040  0.86810  Biso   1.000  C
  H29      1.0000 0.65200  0.08890  0.88340  Biso   1.000  H
  O6       1.0000 0.85570  0.97420  0.42380  Biso   1.000  O
  C35      1.0000 0.71050  0.90750  0.39720  Biso   1.000  C
  H30      1.0000 0.76730  0.90550  0.45400  Biso   1.000  H
  C36      1.0000 0.63120  0.87380  0.37640  Biso   1.000  C
  H31      1.0000 0.61940  0.85410  0.42640  Biso   1.000  H
  C37      1.0000 0.64480  0.93670  0.23850  Biso   1.000  C
  H32      1.0000 0.64580  0.95720  0.18780  Biso   1.000  H
  C38      1.0000 0.68820  0.87280  0.31260  Biso   1.000  C
  H33      1.0000 0.72210  0.84730  0.32120  Biso   1.000  H
  C39      1.0000 0.75260  0.90730  0.33820  Biso   1.000  C
  H34      1.0000 0.82930  0.90530  0.35770  Biso   1.000  H
  C40      1.0000 0.79280  0.04020  0.90820  Biso   1.000  C
  H35      1.0000 0.77220  0.01930  0.95110  Biso   1.000  H
  C41      1.0000 0.81930  0.11080  0.87240  Biso   1.000  C
  H36      1.0000 0.81540  0.13800  0.89280  Biso   1.000  H
  C42      1.0000 0.59260  0.94668  0.29260  Biso   1.000  C
  H37      1.0000 0.56050  0.97250  0.28500  Biso   1.000  H
  C43      1.0000 0.52980  0.91260  0.26230  Biso   1.000  C
  H38      1.0000 0.45540  0.91540  0.23310  Biso   1.000  H
  C44      1.0000 0.83760  0.10140  0.77500  Biso   1.000  C
  H39      1.0000 0.85250  0.12200  0.72840  Biso   1.000  H
  C45      1.0000 0.81090  0.03250  0.80540  Biso   1.000  C
  H40      1.0000 0.80570  0.00570  0.78120  Biso   1.000  H
  Mn2      1.0000 0.20770  0.56795  0.60248  Biso   1.000  Mn
  N7       1.0000 0.38910  0.63092  0.69220  Biso   1.000  N
  O7       1.0000 0.03360  0.55510  0.59710  Biso   1.000  O
  O8       1.0000 0.27890  0.51273  0.65130  Biso   1.000  O
  N8       1.0000 0.20710  0.58652  0.77210  Biso   1.000  N
  N9       1.0000 0.36550  0.60029  0.62370  Biso   1.000  N
  N10      1.0000 0.25940  0.62017  0.81060  Biso   1.000  N
  C46      1.0000 0.17690  0.56754  0.85490  Biso   1.000  C
  O9       1.0000 0.07940  0.52624  0.38220  Biso   1.000  O
  O10      1.0000 0.20470  0.56960  0.44090  Biso   1.000  O
  O11      1.0000 0.06200  0.61949  0.58740  Biso   1.000  O
  C47      1.0000 0.29860  0.64795  0.73920  Biso   1.000  C
  H41      1.0000 0.32300  0.67280  0.77680  Biso   1.000  H
  H42      1.0000 0.23840  0.65490  0.68380  Biso   1.000  H
  C48      1.0000 0.23570  0.47961  0.62840  Biso   1.000  C
  C49      1.0000 0.00000  0.59088  0.59840  Biso   1.000  C
  C50      1.0000 0.71470  0.57079  0.65640  Biso   1.000  C
  H43      1.0000 0.67390  0.54850  0.67550  Biso   1.000  H
  C51      1.0000 0.46250  0.58850  0.59860  Biso   1.000  C
  C52      1.0000 0.49700  0.63858  0.71070  Biso   1.000  C
  C53      1.0000 0.16530  0.56039  0.25900  Biso   1.000  C
  C54      1.0000 0.54740  0.61209  0.65120  Biso   1.000  C
  C55      1.0000 0.21130  0.58900  0.94640  Biso   1.000  C
  C56      1.0000 0.66380  0.60776  0.64260  Biso   1.000  C
  C57      1.0000 0.29680  0.44259  0.66580  Biso   1.000  C
  C58      1.0000 0.26390  0.62286  0.91570  Biso   1.000  C
  C59      1.0000 0.88360  0.59769  0.61540  Biso   1.000  C
  C60      1.0000 0.14690  0.55111  0.37070  Biso   1.000  C
  C61      1.0000 0.19450  0.57887  0.05400  Biso   1.000  C
  C62      1.0000 0.83660  0.63518  0.60340  Biso   1.000  C
  H44      1.0000 0.87850  0.65750  0.58660  Biso   1.000  H
  N11      1.0000 0.56270  0.28493  0.82710  Biso   1.000  N
  C63      1.0000 0.11730  0.52849  0.84260  Biso   1.000  C
  H45      1.0000 0.06790  0.52630  0.89560  Biso   1.000  H
  H46      1.0000 0.17000  0.50650  0.85110  Biso   1.000  H
  H47      1.0000 0.07490  0.52710  0.77320  Biso   1.000  H
  C64      1.0000 0.31830  0.65645  0.97790  Biso   1.000  C
  H48      1.0000 0.28120  0.68160  0.95630  Biso   1.000  H
  H49      1.0000 0.39490  0.65810  0.96620  Biso   1.000  H
  H50      1.0000 0.31440  0.65180  0.05200  Biso   1.000  H
  C65      1.0000 0.49560  0.33902  0.75130  Biso   1.000  C
  C66      1.0000 0.72730  0.63997  0.61630  Biso   1.000  C
  H51      1.0000 0.69500  0.66570  0.60710  Biso   1.000  H
  C67      1.0000 0.42320  0.37473  0.72480  Biso   1.000  C
  C68      1.0000 0.46930  0.55402  0.52670  Biso   1.000  C
  H52      1.0000 0.47390  0.52910  0.56670  Biso   1.000  H
  H53      1.0000 0.53450  0.55680  0.49160  Biso   1.000  H
  H54      1.0000 0.40410  0.55350  0.47470  Biso   1.000  H
  N12      1.0000 0.63140  0.29405  0.75250  Biso   1.000  N
  C69      1.0000 0.58600  0.32623  0.70700  Biso   1.000  C
  C70      1.0000 0.48230  0.31177  0.82800  Biso   1.000  C
  C71      1.0000 0.26690  0.57000  0.23370  Biso   1.000  C
  H55      1.0000 0.32880  0.56950  0.28570  Biso   1.000  H
  C72      1.0000 0.54400  0.66865  0.78750  Biso   1.000  C
  H56      1.0000 0.50930  0.69460  0.77090  Biso   1.000  H
  H57      1.0000 0.62270  0.67090  0.78510  Biso   1.000  H
  H58      1.0000 0.53130  0.66040  0.85750  Biso   1.000  H
  C73      1.0000 0.41640  0.40240  0.78940  Biso   1.000  C
  H59      1.0000 0.45350  0.39990  0.85820  Biso   1.000  H
  C74      1.0000 0.07870  0.55490  0.17800  Biso   1.000  C
  H60      1.0000 0.01120  0.54410  0.19250  Biso   1.000  H
  C75      1.0000 0.63070  0.34505  0.61560  Biso   1.000  C
  H61      1.0000 0.62820  0.37420  0.62170  Biso   1.000  H
  H62      1.0000 0.58660  0.33670  0.55070  Biso   1.000  H
  H63      1.0000 0.70650  0.33650  0.61510  Biso   1.000  H
  C76      1.0000 0.39350  0.30933  0.90000  Biso   1.000  C
  H64      1.0000 0.33320  0.29270  0.86740  Biso   1.000  H
  H65      1.0000 0.36640  0.33620  0.91180  Biso   1.000  H
  H66      1.0000 0.42430  0.29750  0.96670  Biso   1.000  H
  C77      1.0000 0.82300  0.56535  0.64310  Biso   1.000  C
  H67      1.0000 0.85570  0.53970  0.65290  Biso   1.000  H
  C78      1.0000 0.09230  0.56530  0.07680  Biso   1.000  C
  H68      1.0000 0.03250  0.56330  0.02280  Biso   1.000  H
  C79      1.0000 0.27850  0.58040  0.13190  Biso   1.000  C
  H69      1.0000 0.34800  0.58890  0.11660  Biso   1.000  H
  O12      1.0000 0.14430  0.47420  0.57620  Biso   1.000  O
  C80      1.0000 0.28950  0.40750  0.60280  Biso   1.000  C
  H70      1.0000 0.23270  0.40550  0.54600  Biso   1.000  H
  C81      1.0000 0.36880  0.37380  0.62360  Biso   1.000  C
  H71      1.0000 0.38060  0.35410  0.57360  Biso   1.000  H
  C82      1.0000 0.35520  0.43670  0.76150  Biso   1.000  C
  H72      1.0000 0.35420  0.45720  0.81220  Biso   1.000  H
  C83      1.0000 0.31180  0.37280  0.68740  Biso   1.000  C
  H73      1.0000 0.27790  0.34730  0.67880  Biso   1.000  H
  C84      1.0000 0.24740  0.40730  0.66180  Biso   1.000  C
  H74      1.0000 0.17070  0.40530  0.64230  Biso   1.000  H
  C85      1.0000 0.20720  0.54020  0.09180  Biso   1.000  C
  H75      1.0000 0.22780  0.51930  0.04890  Biso   1.000  H
  C86      1.0000 0.18070  0.61080  0.12760  Biso   1.000  C
  H76      1.0000 0.18460  0.63800  0.10720  Biso   1.000  H
  C87      1.0000 0.40740  0.44668  0.70740  Biso   1.000  C
  H77      1.0000 0.43950  0.47250  0.71500  Biso   1.000  H
  C88      1.0000 0.47020  0.41260  0.73770  Biso   1.000  C
  H78      1.0000 0.54460  0.41540  0.76690  Biso   1.000  H
  C89      1.0000 0.16240  0.60140  0.22500  Biso   1.000  C
  H79      1.0000 0.14750  0.62200  0.27160  Biso   1.000  H
  C90      1.0000 0.18910  0.53250  0.19460  Biso   1.000  C
  H80      1.0000 0.19430  0.50570  0.21880  Biso   1.000  H
  Mn3      1.0000 0.20770  0.93205  0.60248  Biso   1.000  Mn
  N13      1.0000 0.38910  0.86908  0.69220  Biso   1.000  N
  O13      1.0000 0.03360  0.94490  0.59710  Biso   1.000  O
  O14      1.0000 0.27890  0.98727  0.65130  Biso   1.000  O
  N14      1.0000 0.20710  0.91348  0.77210  Biso   1.000  N
  N15      1.0000 0.36550  0.89971  0.62370  Biso   1.000  N
  N16      1.0000 0.25940  0.87983  0.81060  Biso   1.000  N
  C91      1.0000 0.17690  0.93246  0.85490  Biso   1.000  C
  O15      1.0000 0.07940  0.97376  0.38220  Biso   1.000  O
  O16      1.0000 0.20470  0.93040  0.44090  Biso   1.000  O
  O17      1.0000 0.06200  0.88051  0.58740  Biso   1.000  O
  C92      1.0000 0.29860  0.85205  0.73920  Biso   1.000  C
  H81      1.0000 0.32300  0.82720  0.77680  Biso   1.000  H
  H82      1.0000 0.23840  0.84510  0.68380  Biso   1.000  H
  C93      1.0000 0.23570  0.02039  0.62840  Biso   1.000  C
  C94      1.0000 0.00000  0.90912  0.59840  Biso   1.000  C
  C95      1.0000 0.71470  0.92921  0.65640  Biso   1.000  C
  H83      1.0000 0.67390  0.95150  0.67550  Biso   1.000  H
  C96      1.0000 0.46250  0.91150  0.59860  Biso   1.000  C
  C97      1.0000 0.49700  0.86142  0.71070  Biso   1.000  C
  C98      1.0000 0.16530  0.93961  0.25900  Biso   1.000  C
  C99      1.0000 0.54740  0.88791  0.65120  Biso   1.000  C
  C100     1.0000 0.21130  0.91100  0.94640  Biso   1.000  C
  C101     1.0000 0.66380  0.89224  0.64260  Biso   1.000  C
  C102     1.0000 0.29680  0.05741  0.66580  Biso   1.000  C
  C103     1.0000 0.26390  0.87714  0.91570  Biso   1.000  C
  C104     1.0000 0.88360  0.90231  0.61540  Biso   1.000  C
  C105     1.0000 0.14690  0.94889  0.37070  Biso   1.000  C
  C106     1.0000 0.19450  0.92113  0.05400  Biso   1.000  C
  C107     1.0000 0.83660  0.86482  0.60340  Biso   1.000  C
  H84      1.0000 0.87850  0.84250  0.58660  Biso   1.000  H
  N17      1.0000 0.56270  0.21507  0.82710  Biso   1.000  N
  C108     1.0000 0.11730  0.97151  0.84260  Biso   1.000  C
  H85      1.0000 0.06790  0.97370  0.89560  Biso   1.000  H
  H86      1.0000 0.17000  0.99350  0.85110  Biso   1.000  H
  H87      1.0000 0.07490  0.97290  0.77320  Biso   1.000  H
  C109     1.0000 0.31830  0.84355  0.97790  Biso   1.000  C
  H88      1.0000 0.28120  0.81840  0.95630  Biso   1.000  H
  H89      1.0000 0.39490  0.84190  0.96620  Biso   1.000  H
  H90      1.0000 0.31440  0.84820  0.05200  Biso   1.000  H
  C110     1.0000 0.49560  0.16098  0.75130  Biso   1.000  C
  C111     1.0000 0.72730  0.86003  0.61630  Biso   1.000  C
  H91      1.0000 0.69500  0.83430  0.60710  Biso   1.000  H
  C112     1.0000 0.42320  0.12527  0.72480  Biso   1.000  C
  C113     1.0000 0.46930  0.94598  0.52670  Biso   1.000  C
  H92      1.0000 0.47390  0.97090  0.56670  Biso   1.000  H
  H93      1.0000 0.53450  0.94320  0.49160  Biso   1.000  H
  H94      1.0000 0.40410  0.94650  0.47470  Biso   1.000  H
  N18      1.0000 0.63140  0.20595  0.75250  Biso   1.000  N
  C114     1.0000 0.58600  0.17377  0.70700  Biso   1.000  C
  C115     1.0000 0.48230  0.18823  0.82800  Biso   1.000  C
  C116     1.0000 0.26690  0.93000  0.23370  Biso   1.000  C
  H95      1.0000 0.32880  0.93050  0.28570  Biso   1.000  H
  C117     1.0000 0.54400  0.83135  0.78750  Biso   1.000  C
  H96      1.0000 0.50930  0.80540  0.77090  Biso   1.000  H
  H97      1.0000 0.62270  0.82910  0.78510  Biso   1.000  H
  H98      1.0000 0.53130  0.83960  0.85750  Biso   1.000  H
  C118     1.0000 0.41640  0.09760  0.78940  Biso   1.000  C
  H99      1.0000 0.45350  0.10010  0.85820  Biso   1.000  H
  C119     1.0000 0.07870  0.94510  0.17800  Biso   1.000  C
  H100     1.0000 0.01120  0.95590  0.19250  Biso   1.000  H
  C120     1.0000 0.63070  0.15495  0.61560  Biso   1.000  C
  H101     1.0000 0.62820  0.12580  0.62170  Biso   1.000  H
  H102     1.0000 0.58660  0.16330  0.55070  Biso   1.000  H
  H103     1.0000 0.70650  0.16350  0.61510  Biso   1.000  H
  C121     1.0000 0.39350  0.19067  0.90000  Biso   1.000  C
  H104     1.0000 0.33320  0.20730  0.86740  Biso   1.000  H
  H105     1.0000 0.36640  0.16380  0.91180  Biso   1.000  H
  H106     1.0000 0.42430  0.20250  0.96670  Biso   1.000  H
  C122     1.0000 0.82300  0.93465  0.64310  Biso   1.000  C
  H107     1.0000 0.85570  0.96030  0.65290  Biso   1.000  H
  C123     1.0000 0.09230  0.93470  0.07680  Biso   1.000  C
  H108     1.0000 0.03250  0.93670  0.02280  Biso   1.000  H
  C124     1.0000 0.27850  0.91960  0.13190  Biso   1.000  C
  H109     1.0000 0.34800  0.91110  0.11660  Biso   1.000  H
  O18      1.0000 0.14430  0.02580  0.57620  Biso   1.000  O
  C125     1.0000 0.28950  0.09250  0.60280  Biso   1.000  C
  H110     1.0000 0.23270  0.09450  0.54600  Biso   1.000  H
  C126     1.0000 0.36880  0.12620  0.62360  Biso   1.000  C
  H111     1.0000 0.38060  0.14590  0.57360  Biso   1.000  H
  C127     1.0000 0.35520  0.06330  0.76150  Biso   1.000  C
  H112     1.0000 0.35420  0.04280  0.81220  Biso   1.000  H
  C128     1.0000 0.31180  0.12720  0.68740  Biso   1.000  C
  H113     1.0000 0.27790  0.15270  0.67880  Biso   1.000  H
  C129     1.0000 0.24740  0.09270  0.66180  Biso   1.000  C
  H114     1.0000 0.17070  0.09470  0.64230  Biso   1.000  H
  C130     1.0000 0.20720  0.95980  0.09180  Biso   1.000  C
  H115     1.0000 0.22780  0.98070  0.04890  Biso   1.000  H
  C131     1.0000 0.18070  0.88920  0.12760  Biso   1.000  C
  H116     1.0000 0.18460  0.86200  0.10720  Biso   1.000  H
  C132     1.0000 0.40740  0.05332  0.70740  Biso   1.000  C
  H117     1.0000 0.43950  0.02750  0.71500  Biso   1.000  H
  C133     1.0000 0.47020  0.08740  0.73770  Biso   1.000  C
  H118     1.0000 0.54460  0.08460  0.76690  Biso   1.000  H
  C134     1.0000 0.16240  0.89860  0.22500  Biso   1.000  C
  H119     1.0000 0.14750  0.87800  0.27160  Biso   1.000  H
  C135     1.0000 0.18910  0.96750  0.19460  Biso   1.000  C
  H120     1.0000 0.19430  0.99430  0.21880  Biso   1.000  H
  Mn4      1.0000 0.79230  0.43205  0.39752  Biso   1.000  Mn
  N19      1.0000 0.61090  0.36908  0.30780  Biso   1.000  N
  O19      1.0000 0.96640  0.44490  0.40290  Biso   1.000  O
  O20      1.0000 0.72110  0.48727  0.34870  Biso   1.000  O
  N20      1.0000 0.79290  0.41348  0.22790  Biso   1.000  N
  N21      1.0000 0.63450  0.39971  0.37630  Biso   1.000  N
  N22      1.0000 0.74060  0.37983  0.18940  Biso   1.000  N
  C136     1.0000 0.82310  0.43246  0.14510  Biso   1.000  C
  O21      1.0000 0.92060  0.47376  0.61780  Biso   1.000  O
  O22      1.0000 0.79530  0.43040  0.55910  Biso   1.000  O
  O23      1.0000 0.93800  0.38051  0.41260  Biso   1.000  O
  C137     1.0000 0.70140  0.35205  0.26080  Biso   1.000  C
  H121     1.0000 0.67700  0.32720  0.22320  Biso   1.000  H
  H122     1.0000 0.76160  0.34510  0.31620  Biso   1.000  H
  C138     1.0000 0.76430  0.52039  0.37160  Biso   1.000  C
  C139     1.0000 0.00000  0.40912  0.40160  Biso   1.000  C
  C140     1.0000 0.28530  0.42921  0.34360  Biso   1.000  C
  H123     1.0000 0.32610  0.45150  0.32450  Biso   1.000  H
  C141     1.0000 0.53750  0.41150  0.40140  Biso   1.000  C
  C142     1.0000 0.50300  0.36142  0.28930  Biso   1.000  C
  C143     1.0000 0.83470  0.43961  0.74100  Biso   1.000  C
  C144     1.0000 0.45260  0.38791  0.34880  Biso   1.000  C
  C145     1.0000 0.78870  0.41100  0.05360  Biso   1.000  C
  C146     1.0000 0.33620  0.39224  0.35740  Biso   1.000  C
  C147     1.0000 0.70320  0.55741  0.33420  Biso   1.000  C
  C148     1.0000 0.73610  0.37714  0.08430  Biso   1.000  C
  C149     1.0000 0.11640  0.40231  0.38460  Biso   1.000  C
  C150     1.0000 0.85310  0.44889  0.62930  Biso   1.000  C
  C151     1.0000 0.80550  0.42113  0.94600  Biso   1.000  C
  C152     1.0000 0.16340  0.36482  0.39660  Biso   1.000  C
  H124     1.0000 0.12150  0.34250  0.41340  Biso   1.000  H
  N23      1.0000 0.43730  0.71507  0.17290  Biso   1.000  N
  C153     1.0000 0.88270  0.47151  0.15740  Biso   1.000  C
  H125     1.0000 0.93210  0.47370  0.10440  Biso   1.000  H
  H126     1.0000 0.83000  0.49350  0.14890  Biso   1.000  H
  H127     1.0000 0.92510  0.47290  0.22680  Biso   1.000  H
  C154     1.0000 0.68170  0.34355  0.02210  Biso   1.000  C
  H128     1.0000 0.71880  0.31840  0.04370  Biso   1.000  H
  H129     1.0000 0.60510  0.34190  0.03380  Biso   1.000  H
  H130     1.0000 0.68560  0.34820  0.94800  Biso   1.000  H
  C155     1.0000 0.50440  0.66098  0.24870  Biso   1.000  C
  C156     1.0000 0.27270  0.36003  0.38370  Biso   1.000  C
  H131     1.0000 0.30500  0.33430  0.39290  Biso   1.000  H
  C157     1.0000 0.57680  0.62527  0.27520  Biso   1.000  C
  C158     1.0000 0.53070  0.44598  0.47330  Biso   1.000  C
  H132     1.0000 0.52610  0.47090  0.43330  Biso   1.000  H
  H133     1.0000 0.46550  0.44320  0.50840  Biso   1.000  H
  H134     1.0000 0.59590  0.44650  0.52530  Biso   1.000  H
  N24      1.0000 0.36860  0.70595  0.24750  Biso   1.000  N
  C159     1.0000 0.41400  0.67377  0.29300  Biso   1.000  C
  C160     1.0000 0.51770  0.68823  0.17200  Biso   1.000  C
  C161     1.0000 0.73310  0.43000  0.76630  Biso   1.000  C
  H135     1.0000 0.67120  0.43050  0.71430  Biso   1.000  H
  C162     1.0000 0.45600  0.33135  0.21250  Biso   1.000  C
  H136     1.0000 0.49070  0.30540  0.22910  Biso   1.000  H
  H137     1.0000 0.37730  0.32910  0.21490  Biso   1.000  H
  H138     1.0000 0.46870  0.33960  0.14250  Biso   1.000  H
  C163     1.0000 0.58360  0.59760  0.21060  Biso   1.000  C
  H139     1.0000 0.54650  0.60010  0.14180  Biso   1.000  H
  C164     1.0000 0.92130  0.44510  0.82200  Biso   1.000  C
  H140     1.0000 0.98880  0.45590  0.80750  Biso   1.000  H
  C165     1.0000 0.36930  0.65495  0.38440  Biso   1.000  C
  H141     1.0000 0.37180  0.62580  0.37830  Biso   1.000  H
  H142     1.0000 0.41340  0.66330  0.44930  Biso   1.000  H
  H143     1.0000 0.29350  0.66350  0.38490  Biso   1.000  H
  C166     1.0000 0.60650  0.69067  0.10000  Biso   1.000  C
  H144     1.0000 0.66680  0.70730  0.13260  Biso   1.000  H
  H145     1.0000 0.63360  0.66380  0.08820  Biso   1.000  H
  H146     1.0000 0.57570  0.70250  0.03330  Biso   1.000  H
  C167     1.0000 0.17700  0.43465  0.35690  Biso   1.000  C
  H147     1.0000 0.14430  0.46030  0.34710  Biso   1.000  H
  C168     1.0000 0.90770  0.43470  0.92320  Biso   1.000  C
  H148     1.0000 0.96750  0.43670  0.97720  Biso   1.000  H
  C169     1.0000 0.72150  0.41960  0.86810  Biso   1.000  C
  H149     1.0000 0.65200  0.41110  0.88340  Biso   1.000  H
  O24      1.0000 0.85570  0.52580  0.42380  Biso   1.000  O
  C170     1.0000 0.71050  0.59250  0.39720  Biso   1.000  C
  H150     1.0000 0.76730  0.59450  0.45400  Biso   1.000  H
  C171     1.0000 0.63120  0.62620  0.37640  Biso   1.000  C
  H151     1.0000 0.61940  0.64590  0.42640  Biso   1.000  H
  C172     1.0000 0.64480  0.56330  0.23850  Biso   1.000  C
  H152     1.0000 0.64580  0.54280  0.18780  Biso   1.000  H
  C173     1.0000 0.68820  0.62720  0.31260  Biso   1.000  C
  H153     1.0000 0.72210  0.65270  0.32120  Biso   1.000  H
  C174     1.0000 0.75260  0.59270  0.33820  Biso   1.000  C
  H154     1.0000 0.82930  0.59470  0.35770  Biso   1.000  H
  C175     1.0000 0.79280  0.45980  0.90820  Biso   1.000  C
  H155     1.0000 0.77220  0.48070  0.95110  Biso   1.000  H
  C176     1.0000 0.81930  0.38920  0.87240  Biso   1.000  C
  H156     1.0000 0.81540  0.36200  0.89280  Biso   1.000  H
  C177     1.0000 0.59260  0.55332  0.29260  Biso   1.000  C
  H157     1.0000 0.56050  0.52750  0.28500  Biso   1.000  H
  C178     1.0000 0.52980  0.58740  0.26230  Biso   1.000  C
  H158     1.0000 0.45540  0.58460  0.23310  Biso   1.000  H
  C179     1.0000 0.83760  0.39860  0.77500  Biso   1.000  C
  H159     1.0000 0.85250  0.37800  0.72840  Biso   1.000  H
  C180     1.0000 0.81090  0.46750  0.80540  Biso   1.000  C
  H160     1.0000 0.80570  0.49430  0.78120  Biso   1.000  H
  Mn5      1.0000 0.00000  0.00000  0.50000  Biso   1.000  Mn
  Mn6      1.0000 0.00000  0.50000  0.50000  Biso   1.000  Mn
  C181     1.0000 0.41230  0.75000  0.10600  Biso   1.000  C
  H161     1.0000 0.33440  0.75000  0.07590  Biso   1.000  H
  H162     1.0000 0.45760  0.75000  0.04840  Biso   1.000  H
  Mn7      1.0000 0.23316  0.75000  0.28068  Biso   1.000  Mn
  Cl1      1.0000 0.13400  0.75000  0.09830  Biso   1.000  Cl
  C182     1.0000 0.58770  0.25000  0.89400  Biso   1.000  C
  H163     1.0000 0.66560  0.25000  0.92410  Biso   1.000  H
  H164     1.0000 0.54240  0.25000  0.95160  Biso   1.000  H
  Mn8      1.0000 0.76684  0.25000  0.71932  Biso   1.000  Mn
  Cl2      1.0000 0.86600  0.25000  0.90170  Biso   1.000  Cl
