data_image0
_cell_length_a       34.057
_cell_length_b       11.41
_cell_length_c       23.001
_cell_angle_alpha    90
_cell_angle_beta     114.913
_cell_angle_gamma    90

_symmetry_space_group_name_H-M    "P 1"
_symmetry_int_tables_number       1

loop_
  _symmetry_equiv_pos_as_xyz
  'x, y, z'

loop_
  _atom_site_label
  _atom_site_occupancy
  _atom_site_fract_x
  _atom_site_fract_y
  _atom_site_fract_z
  _atom_site_thermal_displace_type
  _atom_site_B_iso_or_equiv
  _atom_site_type_symbol
  Cu1      1.0000 0.15763  0.93071  0.56763  Biso   1.000  Cu
  Cu2      1.0000 0.16335  0.03991  0.47887  Biso   1.000  Cu
  Cu3      1.0000 0.15870  0.08536  0.77058  Biso   1.000  Cu
  Cu4      1.0000 0.30584  0.00269  0.67186  Biso   1.000  Cu
  Cu5      1.0000 0.01041  0.98530  0.42249  Biso   1.000  Cu
  Cu6      1.0000 0.87627  0.11449  0.24714  Biso   1.000  Cu
  K1       1.0000 0.12458  0.48090  0.54476  Biso   1.000  K
  S1       1.0000 0.17302  0.73320  0.58217  Biso   1.000  S
  S2       1.0000 0.13726  0.23990  0.46942  Biso   1.000  S
  S3       1.0000 0.98461  0.85510  0.48269  Biso   1.000  S
  O1       1.0000 0.14040  0.62110  0.45520  Biso   1.000  O
  O2       1.0000 0.07650  0.44780  0.40710  Biso   1.000  O
  O3       1.0000 0.20440  0.37160  0.57470  Biso   1.000  O
  O4       1.0000 0.19850  0.51690  0.66650  Biso   1.000  O
  O5       1.0000 0.92530  0.62810  0.39560  Biso   1.000  O
  O6       1.0000 0.92970  0.39120  0.41810  Biso   1.000  O
  C1       1.0000 0.20450  0.69090  0.53880  Biso   1.000  C
  H1       1.0000 0.22890  0.74350  0.54940  Biso   1.000  H
  H2       1.0000 0.21550  0.61190  0.55060  Biso   1.000  H
  C2       1.0000 0.17600  0.69650  0.46830  Biso   1.000  C
  H3       1.0000 0.16590  0.77620  0.45610  Biso   1.000  H
  H4       1.0000 0.19200  0.67230  0.44410  Biso   1.000  H
  C3       1.0000 0.10680  0.63100  0.39300  Biso   1.000  C
  C4       1.0000 0.06730  0.56590  0.38770  Biso   1.000  C
  C5       1.0000 0.08900  0.51400  0.36560  Biso   1.000  C
  C6       1.0000 0.08370  0.37110  0.36420  Biso   1.000  C
  C7       1.0000 0.06100  0.33720  0.38000  Biso   1.000  C
  C8       1.0000 0.09530  0.24840  0.38830  Biso   1.000  C
  C9       1.0000 0.17990  0.32810  0.46440  Biso   1.000  C
  H5       1.0000 0.18830  0.29620  0.43220  Biso   1.000  H
  H6       1.0000 0.16980  0.40770  0.45230  Biso   1.000  H
  C10      1.0000 0.21770  0.32730  0.52850  Biso   1.000  C
  H7       1.0000 0.22850  0.24800  0.53970  Biso   1.000  H
  H8       1.0000 0.24080  0.37540  0.52730  Biso   1.000  H
  C11      1.0000 0.23560  0.35990  0.63870  Biso   1.000  C
  H9       1.0000 0.26130  0.40440  0.64480  Biso   1.000  H
  H10      1.0000 0.24380  0.27820  0.64790  Biso   1.000  H
  C12      1.0000 0.21710  0.40410  0.68300  Biso   1.000  C
  H11      1.0000 0.19520  0.34950  0.68280  Biso   1.000  H
  H12      1.0000 0.23990  0.40640  0.72630  Biso   1.000  H
  C13      1.0000 0.23060  0.60520  0.68560  Biso   1.000  C
  H13      1.0000 0.25060  0.59030  0.66650  Biso   1.000  H
  H14      1.0000 0.24680  0.60320  0.73190  Biso   1.000  H
  C14      1.0000 0.21070  0.72340  0.66560  Biso   1.000  C
  H15      1.0000 0.23360  0.78040  0.67400  Biso   1.000  H
  H16      1.0000 0.19560  0.74430  0.69180  Biso   1.000  H
  C15      1.0000 0.92810  0.82190  0.43530  Biso   1.000  C
  H17      1.0000 0.91690  0.78260  0.46250  Biso   1.000  H
  H18      1.0000 0.91250  0.89510  0.42130  Biso   1.000  H
  C16      1.0000 0.91890  0.74730  0.37760  Biso   1.000  C
  H19      1.0000 0.88930  0.75940  0.34650  Biso   1.000  H
  H20      1.0000 0.93800  0.76930  0.35780  Biso   1.000  H
  C17      1.0000 0.91660  0.54870  0.34450  Biso   1.000  C
  H21      1.0000 0.92570  0.58270  0.31350  Biso   1.000  H
  H22      1.0000 0.88580  0.53370  0.32320  Biso   1.000  H
  C18      1.0000 0.94020  0.43630  0.36920  Biso   1.000  C
  H23      1.0000 0.93230  0.38000  0.33450  Biso   1.000  H
  H24      1.0000 0.97120  0.44970  0.38610  Biso   1.000  H
  C19      1.0000 0.94670  0.27870  0.44140  Biso   1.000  C
  H25      1.0000 0.94530  0.22990  0.40610  Biso   1.000  H
  H26      1.0000 0.92950  0.24190  0.46080  Biso   1.000  H
  C20      1.0000 0.00740  0.71180  0.51010  Biso   1.000  C
  H27      1.0000 0.00620  0.66590  0.47390  Biso   1.000  H
  H28      1.0000 0.99040  0.67180  0.52890  Biso   1.000  H
  N1       1.0000 0.25070  0.01050  0.59580  Biso   1.000  N
  C21      1.0000 0.21700  0.01360  0.55500  Biso   1.000  C
  N2       1.0000 0.07140  0.96440  0.45520  Biso   1.000  N
  C22      1.0000 0.10760  0.96620  0.48440  Biso   1.000  C
  N3       1.0000 0.93330  0.06520  0.30740  Biso   1.000  N
  C23      1.0000 0.96430  0.03410  0.34920  Biso   1.000  C
  N4       1.0000 0.15740  0.00940  0.39250  Biso   1.000  N
  C24      1.0000 0.15430  0.99150  0.34180  Biso   1.000  C
  N5       1.0000 0.17590  0.34430  0.80030  Biso   1.000  N
  C25      1.0000 0.16760  0.24890  0.78530  Biso   1.000  C
  N6       1.0000 0.16030  0.99130  0.64770  Biso   1.000  N
  C26      1.0000 0.16100  0.02200  0.69570  Biso   1.000  C
  N7       1.0000 0.34780  0.23650  0.72130  Biso   1.000  N
  C27      1.0000 0.33100  0.14700  0.70300  Biso   1.000  C
  Cu7      1.0000 0.65763  0.43071  0.56763  Biso   1.000  Cu
  Cu8      1.0000 0.66335  0.53991  0.47887  Biso   1.000  Cu
  Cu9      1.0000 0.65870  0.58536  0.77058  Biso   1.000  Cu
  Cu10     1.0000 0.80584  0.50269  0.67186  Biso   1.000  Cu
  Cu11     1.0000 0.51041  0.48530  0.42249  Biso   1.000  Cu
  Cu12     1.0000 0.37627  0.61449  0.24714  Biso   1.000  Cu
  K2       1.0000 0.62458  0.98090  0.54476  Biso   1.000  K
  S4       1.0000 0.67302  0.23320  0.58217  Biso   1.000  S
  S5       1.0000 0.63726  0.73990  0.46942  Biso   1.000  S
  S6       1.0000 0.48461  0.35510  0.48269  Biso   1.000  S
  O7       1.0000 0.64040  0.12110  0.45520  Biso   1.000  O
  O8       1.0000 0.57650  0.94780  0.40710  Biso   1.000  O
  O9       1.0000 0.70440  0.87160  0.57470  Biso   1.000  O
  O10      1.0000 0.69850  0.01690  0.66650  Biso   1.000  O
  O11      1.0000 0.42530  0.12810  0.39560  Biso   1.000  O
  O12      1.0000 0.42970  0.89120  0.41810  Biso   1.000  O
  C28      1.0000 0.70450  0.19090  0.53880  Biso   1.000  C
  H29      1.0000 0.72890  0.24350  0.54940  Biso   1.000  H
  H30      1.0000 0.71550  0.11190  0.55060  Biso   1.000  H
  C29      1.0000 0.67600  0.19650  0.46830  Biso   1.000  C
  H31      1.0000 0.66590  0.27620  0.45610  Biso   1.000  H
  H32      1.0000 0.69200  0.17230  0.44410  Biso   1.000  H
  C30      1.0000 0.60680  0.13100  0.39300  Biso   1.000  C
  C31      1.0000 0.56730  0.06590  0.38770  Biso   1.000  C
  C32      1.0000 0.58900  0.01400  0.36560  Biso   1.000  C
  C33      1.0000 0.58370  0.87110  0.36420  Biso   1.000  C
  C34      1.0000 0.56100  0.83720  0.38000  Biso   1.000  C
  C35      1.0000 0.59530  0.74840  0.38830  Biso   1.000  C
  C36      1.0000 0.67990  0.82810  0.46440  Biso   1.000  C
  H33      1.0000 0.68830  0.79620  0.43220  Biso   1.000  H
  H34      1.0000 0.66980  0.90770  0.45230  Biso   1.000  H
  C37      1.0000 0.71770  0.82730  0.52850  Biso   1.000  C
  H35      1.0000 0.72850  0.74800  0.53970  Biso   1.000  H
  H36      1.0000 0.74080  0.87540  0.52730  Biso   1.000  H
  C38      1.0000 0.73560  0.85990  0.63870  Biso   1.000  C
  H37      1.0000 0.76130  0.90440  0.64480  Biso   1.000  H
  H38      1.0000 0.74380  0.77820  0.64790  Biso   1.000  H
  C39      1.0000 0.71710  0.90410  0.68300  Biso   1.000  C
  H39      1.0000 0.69520  0.84950  0.68280  Biso   1.000  H
  H40      1.0000 0.73990  0.90640  0.72630  Biso   1.000  H
  C40      1.0000 0.73060  0.10520  0.68560  Biso   1.000  C
  H41      1.0000 0.75060  0.09030  0.66650  Biso   1.000  H
  H42      1.0000 0.74680  0.10320  0.73190  Biso   1.000  H
  C41      1.0000 0.71070  0.22340  0.66560  Biso   1.000  C
  H43      1.0000 0.73360  0.28040  0.67400  Biso   1.000  H
  H44      1.0000 0.69560  0.24430  0.69180  Biso   1.000  H
  C42      1.0000 0.42810  0.32190  0.43530  Biso   1.000  C
  H45      1.0000 0.41690  0.28260  0.46250  Biso   1.000  H
  H46      1.0000 0.41250  0.39510  0.42130  Biso   1.000  H
  C43      1.0000 0.41890  0.24730  0.37760  Biso   1.000  C
  H47      1.0000 0.38930  0.25940  0.34650  Biso   1.000  H
  H48      1.0000 0.43800  0.26930  0.35780  Biso   1.000  H
  C44      1.0000 0.41660  0.04870  0.34450  Biso   1.000  C
  H49      1.0000 0.42570  0.08270  0.31350  Biso   1.000  H
  H50      1.0000 0.38580  0.03370  0.32320  Biso   1.000  H
  C45      1.0000 0.44020  0.93630  0.36920  Biso   1.000  C
  H51      1.0000 0.43230  0.88000  0.33450  Biso   1.000  H
  H52      1.0000 0.47120  0.94970  0.38610  Biso   1.000  H
  C46      1.0000 0.44670  0.77870  0.44140  Biso   1.000  C
  H53      1.0000 0.44530  0.72990  0.40610  Biso   1.000  H
  H54      1.0000 0.42950  0.74190  0.46080  Biso   1.000  H
  C47      1.0000 0.50740  0.21180  0.51010  Biso   1.000  C
  H55      1.0000 0.50620  0.16590  0.47390  Biso   1.000  H
  H56      1.0000 0.49040  0.17180  0.52890  Biso   1.000  H
  N8       1.0000 0.75070  0.51050  0.59580  Biso   1.000  N
  C48      1.0000 0.71700  0.51360  0.55500  Biso   1.000  C
  N9       1.0000 0.57140  0.46440  0.45520  Biso   1.000  N
  C49      1.0000 0.60760  0.46620  0.48440  Biso   1.000  C
  N10      1.0000 0.43330  0.56520  0.30740  Biso   1.000  N
  C50      1.0000 0.46430  0.53410  0.34920  Biso   1.000  C
  N11      1.0000 0.65740  0.50940  0.39250  Biso   1.000  N
  C51      1.0000 0.65430  0.49150  0.34180  Biso   1.000  C
  N12      1.0000 0.67590  0.84430  0.80030  Biso   1.000  N
  C52      1.0000 0.66760  0.74890  0.78530  Biso   1.000  C
  N13      1.0000 0.66030  0.49130  0.64770  Biso   1.000  N
  C53      1.0000 0.66100  0.52200  0.69570  Biso   1.000  C
  N14      1.0000 0.84780  0.73650  0.72130  Biso   1.000  N
  C54      1.0000 0.83100  0.64700  0.70300  Biso   1.000  C
  Cu13     1.0000 0.84237  0.93071  0.93237  Biso   1.000  Cu
  Cu14     1.0000 0.83665  0.03991  0.02113  Biso   1.000  Cu
  Cu15     1.0000 0.84130  0.08536  0.72942  Biso   1.000  Cu
  Cu16     1.0000 0.69416  0.00269  0.82814  Biso   1.000  Cu
  Cu17     1.0000 0.98959  0.98530  0.07751  Biso   1.000  Cu
  Cu18     1.0000 0.12373  0.11449  0.25286  Biso   1.000  Cu
  K3       1.0000 0.87542  0.48090  0.95524  Biso   1.000  K
  S7       1.0000 0.82698  0.73320  0.91783  Biso   1.000  S
  S8       1.0000 0.86274  0.23990  0.03058  Biso   1.000  S
  S9       1.0000 0.01539  0.85510  0.01731  Biso   1.000  S
  O13      1.0000 0.85960  0.62110  0.04480  Biso   1.000  O
  O14      1.0000 0.92350  0.44780  0.09290  Biso   1.000  O
  O15      1.0000 0.79560  0.37160  0.92530  Biso   1.000  O
  O16      1.0000 0.80150  0.51690  0.83350  Biso   1.000  O
  O17      1.0000 0.07470  0.62810  0.10440  Biso   1.000  O
  O18      1.0000 0.07030  0.39120  0.08190  Biso   1.000  O
  C55      1.0000 0.79550  0.69090  0.96120  Biso   1.000  C
  H57      1.0000 0.77110  0.74350  0.95060  Biso   1.000  H
  H58      1.0000 0.78450  0.61190  0.94940  Biso   1.000  H
  C56      1.0000 0.82400  0.69650  0.03170  Biso   1.000  C
  H59      1.0000 0.83410  0.77620  0.04390  Biso   1.000  H
  H60      1.0000 0.80800  0.67230  0.05590  Biso   1.000  H
  C57      1.0000 0.89320  0.63100  0.10700  Biso   1.000  C
  C58      1.0000 0.93270  0.56590  0.11230  Biso   1.000  C
  C59      1.0000 0.91100  0.51400  0.13440  Biso   1.000  C
  C60      1.0000 0.91630  0.37110  0.13580  Biso   1.000  C
  C61      1.0000 0.93900  0.33720  0.12000  Biso   1.000  C
  C62      1.0000 0.90470  0.24840  0.11170  Biso   1.000  C
  C63      1.0000 0.82010  0.32810  0.03560  Biso   1.000  C
  H61      1.0000 0.81170  0.29620  0.06780  Biso   1.000  H
  H62      1.0000 0.83020  0.40770  0.04770  Biso   1.000  H
  C64      1.0000 0.78230  0.32730  0.97150  Biso   1.000  C
  H63      1.0000 0.77150  0.24800  0.96030  Biso   1.000  H
  H64      1.0000 0.75920  0.37540  0.97270  Biso   1.000  H
  C65      1.0000 0.76440  0.35990  0.86130  Biso   1.000  C
  H65      1.0000 0.73870  0.40440  0.85520  Biso   1.000  H
  H66      1.0000 0.75620  0.27820  0.85210  Biso   1.000  H
  C66      1.0000 0.78290  0.40410  0.81700  Biso   1.000  C
  H67      1.0000 0.80480  0.34950  0.81720  Biso   1.000  H
  H68      1.0000 0.76010  0.40640  0.77370  Biso   1.000  H
  C67      1.0000 0.76940  0.60520  0.81440  Biso   1.000  C
  H69      1.0000 0.74940  0.59030  0.83350  Biso   1.000  H
  H70      1.0000 0.75320  0.60320  0.76810  Biso   1.000  H
  C68      1.0000 0.78930  0.72340  0.83440  Biso   1.000  C
  H71      1.0000 0.76640  0.78040  0.82600  Biso   1.000  H
  H72      1.0000 0.80440  0.74430  0.80820  Biso   1.000  H
  C69      1.0000 0.07190  0.82190  0.06470  Biso   1.000  C
  H73      1.0000 0.08310  0.78260  0.03750  Biso   1.000  H
  H74      1.0000 0.08750  0.89510  0.07870  Biso   1.000  H
  C70      1.0000 0.08110  0.74730  0.12240  Biso   1.000  C
  H75      1.0000 0.11070  0.75940  0.15350  Biso   1.000  H
  H76      1.0000 0.06200  0.76930  0.14220  Biso   1.000  H
  C71      1.0000 0.08340  0.54870  0.15550  Biso   1.000  C
  H77      1.0000 0.07430  0.58270  0.18650  Biso   1.000  H
  H78      1.0000 0.11420  0.53370  0.17680  Biso   1.000  H
  C72      1.0000 0.05980  0.43630  0.13080  Biso   1.000  C
  H79      1.0000 0.06770  0.38000  0.16550  Biso   1.000  H
  H80      1.0000 0.02880  0.44970  0.11390  Biso   1.000  H
  C73      1.0000 0.05330  0.27870  0.05860  Biso   1.000  C
  H81      1.0000 0.05470  0.22990  0.09390  Biso   1.000  H
  H82      1.0000 0.07050  0.24190  0.03920  Biso   1.000  H
  C74      1.0000 0.99260  0.71180  0.98990  Biso   1.000  C
  H83      1.0000 0.99380  0.66590  0.02610  Biso   1.000  H
  H84      1.0000 0.00960  0.67180  0.97110  Biso   1.000  H
  N15      1.0000 0.74930  0.01050  0.90420  Biso   1.000  N
  C75      1.0000 0.78300  0.01360  0.94500  Biso   1.000  C
  N16      1.0000 0.92860  0.96440  0.04480  Biso   1.000  N
  C76      1.0000 0.89240  0.96620  0.01560  Biso   1.000  C
  N17      1.0000 0.06670  0.06520  0.19260  Biso   1.000  N
  C77      1.0000 0.03570  0.03410  0.15080  Biso   1.000  C
  N18      1.0000 0.84260  0.00940  0.10750  Biso   1.000  N
  C78      1.0000 0.84570  0.99150  0.15820  Biso   1.000  C
  N19      1.0000 0.82410  0.34430  0.69970  Biso   1.000  N
  C79      1.0000 0.83240  0.24890  0.71470  Biso   1.000  C
  N20      1.0000 0.83970  0.99130  0.85230  Biso   1.000  N
  C80      1.0000 0.83900  0.02200  0.80430  Biso   1.000  C
  N21      1.0000 0.65220  0.23650  0.77870  Biso   1.000  N
  C81      1.0000 0.66900  0.14700  0.79700  Biso   1.000  C
  Cu19     1.0000 0.34237  0.43071  0.93237  Biso   1.000  Cu
  Cu20     1.0000 0.33665  0.53991  0.02113  Biso   1.000  Cu
  Cu21     1.0000 0.34130  0.58536  0.72942  Biso   1.000  Cu
  Cu22     1.0000 0.19416  0.50269  0.82814  Biso   1.000  Cu
  Cu23     1.0000 0.48959  0.48530  0.07751  Biso   1.000  Cu
  Cu24     1.0000 0.62373  0.61449  0.25286  Biso   1.000  Cu
  K4       1.0000 0.37542  0.98090  0.95524  Biso   1.000  K
  S10      1.0000 0.32698  0.23320  0.91783  Biso   1.000  S
  S11      1.0000 0.36274  0.73990  0.03058  Biso   1.000  S
  S12      1.0000 0.51539  0.35510  0.01731  Biso   1.000  S
  O19      1.0000 0.35960  0.12110  0.04480  Biso   1.000  O
  O20      1.0000 0.42350  0.94780  0.09290  Biso   1.000  O
  O21      1.0000 0.29560  0.87160  0.92530  Biso   1.000  O
  O22      1.0000 0.30150  0.01690  0.83350  Biso   1.000  O
  O23      1.0000 0.57470  0.12810  0.10440  Biso   1.000  O
  O24      1.0000 0.57030  0.89120  0.08190  Biso   1.000  O
  C82      1.0000 0.29550  0.19090  0.96120  Biso   1.000  C
  H85      1.0000 0.27110  0.24350  0.95060  Biso   1.000  H
  H86      1.0000 0.28450  0.11190  0.94940  Biso   1.000  H
  C83      1.0000 0.32400  0.19650  0.03170  Biso   1.000  C
  H87      1.0000 0.33410  0.27620  0.04390  Biso   1.000  H
  H88      1.0000 0.30800  0.17230  0.05590  Biso   1.000  H
  C84      1.0000 0.39320  0.13100  0.10700  Biso   1.000  C
  C85      1.0000 0.43270  0.06590  0.11230  Biso   1.000  C
  C86      1.0000 0.41100  0.01400  0.13440  Biso   1.000  C
  C87      1.0000 0.41630  0.87110  0.13580  Biso   1.000  C
  C88      1.0000 0.43900  0.83720  0.12000  Biso   1.000  C
  C89      1.0000 0.40470  0.74840  0.11170  Biso   1.000  C
  C90      1.0000 0.32010  0.82810  0.03560  Biso   1.000  C
  H89      1.0000 0.31170  0.79620  0.06780  Biso   1.000  H
  H90      1.0000 0.33020  0.90770  0.04770  Biso   1.000  H
  C91      1.0000 0.28230  0.82730  0.97150  Biso   1.000  C
  H91      1.0000 0.27150  0.74800  0.96030  Biso   1.000  H
  H92      1.0000 0.25920  0.87540  0.97270  Biso   1.000  H
  C92      1.0000 0.26440  0.85990  0.86130  Biso   1.000  C
  H93      1.0000 0.23870  0.90440  0.85520  Biso   1.000  H
  H94      1.0000 0.25620  0.77820  0.85210  Biso   1.000  H
  C93      1.0000 0.28290  0.90410  0.81700  Biso   1.000  C
  H95      1.0000 0.30480  0.84950  0.81720  Biso   1.000  H
  H96      1.0000 0.26010  0.90640  0.77370  Biso   1.000  H
  C94      1.0000 0.26940  0.10520  0.81440  Biso   1.000  C
  H97      1.0000 0.24940  0.09030  0.83350  Biso   1.000  H
  H98      1.0000 0.25320  0.10320  0.76810  Biso   1.000  H
  C95      1.0000 0.28930  0.22340  0.83440  Biso   1.000  C
  H99      1.0000 0.26640  0.28040  0.82600  Biso   1.000  H
  H100     1.0000 0.30440  0.24430  0.80820  Biso   1.000  H
  C96      1.0000 0.57190  0.32190  0.06470  Biso   1.000  C
  H101     1.0000 0.58310  0.28260  0.03750  Biso   1.000  H
  H102     1.0000 0.58750  0.39510  0.07870  Biso   1.000  H
  C97      1.0000 0.58110  0.24730  0.12240  Biso   1.000  C
  H103     1.0000 0.61070  0.25940  0.15350  Biso   1.000  H
  H104     1.0000 0.56200  0.26930  0.14220  Biso   1.000  H
  C98      1.0000 0.58340  0.04870  0.15550  Biso   1.000  C
  H105     1.0000 0.57430  0.08270  0.18650  Biso   1.000  H
  H106     1.0000 0.61420  0.03370  0.17680  Biso   1.000  H
  C99      1.0000 0.55980  0.93630  0.13080  Biso   1.000  C
  H107     1.0000 0.56770  0.88000  0.16550  Biso   1.000  H
  H108     1.0000 0.52880  0.94970  0.11390  Biso   1.000  H
  C100     1.0000 0.55330  0.77870  0.05860  Biso   1.000  C
  H109     1.0000 0.55470  0.72990  0.09390  Biso   1.000  H
  H110     1.0000 0.57050  0.74190  0.03920  Biso   1.000  H
  C101     1.0000 0.49260  0.21180  0.98990  Biso   1.000  C
  H111     1.0000 0.49380  0.16590  0.02610  Biso   1.000  H
  H112     1.0000 0.50960  0.17180  0.97110  Biso   1.000  H
  N22      1.0000 0.24930  0.51050  0.90420  Biso   1.000  N
  C102     1.0000 0.28300  0.51360  0.94500  Biso   1.000  C
  N23      1.0000 0.42860  0.46440  0.04480  Biso   1.000  N
  C103     1.0000 0.39240  0.46620  0.01560  Biso   1.000  C
  N24      1.0000 0.56670  0.56520  0.19260  Biso   1.000  N
  C104     1.0000 0.53570  0.53410  0.15080  Biso   1.000  C
  N25      1.0000 0.34260  0.50940  0.10750  Biso   1.000  N
  C105     1.0000 0.34570  0.49150  0.15820  Biso   1.000  C
  N26      1.0000 0.32410  0.84430  0.69970  Biso   1.000  N
  C106     1.0000 0.33240  0.74890  0.71470  Biso   1.000  C
  N27      1.0000 0.33970  0.49130  0.85230  Biso   1.000  N
  C107     1.0000 0.33900  0.52200  0.80430  Biso   1.000  C
  N28      1.0000 0.15220  0.73650  0.77870  Biso   1.000  N
  C108     1.0000 0.16900  0.64700  0.79700  Biso   1.000  C
  Cu25     1.0000 0.84237  0.06929  0.43237  Biso   1.000  Cu
  Cu26     1.0000 0.83665  0.96009  0.52113  Biso   1.000  Cu
  Cu27     1.0000 0.84130  0.91464  0.22942  Biso   1.000  Cu
  Cu28     1.0000 0.69416  0.99731  0.32814  Biso   1.000  Cu
  Cu29     1.0000 0.98959  0.01470  0.57751  Biso   1.000  Cu
  Cu30     1.0000 0.12373  0.88551  0.75286  Biso   1.000  Cu
  K5       1.0000 0.87542  0.51910  0.45524  Biso   1.000  K
  S13      1.0000 0.82698  0.26680  0.41783  Biso   1.000  S
  S14      1.0000 0.86274  0.76010  0.53058  Biso   1.000  S
  S15      1.0000 0.01539  0.14490  0.51731  Biso   1.000  S
  O25      1.0000 0.85960  0.37890  0.54480  Biso   1.000  O
  O26      1.0000 0.92350  0.55220  0.59290  Biso   1.000  O
  O27      1.0000 0.79560  0.62840  0.42530  Biso   1.000  O
  O28      1.0000 0.80150  0.48310  0.33350  Biso   1.000  O
  O29      1.0000 0.07470  0.37190  0.60440  Biso   1.000  O
  O30      1.0000 0.07030  0.60880  0.58190  Biso   1.000  O
  C109     1.0000 0.79550  0.30910  0.46120  Biso   1.000  C
  H113     1.0000 0.77110  0.25650  0.45060  Biso   1.000  H
  H114     1.0000 0.78450  0.38810  0.44940  Biso   1.000  H
  C110     1.0000 0.82400  0.30350  0.53170  Biso   1.000  C
  H115     1.0000 0.83410  0.22380  0.54390  Biso   1.000  H
  H116     1.0000 0.80800  0.32770  0.55590  Biso   1.000  H
  C111     1.0000 0.89320  0.36900  0.60700  Biso   1.000  C
  C112     1.0000 0.93270  0.43410  0.61230  Biso   1.000  C
  C113     1.0000 0.91100  0.48600  0.63440  Biso   1.000  C
  C114     1.0000 0.91630  0.62890  0.63580  Biso   1.000  C
  C115     1.0000 0.93900  0.66280  0.62000  Biso   1.000  C
  C116     1.0000 0.90470  0.75160  0.61170  Biso   1.000  C
  C117     1.0000 0.82010  0.67190  0.53560  Biso   1.000  C
  H117     1.0000 0.81170  0.70380  0.56780  Biso   1.000  H
  H118     1.0000 0.83020  0.59230  0.54770  Biso   1.000  H
  C118     1.0000 0.78230  0.67270  0.47150  Biso   1.000  C
  H119     1.0000 0.77150  0.75200  0.46030  Biso   1.000  H
  H120     1.0000 0.75920  0.62460  0.47270  Biso   1.000  H
  C119     1.0000 0.76440  0.64010  0.36130  Biso   1.000  C
  H121     1.0000 0.73870  0.59560  0.35520  Biso   1.000  H
  H122     1.0000 0.75620  0.72180  0.35210  Biso   1.000  H
  C120     1.0000 0.78290  0.59590  0.31700  Biso   1.000  C
  H123     1.0000 0.80480  0.65050  0.31720  Biso   1.000  H
  H124     1.0000 0.76010  0.59360  0.27370  Biso   1.000  H
  C121     1.0000 0.76940  0.39480  0.31440  Biso   1.000  C
  H125     1.0000 0.74940  0.40970  0.33350  Biso   1.000  H
  H126     1.0000 0.75320  0.39680  0.26810  Biso   1.000  H
  C122     1.0000 0.78930  0.27660  0.33440  Biso   1.000  C
  H127     1.0000 0.76640  0.21960  0.32600  Biso   1.000  H
  H128     1.0000 0.80440  0.25570  0.30820  Biso   1.000  H
  C123     1.0000 0.07190  0.17810  0.56470  Biso   1.000  C
  H129     1.0000 0.08310  0.21740  0.53750  Biso   1.000  H
  H130     1.0000 0.08750  0.10490  0.57870  Biso   1.000  H
  C124     1.0000 0.08110  0.25270  0.62240  Biso   1.000  C
  H131     1.0000 0.11070  0.24060  0.65350  Biso   1.000  H
  H132     1.0000 0.06200  0.23070  0.64220  Biso   1.000  H
  C125     1.0000 0.08340  0.45130  0.65550  Biso   1.000  C
  H133     1.0000 0.07430  0.41730  0.68650  Biso   1.000  H
  H134     1.0000 0.11420  0.46630  0.67680  Biso   1.000  H
  C126     1.0000 0.05980  0.56370  0.63080  Biso   1.000  C
  H135     1.0000 0.06770  0.62000  0.66550  Biso   1.000  H
  H136     1.0000 0.02880  0.55030  0.61390  Biso   1.000  H
  C127     1.0000 0.05330  0.72130  0.55860  Biso   1.000  C
  H137     1.0000 0.05470  0.77010  0.59390  Biso   1.000  H
  H138     1.0000 0.07050  0.75810  0.53920  Biso   1.000  H
  C128     1.0000 0.99260  0.28820  0.48990  Biso   1.000  C
  H139     1.0000 0.99380  0.33410  0.52610  Biso   1.000  H
  H140     1.0000 0.00960  0.32820  0.47110  Biso   1.000  H
  N29      1.0000 0.74930  0.98950  0.40420  Biso   1.000  N
  C129     1.0000 0.78300  0.98640  0.44500  Biso   1.000  C
  N30      1.0000 0.92860  0.03560  0.54480  Biso   1.000  N
  C130     1.0000 0.89240  0.03380  0.51560  Biso   1.000  C
  N31      1.0000 0.06670  0.93480  0.69260  Biso   1.000  N
  C131     1.0000 0.03570  0.96590  0.65080  Biso   1.000  C
  N32      1.0000 0.84260  0.99060  0.60750  Biso   1.000  N
  C132     1.0000 0.84570  0.00850  0.65820  Biso   1.000  C
  N33      1.0000 0.82410  0.65570  0.19970  Biso   1.000  N
  C133     1.0000 0.83240  0.75110  0.21470  Biso   1.000  C
  N34      1.0000 0.83970  0.00870  0.35230  Biso   1.000  N
  C134     1.0000 0.83900  0.97800  0.30430  Biso   1.000  C
  N35      1.0000 0.65220  0.76350  0.27870  Biso   1.000  N
  C135     1.0000 0.66900  0.85300  0.29700  Biso   1.000  C
  Cu31     1.0000 0.34237  0.56929  0.43237  Biso   1.000  Cu
  Cu32     1.0000 0.33665  0.46009  0.52113  Biso   1.000  Cu
  Cu33     1.0000 0.34130  0.41464  0.22942  Biso   1.000  Cu
  Cu34     1.0000 0.19416  0.49731  0.32814  Biso   1.000  Cu
  Cu35     1.0000 0.48959  0.51470  0.57751  Biso   1.000  Cu
  Cu36     1.0000 0.62373  0.38551  0.75286  Biso   1.000  Cu
  K6       1.0000 0.37542  0.01910  0.45524  Biso   1.000  K
  S16      1.0000 0.32698  0.76680  0.41783  Biso   1.000  S
  S17      1.0000 0.36274  0.26010  0.53058  Biso   1.000  S
  S18      1.0000 0.51539  0.64490  0.51731  Biso   1.000  S
  O31      1.0000 0.35960  0.87890  0.54480  Biso   1.000  O
  O32      1.0000 0.42350  0.05220  0.59290  Biso   1.000  O
  O33      1.0000 0.29560  0.12840  0.42530  Biso   1.000  O
  O34      1.0000 0.30150  0.98310  0.33350  Biso   1.000  O
  O35      1.0000 0.57470  0.87190  0.60440  Biso   1.000  O
  O36      1.0000 0.57030  0.10880  0.58190  Biso   1.000  O
  C136     1.0000 0.29550  0.80910  0.46120  Biso   1.000  C
  H141     1.0000 0.27110  0.75650  0.45060  Biso   1.000  H
  H142     1.0000 0.28450  0.88810  0.44940  Biso   1.000  H
  C137     1.0000 0.32400  0.80350  0.53170  Biso   1.000  C
  H143     1.0000 0.33410  0.72380  0.54390  Biso   1.000  H
  H144     1.0000 0.30800  0.82770  0.55590  Biso   1.000  H
  C138     1.0000 0.39320  0.86900  0.60700  Biso   1.000  C
  C139     1.0000 0.43270  0.93410  0.61230  Biso   1.000  C
  C140     1.0000 0.41100  0.98600  0.63440  Biso   1.000  C
  C141     1.0000 0.41630  0.12890  0.63580  Biso   1.000  C
  C142     1.0000 0.43900  0.16280  0.62000  Biso   1.000  C
  C143     1.0000 0.40470  0.25160  0.61170  Biso   1.000  C
  C144     1.0000 0.32010  0.17190  0.53560  Biso   1.000  C
  H145     1.0000 0.31170  0.20380  0.56780  Biso   1.000  H
  H146     1.0000 0.33020  0.09230  0.54770  Biso   1.000  H
  C145     1.0000 0.28230  0.17270  0.47150  Biso   1.000  C
  H147     1.0000 0.27150  0.25200  0.46030  Biso   1.000  H
  H148     1.0000 0.25920  0.12460  0.47270  Biso   1.000  H
  C146     1.0000 0.26440  0.14010  0.36130  Biso   1.000  C
  H149     1.0000 0.23870  0.09560  0.35520  Biso   1.000  H
  H150     1.0000 0.25620  0.22180  0.35210  Biso   1.000  H
  C147     1.0000 0.28290  0.09590  0.31700  Biso   1.000  C
  H151     1.0000 0.30480  0.15050  0.31720  Biso   1.000  H
  H152     1.0000 0.26010  0.09360  0.27370  Biso   1.000  H
  C148     1.0000 0.26940  0.89480  0.31440  Biso   1.000  C
  H153     1.0000 0.24940  0.90970  0.33350  Biso   1.000  H
  H154     1.0000 0.25320  0.89680  0.26810  Biso   1.000  H
  C149     1.0000 0.28930  0.77660  0.33440  Biso   1.000  C
  H155     1.0000 0.26640  0.71960  0.32600  Biso   1.000  H
  H156     1.0000 0.30440  0.75570  0.30820  Biso   1.000  H
  C150     1.0000 0.57190  0.67810  0.56470  Biso   1.000  C
  H157     1.0000 0.58310  0.71740  0.53750  Biso   1.000  H
  H158     1.0000 0.58750  0.60490  0.57870  Biso   1.000  H
  C151     1.0000 0.58110  0.75270  0.62240  Biso   1.000  C
  H159     1.0000 0.61070  0.74060  0.65350  Biso   1.000  H
  H160     1.0000 0.56200  0.73070  0.64220  Biso   1.000  H
  C152     1.0000 0.58340  0.95130  0.65550  Biso   1.000  C
  H161     1.0000 0.57430  0.91730  0.68650  Biso   1.000  H
  H162     1.0000 0.61420  0.96630  0.67680  Biso   1.000  H
  C153     1.0000 0.55980  0.06370  0.63080  Biso   1.000  C
  H163     1.0000 0.56770  0.12000  0.66550  Biso   1.000  H
  H164     1.0000 0.52880  0.05030  0.61390  Biso   1.000  H
  C154     1.0000 0.55330  0.22130  0.55860  Biso   1.000  C
  H165     1.0000 0.55470  0.27010  0.59390  Biso   1.000  H
  H166     1.0000 0.57050  0.25810  0.53920  Biso   1.000  H
  C155     1.0000 0.49260  0.78820  0.48990  Biso   1.000  C
  H167     1.0000 0.49380  0.83410  0.52610  Biso   1.000  H
  H168     1.0000 0.50960  0.82820  0.47110  Biso   1.000  H
  N36      1.0000 0.24930  0.48950  0.40420  Biso   1.000  N
  C156     1.0000 0.28300  0.48640  0.44500  Biso   1.000  C
  N37      1.0000 0.42860  0.53560  0.54480  Biso   1.000  N
  C157     1.0000 0.39240  0.53380  0.51560  Biso   1.000  C
  N38      1.0000 0.56670  0.43480  0.69260  Biso   1.000  N
  C158     1.0000 0.53570  0.46590  0.65080  Biso   1.000  C
  N39      1.0000 0.34260  0.49060  0.60750  Biso   1.000  N
  C159     1.0000 0.34570  0.50850  0.65820  Biso   1.000  C
  N40      1.0000 0.32410  0.15570  0.19970  Biso   1.000  N
  C160     1.0000 0.33240  0.25110  0.21470  Biso   1.000  C
  N41      1.0000 0.33970  0.50870  0.35230  Biso   1.000  N
  C161     1.0000 0.33900  0.47800  0.30430  Biso   1.000  C
  N42      1.0000 0.15220  0.26350  0.27870  Biso   1.000  N
  C162     1.0000 0.16900  0.35300  0.29700  Biso   1.000  C
  Cu37     1.0000 0.15763  0.06929  0.06763  Biso   1.000  Cu
  Cu38     1.0000 0.16335  0.96009  0.97887  Biso   1.000  Cu
  Cu39     1.0000 0.15870  0.91464  0.27058  Biso   1.000  Cu
  Cu40     1.0000 0.30584  0.99731  0.17186  Biso   1.000  Cu
  Cu41     1.0000 0.01041  0.01470  0.92249  Biso   1.000  Cu
  Cu42     1.0000 0.87627  0.88551  0.74714  Biso   1.000  Cu
  K7       1.0000 0.12458  0.51910  0.04476  Biso   1.000  K
  S19      1.0000 0.17302  0.26680  0.08217  Biso   1.000  S
  S20      1.0000 0.13726  0.76010  0.96942  Biso   1.000  S
  S21      1.0000 0.98461  0.14490  0.98269  Biso   1.000  S
  O37      1.0000 0.14040  0.37890  0.95520  Biso   1.000  O
  O38      1.0000 0.07650  0.55220  0.90710  Biso   1.000  O
  O39      1.0000 0.20440  0.62840  0.07470  Biso   1.000  O
  O40      1.0000 0.19850  0.48310  0.16650  Biso   1.000  O
  O41      1.0000 0.92530  0.37190  0.89560  Biso   1.000  O
  O42      1.0000 0.92970  0.60880  0.91810  Biso   1.000  O
  C163     1.0000 0.20450  0.30910  0.03880  Biso   1.000  C
  H169     1.0000 0.22890  0.25650  0.04940  Biso   1.000  H
  H170     1.0000 0.21550  0.38810  0.05060  Biso   1.000  H
  C164     1.0000 0.17600  0.30350  0.96830  Biso   1.000  C
  H171     1.0000 0.16590  0.22380  0.95610  Biso   1.000  H
  H172     1.0000 0.19200  0.32770  0.94410  Biso   1.000  H
  C165     1.0000 0.10680  0.36900  0.89300  Biso   1.000  C
  C166     1.0000 0.06730  0.43410  0.88770  Biso   1.000  C
  C167     1.0000 0.08900  0.48600  0.86560  Biso   1.000  C
  C168     1.0000 0.08370  0.62890  0.86420  Biso   1.000  C
  C169     1.0000 0.06100  0.66280  0.88000  Biso   1.000  C
  C170     1.0000 0.09530  0.75160  0.88830  Biso   1.000  C
  C171     1.0000 0.17990  0.67190  0.96440  Biso   1.000  C
  H173     1.0000 0.18830  0.70380  0.93220  Biso   1.000  H
  H174     1.0000 0.16980  0.59230  0.95230  Biso   1.000  H
  C172     1.0000 0.21770  0.67270  0.02850  Biso   1.000  C
  H175     1.0000 0.22850  0.75200  0.03970  Biso   1.000  H
  H176     1.0000 0.24080  0.62460  0.02730  Biso   1.000  H
  C173     1.0000 0.23560  0.64010  0.13870  Biso   1.000  C
  H177     1.0000 0.26130  0.59560  0.14480  Biso   1.000  H
  H178     1.0000 0.24380  0.72180  0.14790  Biso   1.000  H
  C174     1.0000 0.21710  0.59590  0.18300  Biso   1.000  C
  H179     1.0000 0.19520  0.65050  0.18280  Biso   1.000  H
  H180     1.0000 0.23990  0.59360  0.22630  Biso   1.000  H
  C175     1.0000 0.23060  0.39480  0.18560  Biso   1.000  C
  H181     1.0000 0.25060  0.40970  0.16650  Biso   1.000  H
  H182     1.0000 0.24680  0.39680  0.23190  Biso   1.000  H
  C176     1.0000 0.21070  0.27660  0.16560  Biso   1.000  C
  H183     1.0000 0.23360  0.21960  0.17400  Biso   1.000  H
  H184     1.0000 0.19560  0.25570  0.19180  Biso   1.000  H
  C177     1.0000 0.92810  0.17810  0.93530  Biso   1.000  C
  H185     1.0000 0.91690  0.21740  0.96250  Biso   1.000  H
  H186     1.0000 0.91250  0.10490  0.92130  Biso   1.000  H
  C178     1.0000 0.91890  0.25270  0.87760  Biso   1.000  C
  H187     1.0000 0.88930  0.24060  0.84650  Biso   1.000  H
  H188     1.0000 0.93800  0.23070  0.85780  Biso   1.000  H
  C179     1.0000 0.91660  0.45130  0.84450  Biso   1.000  C
  H189     1.0000 0.92570  0.41730  0.81350  Biso   1.000  H
  H190     1.0000 0.88580  0.46630  0.82320  Biso   1.000  H
  C180     1.0000 0.94020  0.56370  0.86920  Biso   1.000  C
  H191     1.0000 0.93230  0.62000  0.83450  Biso   1.000  H
  H192     1.0000 0.97120  0.55030  0.88610  Biso   1.000  H
  C181     1.0000 0.94670  0.72130  0.94140  Biso   1.000  C
  H193     1.0000 0.94530  0.77010  0.90610  Biso   1.000  H
  H194     1.0000 0.92950  0.75810  0.96080  Biso   1.000  H
  C182     1.0000 0.00740  0.28820  0.01010  Biso   1.000  C
  H195     1.0000 0.00620  0.33410  0.97390  Biso   1.000  H
  H196     1.0000 0.99040  0.32820  0.02890  Biso   1.000  H
  N43      1.0000 0.25070  0.98950  0.09580  Biso   1.000  N
  C183     1.0000 0.21700  0.98640  0.05500  Biso   1.000  C
  N44      1.0000 0.07140  0.03560  0.95520  Biso   1.000  N
  C184     1.0000 0.10760  0.03380  0.98440  Biso   1.000  C
  N45      1.0000 0.93330  0.93480  0.80740  Biso   1.000  N
  C185     1.0000 0.96430  0.96590  0.84920  Biso   1.000  C
  N46      1.0000 0.15740  0.99060  0.89250  Biso   1.000  N
  C186     1.0000 0.15430  0.00850  0.84180  Biso   1.000  C
  N47      1.0000 0.17590  0.65570  0.30030  Biso   1.000  N
  C187     1.0000 0.16760  0.75110  0.28530  Biso   1.000  C
  N48      1.0000 0.16030  0.00870  0.14770  Biso   1.000  N
  C188     1.0000 0.16100  0.97800  0.19570  Biso   1.000  C
  N49      1.0000 0.34780  0.76350  0.22130  Biso   1.000  N
  C189     1.0000 0.33100  0.85300  0.20300  Biso   1.000  C
  Cu43     1.0000 0.65763  0.56929  0.06763  Biso   1.000  Cu
  Cu44     1.0000 0.66335  0.46009  0.97887  Biso   1.000  Cu
  Cu45     1.0000 0.65870  0.41464  0.27058  Biso   1.000  Cu
  Cu46     1.0000 0.80584  0.49731  0.17186  Biso   1.000  Cu
  Cu47     1.0000 0.51041  0.51470  0.92249  Biso   1.000  Cu
  Cu48     1.0000 0.37627  0.38551  0.74714  Biso   1.000  Cu
  K8       1.0000 0.62458  0.01910  0.04476  Biso   1.000  K
  S22      1.0000 0.67302  0.76680  0.08217  Biso   1.000  S
  S23      1.0000 0.63726  0.26010  0.96942  Biso   1.000  S
  S24      1.0000 0.48461  0.64490  0.98269  Biso   1.000  S
  O43      1.0000 0.64040  0.87890  0.95520  Biso   1.000  O
  O44      1.0000 0.57650  0.05220  0.90710  Biso   1.000  O
  O45      1.0000 0.70440  0.12840  0.07470  Biso   1.000  O
  O46      1.0000 0.69850  0.98310  0.16650  Biso   1.000  O
  O47      1.0000 0.42530  0.87190  0.89560  Biso   1.000  O
  O48      1.0000 0.42970  0.10880  0.91810  Biso   1.000  O
  C190     1.0000 0.70450  0.80910  0.03880  Biso   1.000  C
  H197     1.0000 0.72890  0.75650  0.04940  Biso   1.000  H
  H198     1.0000 0.71550  0.88810  0.05060  Biso   1.000  H
  C191     1.0000 0.67600  0.80350  0.96830  Biso   1.000  C
  H199     1.0000 0.66590  0.72380  0.95610  Biso   1.000  H
  H200     1.0000 0.69200  0.82770  0.94410  Biso   1.000  H
  C192     1.0000 0.60680  0.86900  0.89300  Biso   1.000  C
  C193     1.0000 0.56730  0.93410  0.88770  Biso   1.000  C
  C194     1.0000 0.58900  0.98600  0.86560  Biso   1.000  C
  C195     1.0000 0.58370  0.12890  0.86420  Biso   1.000  C
  C196     1.0000 0.56100  0.16280  0.88000  Biso   1.000  C
  C197     1.0000 0.59530  0.25160  0.88830  Biso   1.000  C
  C198     1.0000 0.67990  0.17190  0.96440  Biso   1.000  C
  H201     1.0000 0.68830  0.20380  0.93220  Biso   1.000  H
  H202     1.0000 0.66980  0.09230  0.95230  Biso   1.000  H
  C199     1.0000 0.71770  0.17270  0.02850  Biso   1.000  C
  H203     1.0000 0.72850  0.25200  0.03970  Biso   1.000  H
  H204     1.0000 0.74080  0.12460  0.02730  Biso   1.000  H
  C200     1.0000 0.73560  0.14010  0.13870  Biso   1.000  C
  H205     1.0000 0.76130  0.09560  0.14480  Biso   1.000  H
  H206     1.0000 0.74380  0.22180  0.14790  Biso   1.000  H
  C201     1.0000 0.71710  0.09590  0.18300  Biso   1.000  C
  H207     1.0000 0.69520  0.15050  0.18280  Biso   1.000  H
  H208     1.0000 0.73990  0.09360  0.22630  Biso   1.000  H
  C202     1.0000 0.73060  0.89480  0.18560  Biso   1.000  C
  H209     1.0000 0.75060  0.90970  0.16650  Biso   1.000  H
  H210     1.0000 0.74680  0.89680  0.23190  Biso   1.000  H
  C203     1.0000 0.71070  0.77660  0.16560  Biso   1.000  C
  H211     1.0000 0.73360  0.71960  0.17400  Biso   1.000  H
  H212     1.0000 0.69560  0.75570  0.19180  Biso   1.000  H
  C204     1.0000 0.42810  0.67810  0.93530  Biso   1.000  C
  H213     1.0000 0.41690  0.71740  0.96250  Biso   1.000  H
  H214     1.0000 0.41250  0.60490  0.92130  Biso   1.000  H
  C205     1.0000 0.41890  0.75270  0.87760  Biso   1.000  C
  H215     1.0000 0.38930  0.74060  0.84650  Biso   1.000  H
  H216     1.0000 0.43800  0.73070  0.85780  Biso   1.000  H
  C206     1.0000 0.41660  0.95130  0.84450  Biso   1.000  C
  H217     1.0000 0.42570  0.91730  0.81350  Biso   1.000  H
  H218     1.0000 0.38580  0.96630  0.82320  Biso   1.000  H
  C207     1.0000 0.44020  0.06370  0.86920  Biso   1.000  C
  H219     1.0000 0.43230  0.12000  0.83450  Biso   1.000  H
  H220     1.0000 0.47120  0.05030  0.88610  Biso   1.000  H
  C208     1.0000 0.44670  0.22130  0.94140  Biso   1.000  C
  H221     1.0000 0.44530  0.27010  0.90610  Biso   1.000  H
  H222     1.0000 0.42950  0.25810  0.96080  Biso   1.000  H
  C209     1.0000 0.50740  0.78820  0.01010  Biso   1.000  C
  H223     1.0000 0.50620  0.83410  0.97390  Biso   1.000  H
  H224     1.0000 0.49040  0.82820  0.02890  Biso   1.000  H
  N50      1.0000 0.75070  0.48950  0.09580  Biso   1.000  N
  C210     1.0000 0.71700  0.48640  0.05500  Biso   1.000  C
  N51      1.0000 0.57140  0.53560  0.95520  Biso   1.000  N
  C211     1.0000 0.60760  0.53380  0.98440  Biso   1.000  C
  N52      1.0000 0.43330  0.43480  0.80740  Biso   1.000  N
  C212     1.0000 0.46430  0.46590  0.84920  Biso   1.000  C
  N53      1.0000 0.65740  0.49060  0.89250  Biso   1.000  N
  C213     1.0000 0.65430  0.50850  0.84180  Biso   1.000  C
  N54      1.0000 0.67590  0.15570  0.30030  Biso   1.000  N
  C214     1.0000 0.66760  0.25110  0.28530  Biso   1.000  C
  N55      1.0000 0.66030  0.50870  0.14770  Biso   1.000  N
  C215     1.0000 0.66100  0.47800  0.19570  Biso   1.000  C
  N56      1.0000 0.84780  0.26350  0.22130  Biso   1.000  N
  C216     1.0000 0.83100  0.35300  0.20300  Biso   1.000  C
