data_image0
_cell_length_a       32.8077
_cell_length_b       35.0306
_cell_length_c       5.7321
_cell_angle_alpha    90
_cell_angle_beta     90
_cell_angle_gamma    90

_symmetry_space_group_name_H-M    "P 1"
_symmetry_int_tables_number       1

loop_
  _symmetry_equiv_pos_as_xyz
  'x, y, z'

loop_
  _atom_site_label
  _atom_site_occupancy
  _atom_site_fract_x
  _atom_site_fract_y
  _atom_site_fract_z
  _atom_site_thermal_displace_type
  _atom_site_B_iso_or_equiv
  _atom_site_type_symbol
  O1       1.0000 0.80720  0.70340  0.73700  Biso   1.000  O
  O2       1.0000 0.76330  0.70380  0.45800  Biso   1.000  O
  O3       1.0000 0.64770  0.30000  0.79200  Biso   1.000  O
  C1       1.0000 0.77700  0.68880  0.64000  Biso   1.000  C
  C2       1.0000 0.75870  0.65350  0.74000  Biso   1.000  C
  C3       1.0000 0.72640  0.63600  0.62800  Biso   1.000  C
  C4       1.0000 0.77240  0.63970  0.94350  Biso   1.000  C
  C5       1.0000 0.70850  0.60420  0.72800  Biso   1.000  C
  H1       1.0000 0.71690  0.64560  0.48670  Biso   1.000  H
  C6       1.0000 0.75450  0.60620  0.03920  Biso   1.000  C
  H2       1.0000 0.79350  0.65190  0.02170  Biso   1.000  H
  C7       1.0000 0.72240  0.58870  0.92400  Biso   1.000  C
  H3       1.0000 0.68590  0.59330  0.65500  Biso   1.000  H
  H4       1.0000 0.76420  0.59610  0.17850  Biso   1.000  H
  C8       1.0000 0.70450  0.55310  0.03100  Biso   1.000  C
  C9       1.0000 0.66340  0.54000  0.93500  Biso   1.000  C
  H5       1.0000 0.70160  0.55740  0.19730  Biso   1.000  H
  H6       1.0000 0.72390  0.53250  0.01050  Biso   1.000  H
  C10      1.0000 0.66200  0.51490  0.75000  Biso   1.000  C
  C11      1.0000 0.62800  0.55350  0.04200  Biso   1.000  C
  C12      1.0000 0.70150  0.50110  0.64200  Biso   1.000  C
  C13      1.0000 0.62400  0.50090  0.66900  Biso   1.000  C
  C14      1.0000 0.59040  0.53810  0.96900  Biso   1.000  C
  C15      1.0000 0.62950  0.58270  0.23500  Biso   1.000  C
  H7       1.0000 0.72120  0.52140  0.64480  Biso   1.000  H
  H8       1.0000 0.69670  0.49340  0.48400  Biso   1.000  H
  H9       1.0000 0.71170  0.47980  0.73000  Biso   1.000  H
  C16      1.0000 0.58820  0.51300  0.78400  Biso   1.000  C
  C17      1.0000 0.62090  0.47470  0.46300  Biso   1.000  C
  C18      1.0000 0.55310  0.55020  0.11100  Biso   1.000  C
  H10      1.0000 0.65730  0.59010  0.26230  Biso   1.000  H
  H11      1.0000 0.61840  0.57190  0.37500  Biso   1.000  H
  H12      1.0000 0.61390  0.60470  0.19110  Biso   1.000  H
  C19      1.0000 0.54690  0.49680  0.71600  Biso   1.000  C
  C20      1.0000 0.61920  0.43210  0.52800  Biso   1.000  C
  H13      1.0000 0.64410  0.47900  0.36200  Biso   1.000  H
  H14      1.0000 0.59650  0.48120  0.37540  Biso   1.000  H
  H15      1.0000 0.53310  0.52980  0.10350  Biso   1.000  H
  H16      1.0000 0.56130  0.55290  0.27270  Biso   1.000  H
  C21      1.0000 0.53300  0.58680  0.03470  Biso   1.000  C
  H17      1.0000 0.54150  0.47420  0.80510  Biso   1.000  H
  H18      1.0000 0.54700  0.49060  0.55260  Biso   1.000  H
  H19      1.0000 0.52610  0.51550  0.74590  Biso   1.000  H
  C22      1.0000 0.63630  0.41760  0.72500  Biso   1.000  C
  C23      1.0000 0.60070  0.40670  0.37000  Biso   1.000  C
  C24      1.0000 0.54350  0.60560  0.82980  Biso   1.000  C
  C25      1.0000 0.50390  0.60240  0.18300  Biso   1.000  C
  H20      1.0000 0.64790  0.43420  0.83220  Biso   1.000  H
  C26      1.0000 0.63670  0.37880  0.77000  Biso   1.000  C
  C27      1.0000 0.60140  0.36790  0.41700  Biso   1.000  C
  H21      1.0000 0.58820  0.41590  0.23570  Biso   1.000  H
  H22      1.0000 0.56290  0.59510  0.73060  Biso   1.000  H
  C28      1.0000 0.52490  0.64000  0.77300  Biso   1.000  C
  C29      1.0000 0.48530  0.63690  0.12600  Biso   1.000  C
  H23      1.0000 0.49680  0.58990  0.31990  Biso   1.000  H
  C30      1.0000 0.61960  0.35370  0.61600  Biso   1.000  C
  H24      1.0000 0.64880  0.36970  0.90540  Biso   1.000  H
  H25      1.0000 0.58940  0.35110  0.31200  Biso   1.000  H
  H26      1.0000 0.53200  0.65260  0.63600  Biso   1.000  H
  C31      1.0000 0.49590  0.65570  0.92100  Biso   1.000  C
  H27      1.0000 0.46590  0.64730  0.22530  Biso   1.000  H
  C32      1.0000 0.61930  0.31140  0.65960  Biso   1.000  C
  C33      1.0000 0.47610  0.69280  0.87280  Biso   1.000  C
  O4       1.0000 0.59440  0.29100  0.56700  Biso   1.000  O
  O5       1.0000 0.48260  0.70790  0.65080  Biso   1.000  O
  O6       1.0000 0.45300  0.70830  0.01230  Biso   1.000  O
  H28      1.0000 0.90010  0.74410  0.72100  Biso   1.000  H
  H29      1.0000 0.87490  0.77380  0.62860  Biso   1.000  H
  O7       1.0000 0.69280  0.29660  0.23700  Biso   1.000  O
  O8       1.0000 0.73670  0.29620  0.95800  Biso   1.000  O
  O9       1.0000 0.85230  0.70000  0.29200  Biso   1.000  O
  C34      1.0000 0.72300  0.31120  0.14000  Biso   1.000  C
  C35      1.0000 0.74130  0.34650  0.24000  Biso   1.000  C
  C36      1.0000 0.77360  0.36400  0.12800  Biso   1.000  C
  C37      1.0000 0.72760  0.36030  0.44350  Biso   1.000  C
  C38      1.0000 0.79150  0.39580  0.22800  Biso   1.000  C
  H30      1.0000 0.78310  0.35440  0.98670  Biso   1.000  H
  C39      1.0000 0.74550  0.39380  0.53920  Biso   1.000  C
  H31      1.0000 0.70650  0.34810  0.52170  Biso   1.000  H
  C40      1.0000 0.77760  0.41130  0.42400  Biso   1.000  C
  H32      1.0000 0.81410  0.40670  0.15500  Biso   1.000  H
  H33      1.0000 0.73580  0.40390  0.67850  Biso   1.000  H
  C41      1.0000 0.79550  0.44690  0.53100  Biso   1.000  C
  C42      1.0000 0.83660  0.46000  0.43500  Biso   1.000  C
  H34      1.0000 0.79840  0.44260  0.69730  Biso   1.000  H
  H35      1.0000 0.77610  0.46750  0.51050  Biso   1.000  H
  C43      1.0000 0.83800  0.48510  0.25000  Biso   1.000  C
  C44      1.0000 0.87200  0.44650  0.54200  Biso   1.000  C
  C45      1.0000 0.79850  0.49890  0.14200  Biso   1.000  C
  C46      1.0000 0.87600  0.49910  0.16900  Biso   1.000  C
  C47      1.0000 0.90960  0.46190  0.46900  Biso   1.000  C
  C48      1.0000 0.87050  0.41730  0.73500  Biso   1.000  C
  H36      1.0000 0.77880  0.47860  0.14480  Biso   1.000  H
  H37      1.0000 0.80330  0.50660  0.98400  Biso   1.000  H
  H38      1.0000 0.78830  0.52020  0.23000  Biso   1.000  H
  C49      1.0000 0.91180  0.48700  0.28400  Biso   1.000  C
  C50      1.0000 0.87910  0.52530  0.96300  Biso   1.000  C
  C51      1.0000 0.94690  0.44980  0.61100  Biso   1.000  C
  H39      1.0000 0.84270  0.40990  0.76230  Biso   1.000  H
  H40      1.0000 0.88160  0.42810  0.87500  Biso   1.000  H
  H41      1.0000 0.88610  0.39530  0.69110  Biso   1.000  H
  C52      1.0000 0.95310  0.50320  0.21600  Biso   1.000  C
  C53      1.0000 0.88080  0.56790  0.02800  Biso   1.000  C
  H42      1.0000 0.85590  0.52100  0.86200  Biso   1.000  H
  H43      1.0000 0.90350  0.51880  0.87540  Biso   1.000  H
  H44      1.0000 0.96690  0.47020  0.60350  Biso   1.000  H
  H45      1.0000 0.93870  0.44710  0.77270  Biso   1.000  H
  C54      1.0000 0.96700  0.41320  0.53470  Biso   1.000  C
  H46      1.0000 0.95850  0.52580  0.30510  Biso   1.000  H
  H47      1.0000 0.95300  0.50940  0.05260  Biso   1.000  H
  H48      1.0000 0.97390  0.48450  0.24590  Biso   1.000  H
  C55      1.0000 0.86370  0.58240  0.22500  Biso   1.000  C
  C56      1.0000 0.89930  0.59330  0.87000  Biso   1.000  C
  C57      1.0000 0.95650  0.39440  0.32980  Biso   1.000  C
  C58      1.0000 0.99610  0.39760  0.68300  Biso   1.000  C
  H49      1.0000 0.85210  0.56580  0.33220  Biso   1.000  H
  C59      1.0000 0.86330  0.62120  0.27000  Biso   1.000  C
  C60      1.0000 0.89860  0.63210  0.91700  Biso   1.000  C
  H50      1.0000 0.91180  0.58410  0.73570  Biso   1.000  H
  H51      1.0000 0.93710  0.40490  0.23060  Biso   1.000  H
  C61      1.0000 0.97510  0.36000  0.27300  Biso   1.000  C
  C62      1.0000 0.01470  0.36310  0.62600  Biso   1.000  C
  H52      1.0000 0.00320  0.41010  0.81990  Biso   1.000  H
  C63      1.0000 0.88040  0.64630  0.11600  Biso   1.000  C
  H53      1.0000 0.85120  0.63030  0.40540  Biso   1.000  H
  H54      1.0000 0.91060  0.64890  0.81200  Biso   1.000  H
  H55      1.0000 0.96800  0.34740  0.13600  Biso   1.000  H
  C64      1.0000 0.00410  0.34430  0.42100  Biso   1.000  C
  H56      1.0000 0.03410  0.35270  0.72530  Biso   1.000  H
  C65      1.0000 0.88070  0.68860  0.15960  Biso   1.000  C
  C66      1.0000 0.02390  0.30720  0.37280  Biso   1.000  C
  O10      1.0000 0.90560  0.70900  0.06700  Biso   1.000  O
  O11      1.0000 0.01740  0.29210  0.15080  Biso   1.000  O
  O12      1.0000 0.04700  0.29170  0.51230  Biso   1.000  O
  H57      1.0000 0.59990  0.25590  0.22100  Biso   1.000  H
  H58      1.0000 0.62510  0.22620  0.12860  Biso   1.000  H
  O13      1.0000 0.19280  0.20340  0.26300  Biso   1.000  O
  O14      1.0000 0.23670  0.20380  0.54200  Biso   1.000  O
  O15      1.0000 0.35230  0.80000  0.20800  Biso   1.000  O
  C67      1.0000 0.22300  0.18880  0.36000  Biso   1.000  C
  C68      1.0000 0.24130  0.15350  0.26000  Biso   1.000  C
  C69      1.0000 0.27360  0.13600  0.37200  Biso   1.000  C
  C70      1.0000 0.22760  0.13970  0.05650  Biso   1.000  C
  C71      1.0000 0.29150  0.10420  0.27200  Biso   1.000  C
  H59      1.0000 0.28310  0.14560  0.51330  Biso   1.000  H
  C72      1.0000 0.24550  0.10620  0.96080  Biso   1.000  C
  H60      1.0000 0.20650  0.15190  0.97830  Biso   1.000  H
  C73      1.0000 0.27760  0.08870  0.07600  Biso   1.000  C
  H61      1.0000 0.31410  0.09330  0.34500  Biso   1.000  H
  H62      1.0000 0.23580  0.09610  0.82150  Biso   1.000  H
  C74      1.0000 0.29550  0.05310  0.96900  Biso   1.000  C
  C75      1.0000 0.33660  0.04000  0.06500  Biso   1.000  C
  H63      1.0000 0.29840  0.05740  0.80270  Biso   1.000  H
  H64      1.0000 0.27610  0.03250  0.98950  Biso   1.000  H
  C76      1.0000 0.33800  0.01490  0.25000  Biso   1.000  C
  C77      1.0000 0.37200  0.05350  0.95800  Biso   1.000  C
  C78      1.0000 0.29850  0.00110  0.35800  Biso   1.000  C
  C79      1.0000 0.37600  0.00090  0.33100  Biso   1.000  C
  C80      1.0000 0.40960  0.03810  0.03100  Biso   1.000  C
  C81      1.0000 0.37050  0.08270  0.76500  Biso   1.000  C
  H65      1.0000 0.27880  0.02140  0.35520  Biso   1.000  H
  H66      1.0000 0.30330  0.99340  0.51600  Biso   1.000  H
  H67      1.0000 0.28830  0.97980  0.27000  Biso   1.000  H
  C82      1.0000 0.41180  0.01300  0.21600  Biso   1.000  C
  C83      1.0000 0.37910  0.97470  0.53700  Biso   1.000  C
  C84      1.0000 0.44690  0.05020  0.88900  Biso   1.000  C
  H68      1.0000 0.34270  0.09010  0.73770  Biso   1.000  H
  H69      1.0000 0.38160  0.07190  0.62500  Biso   1.000  H
  H70      1.0000 0.38610  0.10470  0.80890  Biso   1.000  H
  C85      1.0000 0.45310  0.99680  0.28400  Biso   1.000  C
  C86      1.0000 0.38080  0.93210  0.47200  Biso   1.000  C
  H71      1.0000 0.35590  0.97900  0.63800  Biso   1.000  H
  H72      1.0000 0.40350  0.98120  0.62460  Biso   1.000  H
  H73      1.0000 0.46690  0.02980  0.89650  Biso   1.000  H
  H74      1.0000 0.43870  0.05290  0.72730  Biso   1.000  H
  C87      1.0000 0.46700  0.08680  0.96530  Biso   1.000  C
  H75      1.0000 0.45850  0.97420  0.19490  Biso   1.000  H
  H76      1.0000 0.45300  0.99060  0.44740  Biso   1.000  H
  H77      1.0000 0.47390  0.01550  0.25410  Biso   1.000  H
  C88      1.0000 0.36370  0.91760  0.27500  Biso   1.000  C
  C89      1.0000 0.39930  0.90670  0.63000  Biso   1.000  C
  C90      1.0000 0.45650  0.10560  0.17020  Biso   1.000  C
  C91      1.0000 0.49610  0.10240  0.81700  Biso   1.000  C
  H78      1.0000 0.35210  0.93420  0.16780  Biso   1.000  H
  C92      1.0000 0.36330  0.87880  0.23000  Biso   1.000  C
  C93      1.0000 0.39860  0.86790  0.58300  Biso   1.000  C
  H79      1.0000 0.41180  0.91590  0.76430  Biso   1.000  H
  H80      1.0000 0.43710  0.09510  0.26940  Biso   1.000  H
  C94      1.0000 0.47510  0.14000  0.22700  Biso   1.000  C
  C95      1.0000 0.51470  0.13690  0.87400  Biso   1.000  C
  H81      1.0000 0.50320  0.08990  0.68010  Biso   1.000  H
  C96      1.0000 0.38040  0.85370  0.38400  Biso   1.000  C
  H82      1.0000 0.35120  0.86970  0.09460  Biso   1.000  H
  H83      1.0000 0.41060  0.85110  0.68800  Biso   1.000  H
  H84      1.0000 0.46800  0.15260  0.36400  Biso   1.000  H
  C97      1.0000 0.50410  0.15570  0.07900  Biso   1.000  C
  H85      1.0000 0.53410  0.14730  0.77470  Biso   1.000  H
  C98      1.0000 0.38070  0.81140  0.34040  Biso   1.000  C
  C99      1.0000 0.52390  0.19280  0.12720  Biso   1.000  C
  O16      1.0000 0.40560  0.79100  0.43300  Biso   1.000  O
  O17      1.0000 0.51740  0.20790  0.34920  Biso   1.000  O
  O18      1.0000 0.54700  0.20830  0.98770  Biso   1.000  O
  H86      1.0000 0.09990  0.24410  0.27900  Biso   1.000  H
  H87      1.0000 0.12510  0.27380  0.37140  Biso   1.000  H
  O19      1.0000 0.30720  0.79660  0.76300  Biso   1.000  O
  O20      1.0000 0.26330  0.79620  0.04200  Biso   1.000  O
  O21      1.0000 0.14770  0.20000  0.70800  Biso   1.000  O
  C100     1.0000 0.27700  0.81120  0.86000  Biso   1.000  C
  C101     1.0000 0.25870  0.84650  0.76000  Biso   1.000  C
  C102     1.0000 0.22640  0.86400  0.87200  Biso   1.000  C
  C103     1.0000 0.27240  0.86030  0.55650  Biso   1.000  C
  C104     1.0000 0.20850  0.89580  0.77200  Biso   1.000  C
  H88      1.0000 0.21690  0.85440  0.01330  Biso   1.000  H
  C105     1.0000 0.25450  0.89380  0.46080  Biso   1.000  C
  H89      1.0000 0.29350  0.84810  0.47830  Biso   1.000  H
  C106     1.0000 0.22240  0.91130  0.57600  Biso   1.000  C
  H90      1.0000 0.18590  0.90670  0.84500  Biso   1.000  H
  H91      1.0000 0.26420  0.90390  0.32150  Biso   1.000  H
  C107     1.0000 0.20450  0.94690  0.46900  Biso   1.000  C
  C108     1.0000 0.16340  0.96000  0.56500  Biso   1.000  C
  H92      1.0000 0.20160  0.94260  0.30270  Biso   1.000  H
  H93      1.0000 0.22390  0.96750  0.48950  Biso   1.000  H
  C109     1.0000 0.16200  0.98510  0.75000  Biso   1.000  C
  C110     1.0000 0.12800  0.94650  0.45800  Biso   1.000  C
  C111     1.0000 0.20150  0.99890  0.85800  Biso   1.000  C
  C112     1.0000 0.12400  0.99910  0.83100  Biso   1.000  C
  C113     1.0000 0.09040  0.96190  0.53100  Biso   1.000  C
  C114     1.0000 0.12950  0.91730  0.26500  Biso   1.000  C
  H94      1.0000 0.22120  0.97860  0.85520  Biso   1.000  H
  H95      1.0000 0.19670  0.00660  0.01600  Biso   1.000  H
  H96      1.0000 0.21170  0.02020  0.77000  Biso   1.000  H
  C115     1.0000 0.08820  0.98700  0.71600  Biso   1.000  C
  C116     1.0000 0.12090  0.02530  0.03700  Biso   1.000  C
  C117     1.0000 0.05310  0.94980  0.38900  Biso   1.000  C
  H97      1.0000 0.15730  0.90990  0.23770  Biso   1.000  H
  H98      1.0000 0.11840  0.92810  0.12500  Biso   1.000  H
  H99      1.0000 0.11390  0.89530  0.30890  Biso   1.000  H
  C118     1.0000 0.04690  0.00320  0.78400  Biso   1.000  C
  C119     1.0000 0.11920  0.06790  0.97200  Biso   1.000  C
  H100     1.0000 0.14410  0.02100  0.13800  Biso   1.000  H
  H101     1.0000 0.09650  0.01880  0.12460  Biso   1.000  H
  H102     1.0000 0.03310  0.97020  0.39650  Biso   1.000  H
  H103     1.0000 0.06130  0.94710  0.22730  Biso   1.000  H
  C120     1.0000 0.03300  0.91320  0.46530  Biso   1.000  C
  H104     1.0000 0.04150  0.02580  0.69490  Biso   1.000  H
  H105     1.0000 0.04700  0.00940  0.94740  Biso   1.000  H
  H106     1.0000 0.02610  0.98450  0.75410  Biso   1.000  H
  C121     1.0000 0.13630  0.08240  0.77500  Biso   1.000  C
  C122     1.0000 0.10070  0.09330  0.13000  Biso   1.000  C
  C123     1.0000 0.04350  0.89440  0.67020  Biso   1.000  C
  C124     1.0000 0.00390  0.89760  0.31700  Biso   1.000  C
  H107     1.0000 0.14790  0.06580  0.66780  Biso   1.000  H
  C125     1.0000 0.13670  0.12120  0.73000  Biso   1.000  C
  C126     1.0000 0.10140  0.13210  0.08300  Biso   1.000  C
  H108     1.0000 0.08820  0.08410  0.26430  Biso   1.000  H
  H109     1.0000 0.06290  0.90490  0.76940  Biso   1.000  H
  C127     1.0000 0.02490  0.86000  0.72700  Biso   1.000  C
  C128     1.0000 0.98530  0.86310  0.37400  Biso   1.000  C
  H110     1.0000 0.99680  0.91010  0.18010  Biso   1.000  H
  C129     1.0000 0.11960  0.14630  0.88400  Biso   1.000  C
  H111     1.0000 0.14880  0.13030  0.59460  Biso   1.000  H
  H112     1.0000 0.08940  0.14890  0.18800  Biso   1.000  H
  H113     1.0000 0.03200  0.84740  0.86400  Biso   1.000  H
  C130     1.0000 0.99590  0.84430  0.57900  Biso   1.000  C
  H114     1.0000 0.96590  0.85270  0.27470  Biso   1.000  H
  C131     1.0000 0.11930  0.18860  0.84040  Biso   1.000  C
  C132     1.0000 0.97610  0.80720  0.62720  Biso   1.000  C
  O22      1.0000 0.09440  0.20900  0.93300  Biso   1.000  O
  O23      1.0000 0.98260  0.79210  0.84920  Biso   1.000  O
  O24      1.0000 0.95300  0.79170  0.48770  Biso   1.000  O
  H115     1.0000 0.40010  0.75590  0.77900  Biso   1.000  H
  H116     1.0000 0.37490  0.72620  0.87140  Biso   1.000  H
  O25      1.0000 0.19280  0.29660  0.26300  Biso   1.000  O
  O26      1.0000 0.23670  0.29620  0.54200  Biso   1.000  O
  O27      1.0000 0.35230  0.70000  0.20800  Biso   1.000  O
  C133     1.0000 0.22300  0.31120  0.36000  Biso   1.000  C
  C134     1.0000 0.24130  0.34650  0.26000  Biso   1.000  C
  C135     1.0000 0.27360  0.36400  0.37200  Biso   1.000  C
  C136     1.0000 0.22760  0.36030  0.05650  Biso   1.000  C
  C137     1.0000 0.29150  0.39580  0.27200  Biso   1.000  C
  H117     1.0000 0.28310  0.35440  0.51330  Biso   1.000  H
  C138     1.0000 0.24550  0.39380  0.96080  Biso   1.000  C
  H118     1.0000 0.20650  0.34810  0.97830  Biso   1.000  H
  C139     1.0000 0.27760  0.41130  0.07600  Biso   1.000  C
  H119     1.0000 0.31410  0.40670  0.34500  Biso   1.000  H
  H120     1.0000 0.23580  0.40390  0.82150  Biso   1.000  H
  C140     1.0000 0.29550  0.44690  0.96900  Biso   1.000  C
  C141     1.0000 0.33660  0.46000  0.06500  Biso   1.000  C
  H121     1.0000 0.29840  0.44260  0.80270  Biso   1.000  H
  H122     1.0000 0.27610  0.46750  0.98950  Biso   1.000  H
  C142     1.0000 0.33800  0.48510  0.25000  Biso   1.000  C
  C143     1.0000 0.37200  0.44650  0.95800  Biso   1.000  C
  C144     1.0000 0.29850  0.49890  0.35800  Biso   1.000  C
  C145     1.0000 0.37600  0.49910  0.33100  Biso   1.000  C
  C146     1.0000 0.40960  0.46190  0.03100  Biso   1.000  C
  C147     1.0000 0.37050  0.41730  0.76500  Biso   1.000  C
  H123     1.0000 0.27880  0.47860  0.35520  Biso   1.000  H
  H124     1.0000 0.30330  0.50660  0.51600  Biso   1.000  H
  H125     1.0000 0.28830  0.52020  0.27000  Biso   1.000  H
  C148     1.0000 0.41180  0.48700  0.21600  Biso   1.000  C
  C149     1.0000 0.37910  0.52530  0.53700  Biso   1.000  C
  C150     1.0000 0.44690  0.44980  0.88900  Biso   1.000  C
  H126     1.0000 0.34270  0.40990  0.73770  Biso   1.000  H
  H127     1.0000 0.38160  0.42810  0.62500  Biso   1.000  H
  H128     1.0000 0.38610  0.39530  0.80890  Biso   1.000  H
  C151     1.0000 0.45310  0.50320  0.28400  Biso   1.000  C
  C152     1.0000 0.38080  0.56790  0.47200  Biso   1.000  C
  H129     1.0000 0.35590  0.52100  0.63800  Biso   1.000  H
  H130     1.0000 0.40350  0.51880  0.62460  Biso   1.000  H
  H131     1.0000 0.46690  0.47020  0.89650  Biso   1.000  H
  H132     1.0000 0.43870  0.44710  0.72730  Biso   1.000  H
  C153     1.0000 0.46700  0.41320  0.96530  Biso   1.000  C
  H133     1.0000 0.45850  0.52580  0.19490  Biso   1.000  H
  H134     1.0000 0.45300  0.50940  0.44740  Biso   1.000  H
  H135     1.0000 0.47390  0.48450  0.25410  Biso   1.000  H
  C154     1.0000 0.36370  0.58240  0.27500  Biso   1.000  C
  C155     1.0000 0.39930  0.59330  0.63000  Biso   1.000  C
  C156     1.0000 0.45650  0.39440  0.17020  Biso   1.000  C
  C157     1.0000 0.49610  0.39760  0.81700  Biso   1.000  C
  H136     1.0000 0.35210  0.56580  0.16780  Biso   1.000  H
  C158     1.0000 0.36330  0.62120  0.23000  Biso   1.000  C
  C159     1.0000 0.39860  0.63210  0.58300  Biso   1.000  C
  H137     1.0000 0.41180  0.58410  0.76430  Biso   1.000  H
  H138     1.0000 0.43710  0.40490  0.26940  Biso   1.000  H
  C160     1.0000 0.47510  0.36000  0.22700  Biso   1.000  C
  C161     1.0000 0.51470  0.36310  0.87400  Biso   1.000  C
  H139     1.0000 0.50320  0.41010  0.68010  Biso   1.000  H
  C162     1.0000 0.38040  0.64630  0.38400  Biso   1.000  C
  H140     1.0000 0.35120  0.63030  0.09460  Biso   1.000  H
  H141     1.0000 0.41060  0.64890  0.68800  Biso   1.000  H
  H142     1.0000 0.46800  0.34740  0.36400  Biso   1.000  H
  C163     1.0000 0.50410  0.34430  0.07900  Biso   1.000  C
  H143     1.0000 0.53410  0.35270  0.77470  Biso   1.000  H
  C164     1.0000 0.38070  0.68860  0.34040  Biso   1.000  C
  C165     1.0000 0.52390  0.30720  0.12720  Biso   1.000  C
  O28      1.0000 0.40560  0.70900  0.43300  Biso   1.000  O
  O29      1.0000 0.51740  0.29210  0.34920  Biso   1.000  O
  O30      1.0000 0.54700  0.29170  0.98770  Biso   1.000  O
  H144     1.0000 0.09990  0.25590  0.27900  Biso   1.000  H
  H145     1.0000 0.12510  0.22620  0.37140  Biso   1.000  H
  O31      1.0000 0.30720  0.70340  0.76300  Biso   1.000  O
  O32      1.0000 0.26330  0.70380  0.04200  Biso   1.000  O
  O33      1.0000 0.14770  0.30000  0.70800  Biso   1.000  O
  C166     1.0000 0.27700  0.68880  0.86000  Biso   1.000  C
  C167     1.0000 0.25870  0.65350  0.76000  Biso   1.000  C
  C168     1.0000 0.22640  0.63600  0.87200  Biso   1.000  C
  C169     1.0000 0.27240  0.63970  0.55650  Biso   1.000  C
  C170     1.0000 0.20850  0.60420  0.77200  Biso   1.000  C
  H146     1.0000 0.21690  0.64560  0.01330  Biso   1.000  H
  C171     1.0000 0.25450  0.60620  0.46080  Biso   1.000  C
  H147     1.0000 0.29350  0.65190  0.47830  Biso   1.000  H
  C172     1.0000 0.22240  0.58870  0.57600  Biso   1.000  C
  H148     1.0000 0.18590  0.59330  0.84500  Biso   1.000  H
  H149     1.0000 0.26420  0.59610  0.32150  Biso   1.000  H
  C173     1.0000 0.20450  0.55310  0.46900  Biso   1.000  C
  C174     1.0000 0.16340  0.54000  0.56500  Biso   1.000  C
  H150     1.0000 0.20160  0.55740  0.30270  Biso   1.000  H
  H151     1.0000 0.22390  0.53250  0.48950  Biso   1.000  H
  C175     1.0000 0.16200  0.51490  0.75000  Biso   1.000  C
  C176     1.0000 0.12800  0.55350  0.45800  Biso   1.000  C
  C177     1.0000 0.20150  0.50110  0.85800  Biso   1.000  C
  C178     1.0000 0.12400  0.50090  0.83100  Biso   1.000  C
  C179     1.0000 0.09040  0.53810  0.53100  Biso   1.000  C
  C180     1.0000 0.12950  0.58270  0.26500  Biso   1.000  C
  H152     1.0000 0.22120  0.52140  0.85520  Biso   1.000  H
  H153     1.0000 0.19670  0.49340  0.01600  Biso   1.000  H
  H154     1.0000 0.21170  0.47980  0.77000  Biso   1.000  H
  C181     1.0000 0.08820  0.51300  0.71600  Biso   1.000  C
  C182     1.0000 0.12090  0.47470  0.03700  Biso   1.000  C
  C183     1.0000 0.05310  0.55020  0.38900  Biso   1.000  C
  H155     1.0000 0.15730  0.59010  0.23770  Biso   1.000  H
  H156     1.0000 0.11840  0.57190  0.12500  Biso   1.000  H
  H157     1.0000 0.11390  0.60470  0.30890  Biso   1.000  H
  C184     1.0000 0.04690  0.49680  0.78400  Biso   1.000  C
  C185     1.0000 0.11920  0.43210  0.97200  Biso   1.000  C
  H158     1.0000 0.14410  0.47900  0.13800  Biso   1.000  H
  H159     1.0000 0.09650  0.48120  0.12460  Biso   1.000  H
  H160     1.0000 0.03310  0.52980  0.39650  Biso   1.000  H
  H161     1.0000 0.06130  0.55290  0.22730  Biso   1.000  H
  C186     1.0000 0.03300  0.58680  0.46530  Biso   1.000  C
  H162     1.0000 0.04150  0.47420  0.69490  Biso   1.000  H
  H163     1.0000 0.04700  0.49060  0.94740  Biso   1.000  H
  H164     1.0000 0.02610  0.51550  0.75410  Biso   1.000  H
  C187     1.0000 0.13630  0.41760  0.77500  Biso   1.000  C
  C188     1.0000 0.10070  0.40670  0.13000  Biso   1.000  C
  C189     1.0000 0.04350  0.60560  0.67020  Biso   1.000  C
  C190     1.0000 0.00390  0.60240  0.31700  Biso   1.000  C
  H165     1.0000 0.14790  0.43420  0.66780  Biso   1.000  H
  C191     1.0000 0.13670  0.37880  0.73000  Biso   1.000  C
  C192     1.0000 0.10140  0.36790  0.08300  Biso   1.000  C
  H166     1.0000 0.08820  0.41590  0.26430  Biso   1.000  H
  H167     1.0000 0.06290  0.59510  0.76940  Biso   1.000  H
  C193     1.0000 0.02490  0.64000  0.72700  Biso   1.000  C
  C194     1.0000 0.98530  0.63690  0.37400  Biso   1.000  C
  H168     1.0000 0.99680  0.58990  0.18010  Biso   1.000  H
  C195     1.0000 0.11960  0.35370  0.88400  Biso   1.000  C
  H169     1.0000 0.14880  0.36970  0.59460  Biso   1.000  H
  H170     1.0000 0.08940  0.35110  0.18800  Biso   1.000  H
  H171     1.0000 0.03200  0.65260  0.86400  Biso   1.000  H
  C196     1.0000 0.99590  0.65570  0.57900  Biso   1.000  C
  H172     1.0000 0.96590  0.64730  0.27470  Biso   1.000  H
  C197     1.0000 0.11930  0.31140  0.84040  Biso   1.000  C
  C198     1.0000 0.97610  0.69280  0.62720  Biso   1.000  C
  O34      1.0000 0.09440  0.29100  0.93300  Biso   1.000  O
  O35      1.0000 0.98260  0.70790  0.84920  Biso   1.000  O
  O36      1.0000 0.95300  0.70830  0.48770  Biso   1.000  O
  H173     1.0000 0.40010  0.74410  0.77900  Biso   1.000  H
  H174     1.0000 0.37490  0.77380  0.87140  Biso   1.000  H
  O37      1.0000 0.80720  0.79660  0.73700  Biso   1.000  O
  O38      1.0000 0.76330  0.79620  0.45800  Biso   1.000  O
  O39      1.0000 0.64770  0.20000  0.79200  Biso   1.000  O
  C199     1.0000 0.77700  0.81120  0.64000  Biso   1.000  C
  C200     1.0000 0.75870  0.84650  0.74000  Biso   1.000  C
  C201     1.0000 0.72640  0.86400  0.62800  Biso   1.000  C
  C202     1.0000 0.77240  0.86030  0.94350  Biso   1.000  C
  C203     1.0000 0.70850  0.89580  0.72800  Biso   1.000  C
  H175     1.0000 0.71690  0.85440  0.48670  Biso   1.000  H
  C204     1.0000 0.75450  0.89380  0.03920  Biso   1.000  C
  H176     1.0000 0.79350  0.84810  0.02170  Biso   1.000  H
  C205     1.0000 0.72240  0.91130  0.92400  Biso   1.000  C
  H177     1.0000 0.68590  0.90670  0.65500  Biso   1.000  H
  H178     1.0000 0.76420  0.90390  0.17850  Biso   1.000  H
  C206     1.0000 0.70450  0.94690  0.03100  Biso   1.000  C
  C207     1.0000 0.66340  0.96000  0.93500  Biso   1.000  C
  H179     1.0000 0.70160  0.94260  0.19730  Biso   1.000  H
  H180     1.0000 0.72390  0.96750  0.01050  Biso   1.000  H
  C208     1.0000 0.66200  0.98510  0.75000  Biso   1.000  C
  C209     1.0000 0.62800  0.94650  0.04200  Biso   1.000  C
  C210     1.0000 0.70150  0.99890  0.64200  Biso   1.000  C
  C211     1.0000 0.62400  0.99910  0.66900  Biso   1.000  C
  C212     1.0000 0.59040  0.96190  0.96900  Biso   1.000  C
  C213     1.0000 0.62950  0.91730  0.23500  Biso   1.000  C
  H181     1.0000 0.72120  0.97860  0.64480  Biso   1.000  H
  H182     1.0000 0.69670  0.00660  0.48400  Biso   1.000  H
  H183     1.0000 0.71170  0.02020  0.73000  Biso   1.000  H
  C214     1.0000 0.58820  0.98700  0.78400  Biso   1.000  C
  C215     1.0000 0.62090  0.02530  0.46300  Biso   1.000  C
  C216     1.0000 0.55310  0.94980  0.11100  Biso   1.000  C
  H184     1.0000 0.65730  0.90990  0.26230  Biso   1.000  H
  H185     1.0000 0.61840  0.92810  0.37500  Biso   1.000  H
  H186     1.0000 0.61390  0.89530  0.19110  Biso   1.000  H
  C217     1.0000 0.54690  0.00320  0.71600  Biso   1.000  C
  C218     1.0000 0.61920  0.06790  0.52800  Biso   1.000  C
  H187     1.0000 0.64410  0.02100  0.36200  Biso   1.000  H
  H188     1.0000 0.59650  0.01880  0.37540  Biso   1.000  H
  H189     1.0000 0.53310  0.97020  0.10350  Biso   1.000  H
  H190     1.0000 0.56130  0.94710  0.27270  Biso   1.000  H
  C219     1.0000 0.53300  0.91320  0.03470  Biso   1.000  C
  H191     1.0000 0.54150  0.02580  0.80510  Biso   1.000  H
  H192     1.0000 0.54700  0.00940  0.55260  Biso   1.000  H
  H193     1.0000 0.52610  0.98450  0.74590  Biso   1.000  H
  C220     1.0000 0.63630  0.08240  0.72500  Biso   1.000  C
  C221     1.0000 0.60070  0.09330  0.37000  Biso   1.000  C
  C222     1.0000 0.54350  0.89440  0.82980  Biso   1.000  C
  C223     1.0000 0.50390  0.89760  0.18300  Biso   1.000  C
  H194     1.0000 0.64790  0.06580  0.83220  Biso   1.000  H
  C224     1.0000 0.63670  0.12120  0.77000  Biso   1.000  C
  C225     1.0000 0.60140  0.13210  0.41700  Biso   1.000  C
  H195     1.0000 0.58820  0.08410  0.23570  Biso   1.000  H
  H196     1.0000 0.56290  0.90490  0.73060  Biso   1.000  H
  C226     1.0000 0.52490  0.86000  0.77300  Biso   1.000  C
  C227     1.0000 0.48530  0.86310  0.12600  Biso   1.000  C
  H197     1.0000 0.49680  0.91010  0.31990  Biso   1.000  H
  C228     1.0000 0.61960  0.14630  0.61600  Biso   1.000  C
  H198     1.0000 0.64880  0.13030  0.90540  Biso   1.000  H
  H199     1.0000 0.58940  0.14890  0.31200  Biso   1.000  H
  H200     1.0000 0.53200  0.84740  0.63600  Biso   1.000  H
  C229     1.0000 0.49590  0.84430  0.92100  Biso   1.000  C
  H201     1.0000 0.46590  0.85270  0.22530  Biso   1.000  H
  C230     1.0000 0.61930  0.18860  0.65960  Biso   1.000  C
  C231     1.0000 0.47610  0.80720  0.87280  Biso   1.000  C
  O40      1.0000 0.59440  0.20900  0.56700  Biso   1.000  O
  O41      1.0000 0.48260  0.79210  0.65080  Biso   1.000  O
  O42      1.0000 0.45300  0.79170  0.01230  Biso   1.000  O
  H202     1.0000 0.90010  0.75590  0.72100  Biso   1.000  H
  H203     1.0000 0.87490  0.72620  0.62860  Biso   1.000  H
  O43      1.0000 0.69280  0.20340  0.23700  Biso   1.000  O
  O44      1.0000 0.73670  0.20380  0.95800  Biso   1.000  O
  O45      1.0000 0.85230  0.80000  0.29200  Biso   1.000  O
  C232     1.0000 0.72300  0.18880  0.14000  Biso   1.000  C
  C233     1.0000 0.74130  0.15350  0.24000  Biso   1.000  C
  C234     1.0000 0.77360  0.13600  0.12800  Biso   1.000  C
  C235     1.0000 0.72760  0.13970  0.44350  Biso   1.000  C
  C236     1.0000 0.79150  0.10420  0.22800  Biso   1.000  C
  H204     1.0000 0.78310  0.14560  0.98670  Biso   1.000  H
  C237     1.0000 0.74550  0.10620  0.53920  Biso   1.000  C
  H205     1.0000 0.70650  0.15190  0.52170  Biso   1.000  H
  C238     1.0000 0.77760  0.08870  0.42400  Biso   1.000  C
  H206     1.0000 0.81410  0.09330  0.15500  Biso   1.000  H
  H207     1.0000 0.73580  0.09610  0.67850  Biso   1.000  H
  C239     1.0000 0.79550  0.05310  0.53100  Biso   1.000  C
  C240     1.0000 0.83660  0.04000  0.43500  Biso   1.000  C
  H208     1.0000 0.79840  0.05740  0.69730  Biso   1.000  H
  H209     1.0000 0.77610  0.03250  0.51050  Biso   1.000  H
  C241     1.0000 0.83800  0.01490  0.25000  Biso   1.000  C
  C242     1.0000 0.87200  0.05350  0.54200  Biso   1.000  C
  C243     1.0000 0.79850  0.00110  0.14200  Biso   1.000  C
  C244     1.0000 0.87600  0.00090  0.16900  Biso   1.000  C
  C245     1.0000 0.90960  0.03810  0.46900  Biso   1.000  C
  C246     1.0000 0.87050  0.08270  0.73500  Biso   1.000  C
  H210     1.0000 0.77880  0.02140  0.14480  Biso   1.000  H
  H211     1.0000 0.80330  0.99340  0.98400  Biso   1.000  H
  H212     1.0000 0.78830  0.97980  0.23000  Biso   1.000  H
  C247     1.0000 0.91180  0.01300  0.28400  Biso   1.000  C
  C248     1.0000 0.87910  0.97470  0.96300  Biso   1.000  C
  C249     1.0000 0.94690  0.05020  0.61100  Biso   1.000  C
  H213     1.0000 0.84270  0.09010  0.76230  Biso   1.000  H
  H214     1.0000 0.88160  0.07190  0.87500  Biso   1.000  H
  H215     1.0000 0.88610  0.10470  0.69110  Biso   1.000  H
  C250     1.0000 0.95310  0.99680  0.21600  Biso   1.000  C
  C251     1.0000 0.88080  0.93210  0.02800  Biso   1.000  C
  H216     1.0000 0.85590  0.97900  0.86200  Biso   1.000  H
  H217     1.0000 0.90350  0.98120  0.87540  Biso   1.000  H
  H218     1.0000 0.96690  0.02980  0.60350  Biso   1.000  H
  H219     1.0000 0.93870  0.05290  0.77270  Biso   1.000  H
  C252     1.0000 0.96700  0.08680  0.53470  Biso   1.000  C
  H220     1.0000 0.95850  0.97420  0.30510  Biso   1.000  H
  H221     1.0000 0.95300  0.99060  0.05260  Biso   1.000  H
  H222     1.0000 0.97390  0.01550  0.24590  Biso   1.000  H
  C253     1.0000 0.86370  0.91760  0.22500  Biso   1.000  C
  C254     1.0000 0.89930  0.90670  0.87000  Biso   1.000  C
  C255     1.0000 0.95650  0.10560  0.32980  Biso   1.000  C
  C256     1.0000 0.99610  0.10240  0.68300  Biso   1.000  C
  H223     1.0000 0.85210  0.93420  0.33220  Biso   1.000  H
  C257     1.0000 0.86330  0.87880  0.27000  Biso   1.000  C
  C258     1.0000 0.89860  0.86790  0.91700  Biso   1.000  C
  H224     1.0000 0.91180  0.91590  0.73570  Biso   1.000  H
  H225     1.0000 0.93710  0.09510  0.23060  Biso   1.000  H
  C259     1.0000 0.97510  0.14000  0.27300  Biso   1.000  C
  C260     1.0000 0.01470  0.13690  0.62600  Biso   1.000  C
  H226     1.0000 0.00320  0.08990  0.81990  Biso   1.000  H
  C261     1.0000 0.88040  0.85370  0.11600  Biso   1.000  C
  H227     1.0000 0.85120  0.86970  0.40540  Biso   1.000  H
  H228     1.0000 0.91060  0.85110  0.81200  Biso   1.000  H
  H229     1.0000 0.96800  0.15260  0.13600  Biso   1.000  H
  C262     1.0000 0.00410  0.15570  0.42100  Biso   1.000  C
  H230     1.0000 0.03410  0.14730  0.72530  Biso   1.000  H
  C263     1.0000 0.88070  0.81140  0.15960  Biso   1.000  C
  C264     1.0000 0.02390  0.19280  0.37280  Biso   1.000  C
  O46      1.0000 0.90560  0.79100  0.06700  Biso   1.000  O
  O47      1.0000 0.01740  0.20790  0.15080  Biso   1.000  O
  O48      1.0000 0.04700  0.20830  0.51230  Biso   1.000  O
  H231     1.0000 0.59990  0.24410  0.22100  Biso   1.000  H
  H232     1.0000 0.62510  0.27380  0.12860  Biso   1.000  H
  Eu1      1.0000 0.81795  0.75000  0.44830  Biso   1.000  Eu
  O49      1.0000 0.87840  0.75000  0.64900  Biso   1.000  O
  Eu2      1.0000 0.68205  0.25000  0.94830  Biso   1.000  Eu
  O50      1.0000 0.62160  0.25000  0.14900  Biso   1.000  O
  Eu3      1.0000 0.18205  0.25000  0.55170  Biso   1.000  Eu
  O51      1.0000 0.12160  0.25000  0.35100  Biso   1.000  O
  Eu4      1.0000 0.31795  0.75000  0.05170  Biso   1.000  Eu
  O52      1.0000 0.37840  0.75000  0.85100  Biso   1.000  O
  Eu5      1.0000 0.54366  0.25000  0.62740  Biso   1.000  Eu
  Eu6      1.0000 0.95634  0.75000  0.12740  Biso   1.000  Eu
  Eu7      1.0000 0.45634  0.75000  0.37260  Biso   1.000  Eu
  Eu8      1.0000 0.04366  0.25000  0.87260  Biso   1.000  Eu
