data_image0
_cell_length_a       19.18
_cell_length_b       19.18
_cell_length_c       37.368
_cell_angle_alpha    90
_cell_angle_beta     90
_cell_angle_gamma    120

_symmetry_space_group_name_H-M    "P 1"
_symmetry_int_tables_number       1

loop_
  _symmetry_equiv_pos_as_xyz
  'x, y, z'

loop_
  _atom_site_label
  _atom_site_occupancy
  _atom_site_fract_x
  _atom_site_fract_y
  _atom_site_fract_z
  _atom_site_thermal_displace_type
  _atom_site_B_iso_or_equiv
  _atom_site_type_symbol
  C1       1.0000 0.97450  0.20980  0.19127  Biso   1.000  C
  O1       1.0000 0.96356  0.18327  0.15965  Biso   1.000  O
  C2       1.0000 0.05150  0.22910  0.20843  Biso   1.000  C
  O2       1.0000 0.92536  0.22107  0.20927  Biso   1.000  O
  C3       1.0000 0.06730  0.25970  0.24368  Biso   1.000  C
  H1       1.0000 0.03020  0.26970  0.25520  Biso   1.000  H
  C4       1.0000 0.19490  0.28680  0.32130  Biso   1.000  C
  C5       1.0000 0.22460  0.35030  0.31010  Biso   1.000  C
  C6       1.0000 0.64117  0.54313  0.52460  Biso   1.000  C
  O3       1.0000 0.63023  0.51660  0.49298  Biso   1.000  O
  C7       1.0000 0.71817  0.56243  0.54176  Biso   1.000  C
  O4       1.0000 0.59203  0.55440  0.54260  Biso   1.000  O
  C8       1.0000 0.73397  0.59303  0.57701  Biso   1.000  C
  H2       1.0000 0.69687  0.60303  0.58853  Biso   1.000  H
  C9       1.0000 0.86157  0.62013  0.65463  Biso   1.000  C
  C10      1.0000 0.89127  0.68363  0.64343  Biso   1.000  C
  C11      1.0000 0.30783  0.87647  0.85794  Biso   1.000  C
  O5       1.0000 0.29689  0.84994  0.82632  Biso   1.000  O
  C12      1.0000 0.38483  0.89577  0.87510  Biso   1.000  C
  O6       1.0000 0.25869  0.88774  0.87594  Biso   1.000  O
  C13      1.0000 0.40063  0.92637  0.91035  Biso   1.000  C
  H3       1.0000 0.36353  0.93637  0.92187  Biso   1.000  H
  C14      1.0000 0.52823  0.95347  0.98797  Biso   1.000  C
  C15      1.0000 0.55793  0.01697  0.97677  Biso   1.000  C
  C16      1.0000 0.79020  0.76470  0.19127  Biso   1.000  C
  O7       1.0000 0.81673  0.78029  0.15965  Biso   1.000  O
  C17      1.0000 0.77090  0.82240  0.20843  Biso   1.000  C
  O8       1.0000 0.77893  0.70429  0.20927  Biso   1.000  O
  C18      1.0000 0.74030  0.80760  0.24368  Biso   1.000  C
  H4       1.0000 0.73030  0.76050  0.25520  Biso   1.000  H
  C19      1.0000 0.71320  0.90810  0.32130  Biso   1.000  C
  C20      1.0000 0.64970  0.87430  0.31010  Biso   1.000  C
  C21      1.0000 0.45687  0.09803  0.52460  Biso   1.000  C
  O9       1.0000 0.48340  0.11362  0.49298  Biso   1.000  O
  C22      1.0000 0.43757  0.15573  0.54176  Biso   1.000  C
  O10      1.0000 0.44560  0.03762  0.54260  Biso   1.000  O
  C23      1.0000 0.40697  0.14093  0.57701  Biso   1.000  C
  H5       1.0000 0.39697  0.09383  0.58853  Biso   1.000  H
  C24      1.0000 0.37987  0.24143  0.65463  Biso   1.000  C
  C25      1.0000 0.31637  0.20763  0.64343  Biso   1.000  C
  C26      1.0000 0.12353  0.43137  0.85794  Biso   1.000  C
  O11      1.0000 0.15006  0.44696  0.82632  Biso   1.000  O
  C27      1.0000 0.10423  0.48907  0.87510  Biso   1.000  C
  O12      1.0000 0.11226  0.37096  0.87594  Biso   1.000  O
  C28      1.0000 0.07363  0.47427  0.91035  Biso   1.000  C
  H6       1.0000 0.06363  0.42717  0.92187  Biso   1.000  H
  C29      1.0000 0.04653  0.57477  0.98797  Biso   1.000  C
  C30      1.0000 0.98303  0.54097  0.97677  Biso   1.000  C
  C31      1.0000 0.23530  0.02550  0.19127  Biso   1.000  C
  O13      1.0000 0.21971  0.03644  0.15965  Biso   1.000  O
  C32      1.0000 0.17760  0.94850  0.20843  Biso   1.000  C
  O14      1.0000 0.29571  0.07464  0.20927  Biso   1.000  O
  C33      1.0000 0.19240  0.93270  0.24368  Biso   1.000  C
  H7       1.0000 0.23950  0.96980  0.25520  Biso   1.000  H
  C34      1.0000 0.09190  0.80510  0.32130  Biso   1.000  C
  C35      1.0000 0.12570  0.77540  0.31010  Biso   1.000  C
  C36      1.0000 0.90197  0.35883  0.52460  Biso   1.000  C
  O15      1.0000 0.88638  0.36977  0.49298  Biso   1.000  O
  C37      1.0000 0.84427  0.28183  0.54176  Biso   1.000  C
  O16      1.0000 0.96238  0.40797  0.54260  Biso   1.000  O
  C38      1.0000 0.85907  0.26603  0.57701  Biso   1.000  C
  H8       1.0000 0.90617  0.30313  0.58853  Biso   1.000  H
  C39      1.0000 0.75857  0.13843  0.65463  Biso   1.000  C
  C40      1.0000 0.79237  0.10873  0.64343  Biso   1.000  C
  C41      1.0000 0.56863  0.69217  0.85794  Biso   1.000  C
  O17      1.0000 0.55304  0.70311  0.82632  Biso   1.000  O
  C42      1.0000 0.51093  0.61517  0.87510  Biso   1.000  C
  O18      1.0000 0.62904  0.74131  0.87594  Biso   1.000  O
  C43      1.0000 0.52573  0.59937  0.91035  Biso   1.000  C
  H9       1.0000 0.57283  0.63647  0.92187  Biso   1.000  H
  C44      1.0000 0.42523  0.47177  0.98797  Biso   1.000  C
  C45      1.0000 0.45903  0.44207  0.97677  Biso   1.000  C
  C46      1.0000 0.20980  0.97450  0.80873  Biso   1.000  C
  O19      1.0000 0.18327  0.96356  0.84035  Biso   1.000  O
  C47      1.0000 0.22910  0.05150  0.79157  Biso   1.000  C
  O20      1.0000 0.22107  0.92536  0.79073  Biso   1.000  O
  C48      1.0000 0.25970  0.06730  0.75632  Biso   1.000  C
  H10      1.0000 0.26970  0.03020  0.74480  Biso   1.000  H
  C49      1.0000 0.28680  0.19490  0.67870  Biso   1.000  C
  C50      1.0000 0.35030  0.22460  0.68990  Biso   1.000  C
  C51      1.0000 0.87647  0.30783  0.14206  Biso   1.000  C
  O21      1.0000 0.84994  0.29689  0.17368  Biso   1.000  O
  C52      1.0000 0.89577  0.38483  0.12490  Biso   1.000  C
  O22      1.0000 0.88774  0.25869  0.12406  Biso   1.000  O
  C53      1.0000 0.92637  0.40063  0.08965  Biso   1.000  C
  H11      1.0000 0.93637  0.36353  0.07813  Biso   1.000  H
  C54      1.0000 0.95347  0.52823  0.01203  Biso   1.000  C
  C55      1.0000 0.01697  0.55793  0.02323  Biso   1.000  C
  C56      1.0000 0.54313  0.64117  0.47540  Biso   1.000  C
  O23      1.0000 0.51660  0.63023  0.50702  Biso   1.000  O
  C57      1.0000 0.56243  0.71817  0.45824  Biso   1.000  C
  O24      1.0000 0.55440  0.59203  0.45740  Biso   1.000  O
  C58      1.0000 0.59303  0.73397  0.42299  Biso   1.000  C
  H12      1.0000 0.60303  0.69687  0.41147  Biso   1.000  H
  C59      1.0000 0.62013  0.86157  0.34537  Biso   1.000  C
  C60      1.0000 0.68363  0.89127  0.35657  Biso   1.000  C
  C61      1.0000 0.76470  0.79020  0.80873  Biso   1.000  C
  O25      1.0000 0.78029  0.81673  0.84035  Biso   1.000  O
  C62      1.0000 0.82240  0.77090  0.79157  Biso   1.000  C
  O26      1.0000 0.70429  0.77893  0.79073  Biso   1.000  O
  C63      1.0000 0.80760  0.74030  0.75632  Biso   1.000  C
  H13      1.0000 0.76050  0.73030  0.74480  Biso   1.000  H
  C64      1.0000 0.90810  0.71320  0.67870  Biso   1.000  C
  C65      1.0000 0.87430  0.64970  0.68990  Biso   1.000  C
  C66      1.0000 0.43137  0.12353  0.14206  Biso   1.000  C
  O27      1.0000 0.44696  0.15006  0.17368  Biso   1.000  O
  C67      1.0000 0.48907  0.10423  0.12490  Biso   1.000  C
  O28      1.0000 0.37096  0.11226  0.12406  Biso   1.000  O
  C68      1.0000 0.47427  0.07363  0.08965  Biso   1.000  C
  H14      1.0000 0.42717  0.06363  0.07813  Biso   1.000  H
  C69      1.0000 0.57477  0.04653  0.01203  Biso   1.000  C
  C70      1.0000 0.54097  0.98303  0.02323  Biso   1.000  C
  C71      1.0000 0.09803  0.45687  0.47540  Biso   1.000  C
  O29      1.0000 0.11362  0.48340  0.50702  Biso   1.000  O
  C72      1.0000 0.15573  0.43757  0.45824  Biso   1.000  C
  O30      1.0000 0.03762  0.44560  0.45740  Biso   1.000  O
  C73      1.0000 0.14093  0.40697  0.42299  Biso   1.000  C
  H15      1.0000 0.09383  0.39697  0.41147  Biso   1.000  H
  C74      1.0000 0.24143  0.37987  0.34537  Biso   1.000  C
  C75      1.0000 0.20763  0.31637  0.35657  Biso   1.000  C
  C76      1.0000 0.02550  0.23530  0.80873  Biso   1.000  C
  O31      1.0000 0.03644  0.21971  0.84035  Biso   1.000  O
  C77      1.0000 0.94850  0.17760  0.79157  Biso   1.000  C
  O32      1.0000 0.07464  0.29571  0.79073  Biso   1.000  O
  C78      1.0000 0.93270  0.19240  0.75632  Biso   1.000  C
  H16      1.0000 0.96980  0.23950  0.74480  Biso   1.000  H
  C79      1.0000 0.80510  0.09190  0.67870  Biso   1.000  C
  C80      1.0000 0.77540  0.12570  0.68990  Biso   1.000  C
  C81      1.0000 0.69217  0.56863  0.14206  Biso   1.000  C
  O33      1.0000 0.70311  0.55304  0.17368  Biso   1.000  O
  C82      1.0000 0.61517  0.51093  0.12490  Biso   1.000  C
  O34      1.0000 0.74131  0.62904  0.12406  Biso   1.000  O
  C83      1.0000 0.59937  0.52573  0.08965  Biso   1.000  C
  H17      1.0000 0.63647  0.57283  0.07813  Biso   1.000  H
  C84      1.0000 0.47177  0.42523  0.01203  Biso   1.000  C
  C85      1.0000 0.44207  0.45903  0.02323  Biso   1.000  C
  C86      1.0000 0.35883  0.90197  0.47540  Biso   1.000  C
  O35      1.0000 0.36977  0.88638  0.50702  Biso   1.000  O
  C87      1.0000 0.28183  0.84427  0.45824  Biso   1.000  C
  O36      1.0000 0.40797  0.96238  0.45740  Biso   1.000  O
  C88      1.0000 0.26603  0.85907  0.42299  Biso   1.000  C
  H18      1.0000 0.30313  0.90617  0.41147  Biso   1.000  H
  C89      1.0000 0.13843  0.75857  0.34537  Biso   1.000  C
  C90      1.0000 0.10873  0.79237  0.35657  Biso   1.000  C
  C91      1.0000 0.02550  0.79020  0.80873  Biso   1.000  C
  O37      1.0000 0.03644  0.81673  0.84035  Biso   1.000  O
  C92      1.0000 0.94850  0.77090  0.79157  Biso   1.000  C
  O38      1.0000 0.07464  0.77893  0.79073  Biso   1.000  O
  C93      1.0000 0.93270  0.74030  0.75632  Biso   1.000  C
  H19      1.0000 0.96980  0.73030  0.74480  Biso   1.000  H
  C94      1.0000 0.80510  0.71320  0.67870  Biso   1.000  C
  C95      1.0000 0.77540  0.64970  0.68990  Biso   1.000  C
  C96      1.0000 0.69217  0.12353  0.14206  Biso   1.000  C
  O39      1.0000 0.70311  0.15006  0.17368  Biso   1.000  O
  C97      1.0000 0.61517  0.10423  0.12490  Biso   1.000  C
  O40      1.0000 0.74131  0.11226  0.12406  Biso   1.000  O
  C98      1.0000 0.59937  0.07363  0.08965  Biso   1.000  C
  H20      1.0000 0.63647  0.06363  0.07813  Biso   1.000  H
  C99      1.0000 0.47177  0.04653  0.01203  Biso   1.000  C
  C100     1.0000 0.44207  0.98303  0.02323  Biso   1.000  C
  C101     1.0000 0.35883  0.45687  0.47540  Biso   1.000  C
  O41      1.0000 0.36977  0.48340  0.50702  Biso   1.000  O
  C102     1.0000 0.28183  0.43757  0.45824  Biso   1.000  C
  O42      1.0000 0.40797  0.44560  0.45740  Biso   1.000  O
  C103     1.0000 0.26603  0.40697  0.42299  Biso   1.000  C
  H21      1.0000 0.30313  0.39697  0.41147  Biso   1.000  H
  C104     1.0000 0.13843  0.37987  0.34537  Biso   1.000  C
  C105     1.0000 0.10873  0.31637  0.35657  Biso   1.000  C
  C106     1.0000 0.20980  0.23530  0.80873  Biso   1.000  C
  O43      1.0000 0.18327  0.21971  0.84035  Biso   1.000  O
  C107     1.0000 0.22910  0.17760  0.79157  Biso   1.000  C
  O44      1.0000 0.22107  0.29571  0.79073  Biso   1.000  O
  C108     1.0000 0.25970  0.19240  0.75632  Biso   1.000  C
  H22      1.0000 0.26970  0.23950  0.74480  Biso   1.000  H
  C109     1.0000 0.28680  0.09190  0.67870  Biso   1.000  C
  C110     1.0000 0.35030  0.12570  0.68990  Biso   1.000  C
  C111     1.0000 0.87647  0.56863  0.14206  Biso   1.000  C
  O45      1.0000 0.84994  0.55304  0.17368  Biso   1.000  O
  C112     1.0000 0.89577  0.51093  0.12490  Biso   1.000  C
  O46      1.0000 0.88774  0.62904  0.12406  Biso   1.000  O
  C113     1.0000 0.92637  0.52573  0.08965  Biso   1.000  C
  H23      1.0000 0.93637  0.57283  0.07813  Biso   1.000  H
  C114     1.0000 0.95347  0.42523  0.01203  Biso   1.000  C
  C115     1.0000 0.01697  0.45903  0.02323  Biso   1.000  C
  C116     1.0000 0.54313  0.90197  0.47540  Biso   1.000  C
  O47      1.0000 0.51660  0.88638  0.50702  Biso   1.000  O
  C117     1.0000 0.56243  0.84427  0.45824  Biso   1.000  C
  O48      1.0000 0.55440  0.96238  0.45740  Biso   1.000  O
  C118     1.0000 0.59303  0.85907  0.42299  Biso   1.000  C
  H24      1.0000 0.60303  0.90617  0.41147  Biso   1.000  H
  C119     1.0000 0.62013  0.75857  0.34537  Biso   1.000  C
  C120     1.0000 0.68363  0.79237  0.35657  Biso   1.000  C
  C121     1.0000 0.76470  0.97450  0.80873  Biso   1.000  C
  O49      1.0000 0.78029  0.96356  0.84035  Biso   1.000  O
  C122     1.0000 0.82240  0.05150  0.79157  Biso   1.000  C
  O50      1.0000 0.70429  0.92536  0.79073  Biso   1.000  O
  C123     1.0000 0.80760  0.06730  0.75632  Biso   1.000  C
  H25      1.0000 0.76050  0.03020  0.74480  Biso   1.000  H
  C124     1.0000 0.90810  0.19490  0.67870  Biso   1.000  C
  C125     1.0000 0.87430  0.22460  0.68990  Biso   1.000  C
  C126     1.0000 0.43137  0.30783  0.14206  Biso   1.000  C
  O51      1.0000 0.44696  0.29689  0.17368  Biso   1.000  O
  C127     1.0000 0.48907  0.38483  0.12490  Biso   1.000  C
  O52      1.0000 0.37096  0.25869  0.12406  Biso   1.000  O
  C128     1.0000 0.47427  0.40063  0.08965  Biso   1.000  C
  H26      1.0000 0.42717  0.36353  0.07813  Biso   1.000  H
  C129     1.0000 0.57477  0.52823  0.01203  Biso   1.000  C
  C130     1.0000 0.54097  0.55793  0.02323  Biso   1.000  C
  C131     1.0000 0.09803  0.64117  0.47540  Biso   1.000  C
  O53      1.0000 0.11362  0.63023  0.50702  Biso   1.000  O
  C132     1.0000 0.15573  0.71817  0.45824  Biso   1.000  C
  O54      1.0000 0.03762  0.59203  0.45740  Biso   1.000  O
  C133     1.0000 0.14093  0.73397  0.42299  Biso   1.000  C
  H27      1.0000 0.09383  0.69687  0.41147  Biso   1.000  H
  C134     1.0000 0.24143  0.86157  0.34537  Biso   1.000  C
  C135     1.0000 0.20763  0.89127  0.35657  Biso   1.000  C
  C136     1.0000 0.79020  0.02550  0.19127  Biso   1.000  C
  O55      1.0000 0.81673  0.03644  0.15965  Biso   1.000  O
  C137     1.0000 0.77090  0.94850  0.20843  Biso   1.000  C
  O56      1.0000 0.77893  0.07464  0.20927  Biso   1.000  O
  C138     1.0000 0.74030  0.93270  0.24368  Biso   1.000  C
  H28      1.0000 0.73030  0.96980  0.25520  Biso   1.000  H
  C139     1.0000 0.71320  0.80510  0.32130  Biso   1.000  C
  C140     1.0000 0.64970  0.77540  0.31010  Biso   1.000  C
  C141     1.0000 0.45687  0.35883  0.52460  Biso   1.000  C
  O57      1.0000 0.48340  0.36977  0.49298  Biso   1.000  O
  C142     1.0000 0.43757  0.28183  0.54176  Biso   1.000  C
  O58      1.0000 0.44560  0.40797  0.54260  Biso   1.000  O
  C143     1.0000 0.40697  0.26603  0.57701  Biso   1.000  C
  H29      1.0000 0.39697  0.30313  0.58853  Biso   1.000  H
  C144     1.0000 0.37987  0.13843  0.65463  Biso   1.000  C
  C145     1.0000 0.31637  0.10873  0.64343  Biso   1.000  C
  C146     1.0000 0.12353  0.69217  0.85794  Biso   1.000  C
  O59      1.0000 0.15006  0.70311  0.82632  Biso   1.000  O
  C147     1.0000 0.10423  0.61517  0.87510  Biso   1.000  C
  O60      1.0000 0.11226  0.74131  0.87594  Biso   1.000  O
  C148     1.0000 0.07363  0.59937  0.91035  Biso   1.000  C
  H30      1.0000 0.06363  0.63647  0.92187  Biso   1.000  H
  C149     1.0000 0.04653  0.47177  0.98797  Biso   1.000  C
  C150     1.0000 0.98303  0.44207  0.97677  Biso   1.000  C
  C151     1.0000 0.23530  0.20980  0.19127  Biso   1.000  C
  O61      1.0000 0.21971  0.18327  0.15965  Biso   1.000  O
  C152     1.0000 0.17760  0.22910  0.20843  Biso   1.000  C
  O62      1.0000 0.29571  0.22107  0.20927  Biso   1.000  O
  C153     1.0000 0.19240  0.25970  0.24368  Biso   1.000  C
  H31      1.0000 0.23950  0.26970  0.25520  Biso   1.000  H
  C154     1.0000 0.09190  0.28680  0.32130  Biso   1.000  C
  C155     1.0000 0.12570  0.35030  0.31010  Biso   1.000  C
  C156     1.0000 0.90197  0.54313  0.52460  Biso   1.000  C
  O63      1.0000 0.88638  0.51660  0.49298  Biso   1.000  O
  C157     1.0000 0.84427  0.56243  0.54176  Biso   1.000  C
  O64      1.0000 0.96238  0.55440  0.54260  Biso   1.000  O
  C158     1.0000 0.85907  0.59303  0.57701  Biso   1.000  C
  H32      1.0000 0.90617  0.60303  0.58853  Biso   1.000  H
  C159     1.0000 0.75857  0.62013  0.65463  Biso   1.000  C
  C160     1.0000 0.79237  0.68363  0.64343  Biso   1.000  C
  C161     1.0000 0.56863  0.87647  0.85794  Biso   1.000  C
  O65      1.0000 0.55304  0.84994  0.82632  Biso   1.000  O
  C162     1.0000 0.51093  0.89577  0.87510  Biso   1.000  C
  O66      1.0000 0.62904  0.88774  0.87594  Biso   1.000  O
  C163     1.0000 0.52573  0.92637  0.91035  Biso   1.000  C
  H33      1.0000 0.57283  0.93637  0.92187  Biso   1.000  H
  C164     1.0000 0.42523  0.95347  0.98797  Biso   1.000  C
  C165     1.0000 0.45903  0.01697  0.97677  Biso   1.000  C
  C166     1.0000 0.97450  0.76470  0.19127  Biso   1.000  C
  O67      1.0000 0.96356  0.78029  0.15965  Biso   1.000  O
  C167     1.0000 0.05150  0.82240  0.20843  Biso   1.000  C
  O68      1.0000 0.92536  0.70429  0.20927  Biso   1.000  O
  C168     1.0000 0.06730  0.80760  0.24368  Biso   1.000  C
  H34      1.0000 0.03020  0.76050  0.25520  Biso   1.000  H
  C169     1.0000 0.19490  0.90810  0.32130  Biso   1.000  C
  C170     1.0000 0.22460  0.87430  0.31010  Biso   1.000  C
  C171     1.0000 0.64117  0.09803  0.52460  Biso   1.000  C
  O69      1.0000 0.63023  0.11362  0.49298  Biso   1.000  O
  C172     1.0000 0.71817  0.15573  0.54176  Biso   1.000  C
  O70      1.0000 0.59203  0.03762  0.54260  Biso   1.000  O
  C173     1.0000 0.73397  0.14093  0.57701  Biso   1.000  C
  H35      1.0000 0.69687  0.09383  0.58853  Biso   1.000  H
  C174     1.0000 0.86157  0.24143  0.65463  Biso   1.000  C
  C175     1.0000 0.89127  0.20763  0.64343  Biso   1.000  C
  C176     1.0000 0.30783  0.43137  0.85794  Biso   1.000  C
  O71      1.0000 0.29689  0.44696  0.82632  Biso   1.000  O
  C177     1.0000 0.38483  0.48907  0.87510  Biso   1.000  C
  O72      1.0000 0.25869  0.37096  0.87594  Biso   1.000  O
  C178     1.0000 0.40063  0.47427  0.91035  Biso   1.000  C
  H36      1.0000 0.36353  0.42717  0.92187  Biso   1.000  H
  C179     1.0000 0.52823  0.57477  0.98797  Biso   1.000  C
  C180     1.0000 0.55793  0.54097  0.97677  Biso   1.000  C
  Zn1      1.0000 0.85752  0.14248  0.13313  Biso   1.000  Zn
  Zn2      1.0000 0.52419  0.47581  0.46647  Biso   1.000  Zn
  Zn3      1.0000 0.19086  0.80914  0.79980  Biso   1.000  Zn
  Zn4      1.0000 0.85752  0.71505  0.13313  Biso   1.000  Zn
  Zn5      1.0000 0.52419  0.04838  0.46647  Biso   1.000  Zn
  Zn6      1.0000 0.19086  0.38171  0.79980  Biso   1.000  Zn
  Zn7      1.0000 0.28495  0.14248  0.13313  Biso   1.000  Zn
  Zn8      1.0000 0.95162  0.47581  0.46647  Biso   1.000  Zn
  Zn9      1.0000 0.61829  0.80914  0.79980  Biso   1.000  Zn
  Zn10     1.0000 0.14248  0.85752  0.86687  Biso   1.000  Zn
  Zn11     1.0000 0.80914  0.19086  0.20020  Biso   1.000  Zn
  Zn12     1.0000 0.47581  0.52419  0.53353  Biso   1.000  Zn
  Zn13     1.0000 0.71505  0.85752  0.86687  Biso   1.000  Zn
  Zn14     1.0000 0.38171  0.19086  0.20020  Biso   1.000  Zn
  Zn15     1.0000 0.04838  0.52419  0.53353  Biso   1.000  Zn
  Zn16     1.0000 0.14248  0.28495  0.86687  Biso   1.000  Zn
  Zn17     1.0000 0.80914  0.61829  0.20020  Biso   1.000  Zn
  Zn18     1.0000 0.47581  0.95162  0.53353  Biso   1.000  Zn
  C181     1.0000 0.10760  0.21520  0.19145  Biso   1.000  C
  H37      1.0000 0.09800  0.19600  0.16810  Biso   1.000  H
  C182     1.0000 0.13755  0.27510  0.26173  Biso   1.000  C
  C183     1.0000 0.15290  0.30580  0.29864  Biso   1.000  C
  C184     1.0000 0.77427  0.54853  0.52478  Biso   1.000  C
  H38      1.0000 0.76467  0.52933  0.50143  Biso   1.000  H
  C185     1.0000 0.80422  0.60843  0.59506  Biso   1.000  C
  C186     1.0000 0.81957  0.63913  0.63197  Biso   1.000  C
  C187     1.0000 0.44093  0.88187  0.85812  Biso   1.000  C
  H39      1.0000 0.43133  0.86267  0.83477  Biso   1.000  H
  C188     1.0000 0.47088  0.94177  0.92840  Biso   1.000  C
  C189     1.0000 0.48623  0.97247  0.96531  Biso   1.000  C
  C190     1.0000 0.78480  0.89240  0.19145  Biso   1.000  C
  H40      1.0000 0.80400  0.90200  0.16810  Biso   1.000  H
  C191     1.0000 0.72490  0.86245  0.26173  Biso   1.000  C
  C192     1.0000 0.69420  0.84710  0.29864  Biso   1.000  C
  C193     1.0000 0.45147  0.22573  0.52478  Biso   1.000  C
  H41      1.0000 0.47067  0.23533  0.50143  Biso   1.000  H
  C194     1.0000 0.39157  0.19578  0.59506  Biso   1.000  C
  C195     1.0000 0.36087  0.18043  0.63197  Biso   1.000  C
  C196     1.0000 0.11813  0.55907  0.85812  Biso   1.000  C
  H42      1.0000 0.13733  0.56867  0.83477  Biso   1.000  H
  C197     1.0000 0.05823  0.52912  0.92840  Biso   1.000  C
  C198     1.0000 0.02753  0.51377  0.96531  Biso   1.000  C
  C199     1.0000 0.10760  0.89240  0.19145  Biso   1.000  C
  H43      1.0000 0.09800  0.90200  0.16810  Biso   1.000  H
  C200     1.0000 0.13755  0.86245  0.26173  Biso   1.000  C
  C201     1.0000 0.15290  0.84710  0.29864  Biso   1.000  C
  C202     1.0000 0.77427  0.22573  0.52478  Biso   1.000  C
  H44      1.0000 0.76467  0.23533  0.50143  Biso   1.000  H
  C203     1.0000 0.80422  0.19578  0.59506  Biso   1.000  C
  C204     1.0000 0.81957  0.18043  0.63197  Biso   1.000  C
  C205     1.0000 0.44093  0.55907  0.85812  Biso   1.000  C
  H45      1.0000 0.43133  0.56867  0.83477  Biso   1.000  H
  C206     1.0000 0.47088  0.52912  0.92840  Biso   1.000  C
  C207     1.0000 0.48623  0.51377  0.96531  Biso   1.000  C
  C208     1.0000 0.21520  0.10760  0.80855  Biso   1.000  C
  H46      1.0000 0.19600  0.09800  0.83190  Biso   1.000  H
  C209     1.0000 0.27510  0.13755  0.73827  Biso   1.000  C
  C210     1.0000 0.30580  0.15290  0.70136  Biso   1.000  C
  C211     1.0000 0.88187  0.44093  0.14188  Biso   1.000  C
  H47      1.0000 0.86267  0.43133  0.16523  Biso   1.000  H
  C212     1.0000 0.94177  0.47088  0.07160  Biso   1.000  C
  C213     1.0000 0.97247  0.48623  0.03469  Biso   1.000  C
  C214     1.0000 0.54853  0.77427  0.47522  Biso   1.000  C
  H48      1.0000 0.52933  0.76467  0.49857  Biso   1.000  H
  C215     1.0000 0.60843  0.80422  0.40494  Biso   1.000  C
  C216     1.0000 0.63913  0.81957  0.36803  Biso   1.000  C
  C217     1.0000 0.89240  0.78480  0.80855  Biso   1.000  C
  H49      1.0000 0.90200  0.80400  0.83190  Biso   1.000  H
  C218     1.0000 0.86245  0.72490  0.73827  Biso   1.000  C
  C219     1.0000 0.84710  0.69420  0.70136  Biso   1.000  C
  C220     1.0000 0.55907  0.11813  0.14188  Biso   1.000  C
  H50      1.0000 0.56867  0.13733  0.16523  Biso   1.000  H
  C221     1.0000 0.52912  0.05823  0.07160  Biso   1.000  C
  C222     1.0000 0.51377  0.02753  0.03469  Biso   1.000  C
  C223     1.0000 0.22573  0.45147  0.47522  Biso   1.000  C
  H51      1.0000 0.23533  0.47067  0.49857  Biso   1.000  H
  C224     1.0000 0.19578  0.39157  0.40494  Biso   1.000  C
  C225     1.0000 0.18043  0.36087  0.36803  Biso   1.000  C
  C226     1.0000 0.89240  0.10760  0.80855  Biso   1.000  C
  H52      1.0000 0.90200  0.09800  0.83190  Biso   1.000  H
  C227     1.0000 0.86245  0.13755  0.73827  Biso   1.000  C
  C228     1.0000 0.84710  0.15290  0.70136  Biso   1.000  C
  C229     1.0000 0.55907  0.44093  0.14188  Biso   1.000  C
  H53      1.0000 0.56867  0.43133  0.16523  Biso   1.000  H
  C230     1.0000 0.52912  0.47088  0.07160  Biso   1.000  C
  C231     1.0000 0.51377  0.48623  0.03469  Biso   1.000  C
  C232     1.0000 0.22573  0.77427  0.47522  Biso   1.000  C
  H54      1.0000 0.23533  0.76467  0.49857  Biso   1.000  H
  C233     1.0000 0.19578  0.80422  0.40494  Biso   1.000  C
  C234     1.0000 0.18043  0.81957  0.36803  Biso   1.000  C
