data_image0
_cell_length_a       24.03
_cell_length_b       24.03
_cell_length_c       12.815
_cell_angle_alpha    90
_cell_angle_beta     90
_cell_angle_gamma    120

_symmetry_space_group_name_H-M    "P 1"
_symmetry_int_tables_number       1

loop_
  _symmetry_equiv_pos_as_xyz
  'x, y, z'

loop_
  _atom_site_label
  _atom_site_occupancy
  _atom_site_fract_x
  _atom_site_fract_y
  _atom_site_fract_z
  _atom_site_thermal_displace_type
  _atom_site_B_iso_or_equiv
  _atom_site_type_symbol
  O1       1.0000 0.28000  0.58150  0.31270  Biso   1.000  O
  N1       1.0000 0.21740  0.54420  0.29480  Biso   1.000  N
  C1       1.0000 0.19230  0.48000  0.29130  Biso   1.000  C
  H1       1.0000 0.21850  0.46250  0.30370  Biso   1.000  H
  C2       1.0000 0.12770  0.43980  0.26930  Biso   1.000  C
  H2       1.0000 0.11140  0.39580  0.26290  Biso   1.000  H
  C3       1.0000 0.08620  0.46570  0.25650  Biso   1.000  C
  C4       1.0000 0.11570  0.53210  0.26540  Biso   1.000  C
  H3       1.0000 0.09000  0.55090  0.26060  Biso   1.000  H
  C5       1.0000 0.18150  0.57230  0.28100  Biso   1.000  C
  H4       1.0000 0.19980  0.61680  0.28190  Biso   1.000  H
  C6       1.0000 0.02120  0.42860  0.20240  Biso   1.000  C
  C7       1.0000 0.01850  0.42570  0.29990  Biso   1.000  C
  O2       1.0000 0.94667  0.91483  0.64603  Biso   1.000  O
  N2       1.0000 0.88407  0.87753  0.62813  Biso   1.000  N
  C8       1.0000 0.85897  0.81333  0.62463  Biso   1.000  C
  H5       1.0000 0.88517  0.79583  0.63703  Biso   1.000  H
  C9       1.0000 0.79437  0.77313  0.60263  Biso   1.000  C
  H6       1.0000 0.77807  0.72913  0.59623  Biso   1.000  H
  C10      1.0000 0.75287  0.79903  0.58983  Biso   1.000  C
  C11      1.0000 0.78237  0.86543  0.59873  Biso   1.000  C
  H7       1.0000 0.75667  0.88423  0.59393  Biso   1.000  H
  C12      1.0000 0.84817  0.90563  0.61433  Biso   1.000  C
  H8       1.0000 0.86647  0.95013  0.61523  Biso   1.000  H
  C13      1.0000 0.68787  0.76193  0.53573  Biso   1.000  C
  C14      1.0000 0.68517  0.75903  0.63323  Biso   1.000  C
  O3       1.0000 0.61333  0.24817  0.97937  Biso   1.000  O
  N3       1.0000 0.55073  0.21087  0.96147  Biso   1.000  N
  C15      1.0000 0.52563  0.14667  0.95797  Biso   1.000  C
  H9       1.0000 0.55183  0.12917  0.97037  Biso   1.000  H
  C16      1.0000 0.46103  0.10647  0.93597  Biso   1.000  C
  H10      1.0000 0.44473  0.06247  0.92957  Biso   1.000  H
  C17      1.0000 0.41953  0.13237  0.92317  Biso   1.000  C
  C18      1.0000 0.44903  0.19877  0.93207  Biso   1.000  C
  H11      1.0000 0.42333  0.21757  0.92727  Biso   1.000  H
  C19      1.0000 0.51483  0.23897  0.94767  Biso   1.000  C
  H12      1.0000 0.53313  0.28347  0.94857  Biso   1.000  H
  C20      1.0000 0.35453  0.09527  0.86907  Biso   1.000  C
  C21      1.0000 0.35183  0.09237  0.96657  Biso   1.000  C
  O4       1.0000 0.41850  0.69850  0.31270  Biso   1.000  O
  N4       1.0000 0.45580  0.67320  0.29480  Biso   1.000  N
  C22      1.0000 0.52000  0.71230  0.29130  Biso   1.000  C
  H13      1.0000 0.53750  0.75600  0.30370  Biso   1.000  H
  C23      1.0000 0.56020  0.68790  0.26930  Biso   1.000  C
  H14      1.0000 0.60420  0.71560  0.26290  Biso   1.000  H
  C24      1.0000 0.53430  0.62050  0.25650  Biso   1.000  C
  C25      1.0000 0.46790  0.58360  0.26540  Biso   1.000  C
  H15      1.0000 0.44910  0.53910  0.26060  Biso   1.000  H
  C26      1.0000 0.42770  0.60920  0.28100  Biso   1.000  C
  H16      1.0000 0.38320  0.58300  0.28190  Biso   1.000  H
  C27      1.0000 0.57140  0.59260  0.20240  Biso   1.000  C
  C28      1.0000 0.57430  0.59280  0.29990  Biso   1.000  C
  O5       1.0000 0.08517  0.03183  0.64603  Biso   1.000  O
  N5       1.0000 0.12247  0.00653  0.62813  Biso   1.000  N
  C29      1.0000 0.18667  0.04563  0.62463  Biso   1.000  C
  H17      1.0000 0.20417  0.08933  0.63703  Biso   1.000  H
  C30      1.0000 0.22687  0.02123  0.60263  Biso   1.000  C
  H18      1.0000 0.27087  0.04893  0.59623  Biso   1.000  H
  C31      1.0000 0.20097  0.95383  0.58983  Biso   1.000  C
  C32      1.0000 0.13457  0.91693  0.59873  Biso   1.000  C
  H19      1.0000 0.11577  0.87243  0.59393  Biso   1.000  H
  C33      1.0000 0.09437  0.94253  0.61433  Biso   1.000  C
  H20      1.0000 0.04987  0.91633  0.61523  Biso   1.000  H
  C34      1.0000 0.23807  0.92593  0.53573  Biso   1.000  C
  C35      1.0000 0.24097  0.92613  0.63323  Biso   1.000  C
  O6       1.0000 0.75183  0.36517  0.97937  Biso   1.000  O
  N6       1.0000 0.78913  0.33987  0.96147  Biso   1.000  N
  C36      1.0000 0.85333  0.37897  0.95797  Biso   1.000  C
  H21      1.0000 0.87083  0.42267  0.97037  Biso   1.000  H
  C37      1.0000 0.89353  0.35457  0.93597  Biso   1.000  C
  H22      1.0000 0.93753  0.38227  0.92957  Biso   1.000  H
  C38      1.0000 0.86763  0.28717  0.92317  Biso   1.000  C
  C39      1.0000 0.80123  0.25027  0.93207  Biso   1.000  C
  H23      1.0000 0.78243  0.20577  0.92727  Biso   1.000  H
  C40      1.0000 0.76103  0.27587  0.94767  Biso   1.000  C
  H24      1.0000 0.71653  0.24967  0.94857  Biso   1.000  H
  C41      1.0000 0.90473  0.25927  0.86907  Biso   1.000  C
  C42      1.0000 0.90763  0.25947  0.96657  Biso   1.000  C
  O7       1.0000 0.30150  0.72000  0.31270  Biso   1.000  O
  N7       1.0000 0.32680  0.78260  0.29480  Biso   1.000  N
  C43      1.0000 0.28770  0.80770  0.29130  Biso   1.000  C
  H25      1.0000 0.24400  0.78150  0.30370  Biso   1.000  H
  C44      1.0000 0.31210  0.87230  0.26930  Biso   1.000  C
  H26      1.0000 0.28440  0.88860  0.26290  Biso   1.000  H
  C45      1.0000 0.37950  0.91380  0.25650  Biso   1.000  C
  C46      1.0000 0.41640  0.88430  0.26540  Biso   1.000  C
  H27      1.0000 0.46090  0.91000  0.26060  Biso   1.000  H
  C47      1.0000 0.39080  0.81850  0.28100  Biso   1.000  C
  H28      1.0000 0.41700  0.80020  0.28190  Biso   1.000  H
  C48      1.0000 0.40740  0.97880  0.20240  Biso   1.000  C
  C49      1.0000 0.40720  0.98150  0.29990  Biso   1.000  C
  O8       1.0000 0.96817  0.05333  0.64603  Biso   1.000  O
  N8       1.0000 0.99347  0.11593  0.62813  Biso   1.000  N
  C50      1.0000 0.95437  0.14103  0.62463  Biso   1.000  C
  H29      1.0000 0.91067  0.11483  0.63703  Biso   1.000  H
  C51      1.0000 0.97877  0.20563  0.60263  Biso   1.000  C
  H30      1.0000 0.95107  0.22193  0.59623  Biso   1.000  H
  C52      1.0000 0.04617  0.24713  0.58983  Biso   1.000  C
  C53      1.0000 0.08307  0.21763  0.59873  Biso   1.000  C
  H31      1.0000 0.12757  0.24333  0.59393  Biso   1.000  H
  C54      1.0000 0.05747  0.15183  0.61433  Biso   1.000  C
  H32      1.0000 0.08367  0.13353  0.61523  Biso   1.000  H
  C55      1.0000 0.07407  0.31213  0.53573  Biso   1.000  C
  C56      1.0000 0.07387  0.31483  0.63323  Biso   1.000  C
  O9       1.0000 0.63483  0.38667  0.97937  Biso   1.000  O
  N9       1.0000 0.66013  0.44927  0.96147  Biso   1.000  N
  C57      1.0000 0.62103  0.47437  0.95797  Biso   1.000  C
  H33      1.0000 0.57733  0.44817  0.97037  Biso   1.000  H
  C58      1.0000 0.64543  0.53897  0.93597  Biso   1.000  C
  H34      1.0000 0.61773  0.55527  0.92957  Biso   1.000  H
  C59      1.0000 0.71283  0.58047  0.92317  Biso   1.000  C
  C60      1.0000 0.74973  0.55097  0.93207  Biso   1.000  C
  H35      1.0000 0.79423  0.57667  0.92727  Biso   1.000  H
  C61      1.0000 0.72413  0.48517  0.94767  Biso   1.000  C
  H36      1.0000 0.75033  0.46687  0.94857  Biso   1.000  H
  C62      1.0000 0.74073  0.64547  0.86907  Biso   1.000  C
  C63      1.0000 0.74053  0.64817  0.96657  Biso   1.000  C
  O10      1.0000 0.58150  0.28000  0.18730  Biso   1.000  O
  N10      1.0000 0.54420  0.21740  0.20520  Biso   1.000  N
  C64      1.0000 0.48000  0.19230  0.20870  Biso   1.000  C
  H37      1.0000 0.46250  0.21850  0.19630  Biso   1.000  H
  C65      1.0000 0.43980  0.12770  0.23070  Biso   1.000  C
  H38      1.0000 0.39580  0.11140  0.23710  Biso   1.000  H
  C66      1.0000 0.46570  0.08620  0.24350  Biso   1.000  C
  C67      1.0000 0.53210  0.11570  0.23460  Biso   1.000  C
  H39      1.0000 0.55090  0.09000  0.23940  Biso   1.000  H
  C68      1.0000 0.57230  0.18150  0.21900  Biso   1.000  C
  H40      1.0000 0.61680  0.19980  0.21810  Biso   1.000  H
  C69      1.0000 0.42860  0.02120  0.29760  Biso   1.000  C
  C70      1.0000 0.42570  0.01850  0.20010  Biso   1.000  C
  O11      1.0000 0.24817  0.61333  0.52063  Biso   1.000  O
  N11      1.0000 0.21087  0.55073  0.53853  Biso   1.000  N
  C71      1.0000 0.14667  0.52563  0.54203  Biso   1.000  C
  H41      1.0000 0.12917  0.55183  0.52963  Biso   1.000  H
  C72      1.0000 0.10647  0.46103  0.56403  Biso   1.000  C
  H42      1.0000 0.06247  0.44473  0.57043  Biso   1.000  H
  C73      1.0000 0.13237  0.41953  0.57683  Biso   1.000  C
  C74      1.0000 0.19877  0.44903  0.56793  Biso   1.000  C
  H43      1.0000 0.21757  0.42333  0.57273  Biso   1.000  H
  C75      1.0000 0.23897  0.51483  0.55233  Biso   1.000  C
  H44      1.0000 0.28347  0.53313  0.55143  Biso   1.000  H
  C76      1.0000 0.09527  0.35453  0.63093  Biso   1.000  C
  C77      1.0000 0.09237  0.35183  0.53343  Biso   1.000  C
  O12      1.0000 0.91483  0.94667  0.85397  Biso   1.000  O
  N12      1.0000 0.87753  0.88407  0.87187  Biso   1.000  N
  C78      1.0000 0.81333  0.85897  0.87537  Biso   1.000  C
  H45      1.0000 0.79583  0.88517  0.86297  Biso   1.000  H
  C79      1.0000 0.77313  0.79437  0.89737  Biso   1.000  C
  H46      1.0000 0.72913  0.77807  0.90377  Biso   1.000  H
  C80      1.0000 0.79903  0.75287  0.91017  Biso   1.000  C
  C81      1.0000 0.86543  0.78237  0.90127  Biso   1.000  C
  H47      1.0000 0.88423  0.75667  0.90607  Biso   1.000  H
  C82      1.0000 0.90563  0.84817  0.88567  Biso   1.000  C
  H48      1.0000 0.95013  0.86647  0.88477  Biso   1.000  H
  C83      1.0000 0.76193  0.68787  0.96427  Biso   1.000  C
  C84      1.0000 0.75903  0.68517  0.86677  Biso   1.000  C
  O13      1.0000 0.69850  0.41850  0.18730  Biso   1.000  O
  N13      1.0000 0.67320  0.45580  0.20520  Biso   1.000  N
  C85      1.0000 0.71230  0.52000  0.20870  Biso   1.000  C
  H49      1.0000 0.75600  0.53750  0.19630  Biso   1.000  H
  C86      1.0000 0.68790  0.56020  0.23070  Biso   1.000  C
  H50      1.0000 0.71560  0.60420  0.23710  Biso   1.000  H
  C87      1.0000 0.62050  0.53430  0.24350  Biso   1.000  C
  C88      1.0000 0.58360  0.46790  0.23460  Biso   1.000  C
  H51      1.0000 0.53910  0.44910  0.23940  Biso   1.000  H
  C89      1.0000 0.60920  0.42770  0.21900  Biso   1.000  C
  H52      1.0000 0.58300  0.38320  0.21810  Biso   1.000  H
  C90      1.0000 0.59260  0.57140  0.29760  Biso   1.000  C
  C91      1.0000 0.59280  0.57430  0.20010  Biso   1.000  C
  O14      1.0000 0.36517  0.75183  0.52063  Biso   1.000  O
  N14      1.0000 0.33987  0.78913  0.53853  Biso   1.000  N
  C92      1.0000 0.37897  0.85333  0.54203  Biso   1.000  C
  H53      1.0000 0.42267  0.87083  0.52963  Biso   1.000  H
  C93      1.0000 0.35457  0.89353  0.56403  Biso   1.000  C
  H54      1.0000 0.38227  0.93753  0.57043  Biso   1.000  H
  C94      1.0000 0.28717  0.86763  0.57683  Biso   1.000  C
  C95      1.0000 0.25027  0.80123  0.56793  Biso   1.000  C
  H55      1.0000 0.20577  0.78243  0.57273  Biso   1.000  H
  C96      1.0000 0.27587  0.76103  0.55233  Biso   1.000  C
  H56      1.0000 0.24967  0.71653  0.55143  Biso   1.000  H
  C97      1.0000 0.25927  0.90473  0.63093  Biso   1.000  C
  C98      1.0000 0.25947  0.90763  0.53343  Biso   1.000  C
  O15      1.0000 0.03183  0.08517  0.85397  Biso   1.000  O
  N15      1.0000 0.00653  0.12247  0.87187  Biso   1.000  N
  C99      1.0000 0.04563  0.18667  0.87537  Biso   1.000  C
  H57      1.0000 0.08933  0.20417  0.86297  Biso   1.000  H
  C100     1.0000 0.02123  0.22687  0.89737  Biso   1.000  C
  H58      1.0000 0.04893  0.27087  0.90377  Biso   1.000  H
  C101     1.0000 0.95383  0.20097  0.91017  Biso   1.000  C
  C102     1.0000 0.91693  0.13457  0.90127  Biso   1.000  C
  H59      1.0000 0.87243  0.11577  0.90607  Biso   1.000  H
  C103     1.0000 0.94253  0.09437  0.88567  Biso   1.000  C
  H60      1.0000 0.91633  0.04987  0.88477  Biso   1.000  H
  C104     1.0000 0.92593  0.23807  0.96427  Biso   1.000  C
  C105     1.0000 0.92613  0.24097  0.86677  Biso   1.000  C
  O16      1.0000 0.72000  0.30150  0.18730  Biso   1.000  O
  N16      1.0000 0.78260  0.32680  0.20520  Biso   1.000  N
  C106     1.0000 0.80770  0.28770  0.20870  Biso   1.000  C
  H61      1.0000 0.78150  0.24400  0.19630  Biso   1.000  H
  C107     1.0000 0.87230  0.31210  0.23070  Biso   1.000  C
  H62      1.0000 0.88860  0.28440  0.23710  Biso   1.000  H
  C108     1.0000 0.91380  0.37950  0.24350  Biso   1.000  C
  C109     1.0000 0.88430  0.41640  0.23460  Biso   1.000  C
  H63      1.0000 0.91000  0.46090  0.23940  Biso   1.000  H
  C110     1.0000 0.81850  0.39080  0.21900  Biso   1.000  C
  H64      1.0000 0.80020  0.41700  0.21810  Biso   1.000  H
  C111     1.0000 0.97880  0.40740  0.29760  Biso   1.000  C
  C112     1.0000 0.98150  0.40720  0.20010  Biso   1.000  C
  O17      1.0000 0.38667  0.63483  0.52063  Biso   1.000  O
  N17      1.0000 0.44927  0.66013  0.53853  Biso   1.000  N
  C113     1.0000 0.47437  0.62103  0.54203  Biso   1.000  C
  H65      1.0000 0.44817  0.57733  0.52963  Biso   1.000  H
  C114     1.0000 0.53897  0.64543  0.56403  Biso   1.000  C
  H66      1.0000 0.55527  0.61773  0.57043  Biso   1.000  H
  C115     1.0000 0.58047  0.71283  0.57683  Biso   1.000  C
  C116     1.0000 0.55097  0.74973  0.56793  Biso   1.000  C
  H67      1.0000 0.57667  0.79423  0.57273  Biso   1.000  H
  C117     1.0000 0.48517  0.72413  0.55233  Biso   1.000  C
  H68      1.0000 0.46687  0.75033  0.55143  Biso   1.000  H
  C118     1.0000 0.64547  0.74073  0.63093  Biso   1.000  C
  C119     1.0000 0.64817  0.74053  0.53343  Biso   1.000  C
  O18      1.0000 0.05333  0.96817  0.85397  Biso   1.000  O
  N18      1.0000 0.11593  0.99347  0.87187  Biso   1.000  N
  C120     1.0000 0.14103  0.95437  0.87537  Biso   1.000  C
  H69      1.0000 0.11483  0.91067  0.86297  Biso   1.000  H
  C121     1.0000 0.20563  0.97877  0.89737  Biso   1.000  C
  H70      1.0000 0.22193  0.95107  0.90377  Biso   1.000  H
  C122     1.0000 0.24713  0.04617  0.91017  Biso   1.000  C
  C123     1.0000 0.21763  0.08307  0.90127  Biso   1.000  C
  H71      1.0000 0.24333  0.12757  0.90607  Biso   1.000  H
  C124     1.0000 0.15183  0.05747  0.88567  Biso   1.000  C
  H72      1.0000 0.13353  0.08367  0.88477  Biso   1.000  H
  C125     1.0000 0.31213  0.07407  0.96427  Biso   1.000  C
  C126     1.0000 0.31483  0.07387  0.86677  Biso   1.000  C
  Er1      1.0000 0.66667  0.33333  0.08333  Biso   1.000  Er
  Er2      1.0000 0.00000  0.00000  0.75000  Biso   1.000  Er
  Er3      1.0000 0.33333  0.66667  0.41667  Biso   1.000  Er
  O19      1.0000 0.72000  0.41850  0.68730  Biso   1.000  O
  N19      1.0000 0.78260  0.45580  0.70520  Biso   1.000  N
  C127     1.0000 0.80770  0.52000  0.70870  Biso   1.000  C
  H73      1.0000 0.78150  0.53750  0.69630  Biso   1.000  H
  C128     1.0000 0.87230  0.56020  0.73070  Biso   1.000  C
  H74      1.0000 0.88860  0.60420  0.73710  Biso   1.000  H
  C129     1.0000 0.91380  0.53430  0.74350  Biso   1.000  C
  C130     1.0000 0.88430  0.46790  0.73460  Biso   1.000  C
  H75      1.0000 0.91000  0.44910  0.73940  Biso   1.000  H
  C131     1.0000 0.81850  0.42770  0.71900  Biso   1.000  C
  H76      1.0000 0.80020  0.38320  0.71810  Biso   1.000  H
  C132     1.0000 0.97880  0.57140  0.79760  Biso   1.000  C
  C133     1.0000 0.98150  0.57430  0.70010  Biso   1.000  C
  O20      1.0000 0.38667  0.75183  0.02063  Biso   1.000  O
  N20      1.0000 0.44927  0.78913  0.03853  Biso   1.000  N
  C134     1.0000 0.47437  0.85333  0.04203  Biso   1.000  C
  H77      1.0000 0.44817  0.87083  0.02963  Biso   1.000  H
  C135     1.0000 0.53897  0.89353  0.06403  Biso   1.000  C
  H78      1.0000 0.55527  0.93753  0.07043  Biso   1.000  H
  C136     1.0000 0.58047  0.86763  0.07683  Biso   1.000  C
  C137     1.0000 0.55097  0.80123  0.06793  Biso   1.000  C
  H79      1.0000 0.57667  0.78243  0.07273  Biso   1.000  H
  C138     1.0000 0.48517  0.76103  0.05233  Biso   1.000  C
  H80      1.0000 0.46687  0.71653  0.05143  Biso   1.000  H
  C139     1.0000 0.64547  0.90473  0.13093  Biso   1.000  C
  C140     1.0000 0.64817  0.90763  0.03343  Biso   1.000  C
  O21      1.0000 0.05333  0.08517  0.35397  Biso   1.000  O
  N21      1.0000 0.11593  0.12247  0.37187  Biso   1.000  N
  C141     1.0000 0.14103  0.18667  0.37537  Biso   1.000  C
  H81      1.0000 0.11483  0.20417  0.36297  Biso   1.000  H
  C142     1.0000 0.20563  0.22687  0.39737  Biso   1.000  C
  H82      1.0000 0.22193  0.27087  0.40377  Biso   1.000  H
  C143     1.0000 0.24713  0.20097  0.41017  Biso   1.000  C
  C144     1.0000 0.21763  0.13457  0.40127  Biso   1.000  C
  H83      1.0000 0.24333  0.11577  0.40607  Biso   1.000  H
  C145     1.0000 0.15183  0.09437  0.38567  Biso   1.000  C
  H84      1.0000 0.13353  0.04987  0.38477  Biso   1.000  H
  C146     1.0000 0.31213  0.23807  0.46427  Biso   1.000  C
  C147     1.0000 0.31483  0.24097  0.36677  Biso   1.000  C
  O22      1.0000 0.58150  0.30150  0.68730  Biso   1.000  O
  N22      1.0000 0.54420  0.32680  0.70520  Biso   1.000  N
  C148     1.0000 0.48000  0.28770  0.70870  Biso   1.000  C
  H85      1.0000 0.46250  0.24400  0.69630  Biso   1.000  H
  C149     1.0000 0.43980  0.31210  0.73070  Biso   1.000  C
  H86      1.0000 0.39580  0.28440  0.73710  Biso   1.000  H
  C150     1.0000 0.46570  0.37950  0.74350  Biso   1.000  C
  C151     1.0000 0.53210  0.41640  0.73460  Biso   1.000  C
  H87      1.0000 0.55090  0.46090  0.73940  Biso   1.000  H
  C152     1.0000 0.57230  0.39080  0.71900  Biso   1.000  C
  H88      1.0000 0.61680  0.41700  0.71810  Biso   1.000  H
  C153     1.0000 0.42860  0.40740  0.79760  Biso   1.000  C
  C154     1.0000 0.42570  0.40720  0.70010  Biso   1.000  C
  O23      1.0000 0.24817  0.63483  0.02063  Biso   1.000  O
  N23      1.0000 0.21087  0.66013  0.03853  Biso   1.000  N
  C155     1.0000 0.14667  0.62103  0.04203  Biso   1.000  C
  H89      1.0000 0.12917  0.57733  0.02963  Biso   1.000  H
  C156     1.0000 0.10647  0.64543  0.06403  Biso   1.000  C
  H90      1.0000 0.06247  0.61773  0.07043  Biso   1.000  H
  C157     1.0000 0.13237  0.71283  0.07683  Biso   1.000  C
  C158     1.0000 0.19877  0.74973  0.06793  Biso   1.000  C
  H91      1.0000 0.21757  0.79423  0.07273  Biso   1.000  H
  C159     1.0000 0.23897  0.72413  0.05233  Biso   1.000  C
  H92      1.0000 0.28347  0.75033  0.05143  Biso   1.000  H
  C160     1.0000 0.09527  0.74073  0.13093  Biso   1.000  C
  C161     1.0000 0.09237  0.74053  0.03343  Biso   1.000  C
  O24      1.0000 0.91483  0.96817  0.35397  Biso   1.000  O
  N24      1.0000 0.87753  0.99347  0.37187  Biso   1.000  N
  C162     1.0000 0.81333  0.95437  0.37537  Biso   1.000  C
  H93      1.0000 0.79583  0.91067  0.36297  Biso   1.000  H
  C163     1.0000 0.77313  0.97877  0.39737  Biso   1.000  C
  H94      1.0000 0.72913  0.95107  0.40377  Biso   1.000  H
  C164     1.0000 0.79903  0.04617  0.41017  Biso   1.000  C
  C165     1.0000 0.86543  0.08307  0.40127  Biso   1.000  C
  H95      1.0000 0.88423  0.12757  0.40607  Biso   1.000  H
  C166     1.0000 0.90563  0.05747  0.38567  Biso   1.000  C
  H96      1.0000 0.95013  0.08367  0.38477  Biso   1.000  H
  C167     1.0000 0.76193  0.07407  0.46427  Biso   1.000  C
  C168     1.0000 0.75903  0.07387  0.36677  Biso   1.000  C
  O25      1.0000 0.69850  0.28000  0.68730  Biso   1.000  O
  N25      1.0000 0.67320  0.21740  0.70520  Biso   1.000  N
  C169     1.0000 0.71230  0.19230  0.70870  Biso   1.000  C
  H97      1.0000 0.75600  0.21850  0.69630  Biso   1.000  H
  C170     1.0000 0.68790  0.12770  0.73070  Biso   1.000  C
  H98      1.0000 0.71560  0.11140  0.73710  Biso   1.000  H
  C171     1.0000 0.62050  0.08620  0.74350  Biso   1.000  C
  C172     1.0000 0.58360  0.11570  0.73460  Biso   1.000  C
  H99      1.0000 0.53910  0.09000  0.73940  Biso   1.000  H
  C173     1.0000 0.60920  0.18150  0.71900  Biso   1.000  C
  H100     1.0000 0.58300  0.19980  0.71810  Biso   1.000  H
  C174     1.0000 0.59260  0.02120  0.79760  Biso   1.000  C
  C175     1.0000 0.59280  0.01850  0.70010  Biso   1.000  C
  O26      1.0000 0.36517  0.61333  0.02063  Biso   1.000  O
  N26      1.0000 0.33987  0.55073  0.03853  Biso   1.000  N
  C176     1.0000 0.37897  0.52563  0.04203  Biso   1.000  C
  H101     1.0000 0.42267  0.55183  0.02963  Biso   1.000  H
  C177     1.0000 0.35457  0.46103  0.06403  Biso   1.000  C
  H102     1.0000 0.38227  0.44473  0.07043  Biso   1.000  H
  C178     1.0000 0.28717  0.41953  0.07683  Biso   1.000  C
  C179     1.0000 0.25027  0.44903  0.06793  Biso   1.000  C
  H103     1.0000 0.20577  0.42333  0.07273  Biso   1.000  H
  C180     1.0000 0.27587  0.51483  0.05233  Biso   1.000  C
  H104     1.0000 0.24967  0.53313  0.05143  Biso   1.000  H
  C181     1.0000 0.25927  0.35453  0.13093  Biso   1.000  C
  C182     1.0000 0.25947  0.35183  0.03343  Biso   1.000  C
  O27      1.0000 0.03183  0.94667  0.35397  Biso   1.000  O
  N27      1.0000 0.00653  0.88407  0.37187  Biso   1.000  N
  C183     1.0000 0.04563  0.85897  0.37537  Biso   1.000  C
  H105     1.0000 0.08933  0.88517  0.36297  Biso   1.000  H
  C184     1.0000 0.02123  0.79437  0.39737  Biso   1.000  C
  H106     1.0000 0.04893  0.77807  0.40377  Biso   1.000  H
  C185     1.0000 0.95383  0.75287  0.41017  Biso   1.000  C
  C186     1.0000 0.91693  0.78237  0.40127  Biso   1.000  C
  H107     1.0000 0.87243  0.75667  0.40607  Biso   1.000  H
  C187     1.0000 0.94253  0.84817  0.38567  Biso   1.000  C
  H108     1.0000 0.91633  0.86647  0.38477  Biso   1.000  H
  C188     1.0000 0.92593  0.68787  0.46427  Biso   1.000  C
  C189     1.0000 0.92613  0.68517  0.36677  Biso   1.000  C
  O28      1.0000 0.41850  0.72000  0.81270  Biso   1.000  O
  N28      1.0000 0.45580  0.78260  0.79480  Biso   1.000  N
  C190     1.0000 0.52000  0.80770  0.79130  Biso   1.000  C
  H109     1.0000 0.53750  0.78150  0.80370  Biso   1.000  H
  C191     1.0000 0.56020  0.87230  0.76930  Biso   1.000  C
  H110     1.0000 0.60420  0.88860  0.76290  Biso   1.000  H
  C192     1.0000 0.53430  0.91380  0.75650  Biso   1.000  C
  C193     1.0000 0.46790  0.88430  0.76540  Biso   1.000  C
  H111     1.0000 0.44910  0.91000  0.76060  Biso   1.000  H
  C194     1.0000 0.42770  0.81850  0.78100  Biso   1.000  C
  H112     1.0000 0.38320  0.80020  0.78190  Biso   1.000  H
  C195     1.0000 0.57140  0.97880  0.70240  Biso   1.000  C
  C196     1.0000 0.57430  0.98150  0.79990  Biso   1.000  C
  O29      1.0000 0.08517  0.05333  0.14603  Biso   1.000  O
  N29      1.0000 0.12247  0.11593  0.12813  Biso   1.000  N
  C197     1.0000 0.18667  0.14103  0.12463  Biso   1.000  C
  H113     1.0000 0.20417  0.11483  0.13703  Biso   1.000  H
  C198     1.0000 0.22687  0.20563  0.10263  Biso   1.000  C
  H114     1.0000 0.27087  0.22193  0.09623  Biso   1.000  H
  C199     1.0000 0.20097  0.24713  0.08983  Biso   1.000  C
  C200     1.0000 0.13457  0.21763  0.09873  Biso   1.000  C
  H115     1.0000 0.11577  0.24333  0.09393  Biso   1.000  H
  C201     1.0000 0.09437  0.15183  0.11433  Biso   1.000  C
  H116     1.0000 0.04987  0.13353  0.11523  Biso   1.000  H
  C202     1.0000 0.23807  0.31213  0.03573  Biso   1.000  C
  C203     1.0000 0.24097  0.31483  0.13323  Biso   1.000  C
  O30      1.0000 0.75183  0.38667  0.47937  Biso   1.000  O
  N30      1.0000 0.78913  0.44927  0.46147  Biso   1.000  N
  C204     1.0000 0.85333  0.47437  0.45797  Biso   1.000  C
  H117     1.0000 0.87083  0.44817  0.47037  Biso   1.000  H
  C205     1.0000 0.89353  0.53897  0.43597  Biso   1.000  C
  H118     1.0000 0.93753  0.55527  0.42957  Biso   1.000  H
  C206     1.0000 0.86763  0.58047  0.42317  Biso   1.000  C
  C207     1.0000 0.80123  0.55097  0.43207  Biso   1.000  C
  H119     1.0000 0.78243  0.57667  0.42727  Biso   1.000  H
  C208     1.0000 0.76103  0.48517  0.44767  Biso   1.000  C
  H120     1.0000 0.71653  0.46687  0.44857  Biso   1.000  H
  C209     1.0000 0.90473  0.64547  0.36907  Biso   1.000  C
  C210     1.0000 0.90763  0.64817  0.46657  Biso   1.000  C
  O31      1.0000 0.30150  0.58150  0.81270  Biso   1.000  O
  N31      1.0000 0.32680  0.54420  0.79480  Biso   1.000  N
  C211     1.0000 0.28770  0.48000  0.79130  Biso   1.000  C
  H121     1.0000 0.24400  0.46250  0.80370  Biso   1.000  H
  C212     1.0000 0.31210  0.43980  0.76930  Biso   1.000  C
  H122     1.0000 0.28440  0.39580  0.76290  Biso   1.000  H
  C213     1.0000 0.37950  0.46570  0.75650  Biso   1.000  C
  C214     1.0000 0.41640  0.53210  0.76540  Biso   1.000  C
  H123     1.0000 0.46090  0.55090  0.76060  Biso   1.000  H
  C215     1.0000 0.39080  0.57230  0.78100  Biso   1.000  C
  H124     1.0000 0.41700  0.61680  0.78190  Biso   1.000  H
  C216     1.0000 0.40740  0.42860  0.70240  Biso   1.000  C
  C217     1.0000 0.40720  0.42570  0.79990  Biso   1.000  C
  O32      1.0000 0.96817  0.91483  0.14603  Biso   1.000  O
  N32      1.0000 0.99347  0.87753  0.12813  Biso   1.000  N
  C218     1.0000 0.95437  0.81333  0.12463  Biso   1.000  C
  H125     1.0000 0.91067  0.79583  0.13703  Biso   1.000  H
  C219     1.0000 0.97877  0.77313  0.10263  Biso   1.000  C
  H126     1.0000 0.95107  0.72913  0.09623  Biso   1.000  H
  C220     1.0000 0.04617  0.79903  0.08983  Biso   1.000  C
  C221     1.0000 0.08307  0.86543  0.09873  Biso   1.000  C
  H127     1.0000 0.12757  0.88423  0.09393  Biso   1.000  H
  C222     1.0000 0.05747  0.90563  0.11433  Biso   1.000  C
  H128     1.0000 0.08367  0.95013  0.11523  Biso   1.000  H
  C223     1.0000 0.07407  0.76193  0.03573  Biso   1.000  C
  C224     1.0000 0.07387  0.75903  0.13323  Biso   1.000  C
  O33      1.0000 0.63483  0.24817  0.47937  Biso   1.000  O
  N33      1.0000 0.66013  0.21087  0.46147  Biso   1.000  N
  C225     1.0000 0.62103  0.14667  0.45797  Biso   1.000  C
  H129     1.0000 0.57733  0.12917  0.47037  Biso   1.000  H
  C226     1.0000 0.64543  0.10647  0.43597  Biso   1.000  C
  H130     1.0000 0.61773  0.06247  0.42957  Biso   1.000  H
  C227     1.0000 0.71283  0.13237  0.42317  Biso   1.000  C
  C228     1.0000 0.74973  0.19877  0.43207  Biso   1.000  C
  H131     1.0000 0.79423  0.21757  0.42727  Biso   1.000  H
  C229     1.0000 0.72413  0.23897  0.44767  Biso   1.000  C
  H132     1.0000 0.75033  0.28347  0.44857  Biso   1.000  H
  C230     1.0000 0.74073  0.09527  0.36907  Biso   1.000  C
  C231     1.0000 0.74053  0.09237  0.46657  Biso   1.000  C
  O34      1.0000 0.28000  0.69850  0.81270  Biso   1.000  O
  N34      1.0000 0.21740  0.67320  0.79480  Biso   1.000  N
  C232     1.0000 0.19230  0.71230  0.79130  Biso   1.000  C
  H133     1.0000 0.21850  0.75600  0.80370  Biso   1.000  H
  C233     1.0000 0.12770  0.68790  0.76930  Biso   1.000  C
  H134     1.0000 0.11140  0.71560  0.76290  Biso   1.000  H
  C234     1.0000 0.08620  0.62050  0.75650  Biso   1.000  C
  C235     1.0000 0.11570  0.58360  0.76540  Biso   1.000  C
  H135     1.0000 0.09000  0.53910  0.76060  Biso   1.000  H
  C236     1.0000 0.18150  0.60920  0.78100  Biso   1.000  C
  H136     1.0000 0.19980  0.58300  0.78190  Biso   1.000  H
  C237     1.0000 0.02120  0.59260  0.70240  Biso   1.000  C
  C238     1.0000 0.01850  0.59280  0.79990  Biso   1.000  C
  O35      1.0000 0.94667  0.03183  0.14603  Biso   1.000  O
  N35      1.0000 0.88407  0.00653  0.12813  Biso   1.000  N
  C239     1.0000 0.85897  0.04563  0.12463  Biso   1.000  C
  H137     1.0000 0.88517  0.08933  0.13703  Biso   1.000  H
  C240     1.0000 0.79437  0.02123  0.10263  Biso   1.000  C
  H138     1.0000 0.77807  0.04893  0.09623  Biso   1.000  H
  C241     1.0000 0.75287  0.95383  0.08983  Biso   1.000  C
  C242     1.0000 0.78237  0.91693  0.09873  Biso   1.000  C
  H139     1.0000 0.75667  0.87243  0.09393  Biso   1.000  H
  C243     1.0000 0.84817  0.94253  0.11433  Biso   1.000  C
  H140     1.0000 0.86647  0.91633  0.11523  Biso   1.000  H
  C244     1.0000 0.68787  0.92593  0.03573  Biso   1.000  C
  C245     1.0000 0.68517  0.92613  0.13323  Biso   1.000  C
  O36      1.0000 0.61333  0.36517  0.47937  Biso   1.000  O
  N36      1.0000 0.55073  0.33987  0.46147  Biso   1.000  N
  C246     1.0000 0.52563  0.37897  0.45797  Biso   1.000  C
  H141     1.0000 0.55183  0.42267  0.47037  Biso   1.000  H
  C247     1.0000 0.46103  0.35457  0.43597  Biso   1.000  C
  H142     1.0000 0.44473  0.38227  0.42957  Biso   1.000  H
  C248     1.0000 0.41953  0.28717  0.42317  Biso   1.000  C
  C249     1.0000 0.44903  0.25027  0.43207  Biso   1.000  C
  H143     1.0000 0.42333  0.20577  0.42727  Biso   1.000  H
  C250     1.0000 0.51483  0.27587  0.44767  Biso   1.000  C
  H144     1.0000 0.53313  0.24967  0.44857  Biso   1.000  H
  C251     1.0000 0.35453  0.25927  0.36907  Biso   1.000  C
  C252     1.0000 0.35183  0.25947  0.46657  Biso   1.000  C
  Er4      1.0000 0.33333  0.66667  0.91667  Biso   1.000  Er
  Er5      1.0000 0.00000  0.00000  0.25000  Biso   1.000  Er
  Er6      1.0000 0.66667  0.33333  0.58333  Biso   1.000  Er
