data_image0
_cell_length_a       23.9937
_cell_length_b       23.9937
_cell_length_c       12.8101
_cell_angle_alpha    90
_cell_angle_beta     90
_cell_angle_gamma    120

_symmetry_space_group_name_H-M    "P 1"
_symmetry_int_tables_number       1

loop_
  _symmetry_equiv_pos_as_xyz
  'x, y, z'

loop_
  _atom_site_label
  _atom_site_occupancy
  _atom_site_fract_x
  _atom_site_fract_y
  _atom_site_fract_z
  _atom_site_thermal_displace_type
  _atom_site_B_iso_or_equiv
  _atom_site_type_symbol
  O1       1.0000 0.28080  0.58220  0.31330  Biso   1.000  O
  N1       1.0000 0.21820  0.54490  0.29440  Biso   1.000  N
  C1       1.0000 0.19280  0.48080  0.29110  Biso   1.000  C
  H1       1.0000 0.21910  0.46310  0.30290  Biso   1.000  H
  C2       1.0000 0.12800  0.44050  0.27020  Biso   1.000  C
  H2       1.0000 0.11160  0.39630  0.26520  Biso   1.000  H
  C3       1.0000 0.08650  0.46570  0.25660  Biso   1.000  C
  C4       1.0000 0.11650  0.53260  0.26610  Biso   1.000  C
  H3       1.0000 0.09080  0.55140  0.26190  Biso   1.000  H
  C5       1.0000 0.18240  0.57300  0.28150  Biso   1.000  C
  H4       1.0000 0.20080  0.61750  0.28270  Biso   1.000  H
  C6       1.0000 0.02150  0.42890  0.20270  Biso   1.000  C
  C7       1.0000 0.01860  0.42560  0.29980  Biso   1.000  C
  O2       1.0000 0.94747  0.91553  0.64663  Biso   1.000  O
  N2       1.0000 0.88487  0.87823  0.62773  Biso   1.000  N
  C8       1.0000 0.85947  0.81413  0.62443  Biso   1.000  C
  H5       1.0000 0.88577  0.79643  0.63623  Biso   1.000  H
  C9       1.0000 0.79467  0.77383  0.60353  Biso   1.000  C
  H6       1.0000 0.77827  0.72963  0.59853  Biso   1.000  H
  C10      1.0000 0.75317  0.79903  0.58993  Biso   1.000  C
  C11      1.0000 0.78317  0.86593  0.59943  Biso   1.000  C
  H7       1.0000 0.75747  0.88473  0.59523  Biso   1.000  H
  C12      1.0000 0.84907  0.90633  0.61483  Biso   1.000  C
  H8       1.0000 0.86747  0.95083  0.61603  Biso   1.000  H
  C13      1.0000 0.68817  0.76223  0.53603  Biso   1.000  C
  C14      1.0000 0.68527  0.75893  0.63313  Biso   1.000  C
  O3       1.0000 0.61413  0.24887  0.97997  Biso   1.000  O
  N3       1.0000 0.55153  0.21157  0.96107  Biso   1.000  N
  C15      1.0000 0.52613  0.14747  0.95777  Biso   1.000  C
  H9       1.0000 0.55243  0.12977  0.96957  Biso   1.000  H
  C16      1.0000 0.46133  0.10717  0.93687  Biso   1.000  C
  H10      1.0000 0.44493  0.06297  0.93187  Biso   1.000  H
  C17      1.0000 0.41983  0.13237  0.92327  Biso   1.000  C
  C18      1.0000 0.44983  0.19927  0.93277  Biso   1.000  C
  H11      1.0000 0.42413  0.21807  0.92857  Biso   1.000  H
  C19      1.0000 0.51573  0.23967  0.94817  Biso   1.000  C
  H12      1.0000 0.53413  0.28417  0.94937  Biso   1.000  H
  C20      1.0000 0.35483  0.09557  0.86937  Biso   1.000  C
  C21      1.0000 0.35193  0.09227  0.96647  Biso   1.000  C
  O4       1.0000 0.41780  0.69860  0.31330  Biso   1.000  O
  N4       1.0000 0.45510  0.67330  0.29440  Biso   1.000  N
  C22      1.0000 0.51920  0.71200  0.29110  Biso   1.000  C
  H13      1.0000 0.53690  0.75600  0.30290  Biso   1.000  H
  C23      1.0000 0.55950  0.68750  0.27020  Biso   1.000  C
  H14      1.0000 0.60370  0.71530  0.26520  Biso   1.000  H
  C24      1.0000 0.53430  0.62080  0.25660  Biso   1.000  C
  C25      1.0000 0.46740  0.58390  0.26610  Biso   1.000  C
  H15      1.0000 0.44860  0.53940  0.26190  Biso   1.000  H
  C26      1.0000 0.42700  0.60940  0.28150  Biso   1.000  C
  H16      1.0000 0.38250  0.58330  0.28270  Biso   1.000  H
  C27      1.0000 0.57110  0.59260  0.20270  Biso   1.000  C
  C28      1.0000 0.57440  0.59300  0.29980  Biso   1.000  C
  O5       1.0000 0.08447  0.03193  0.64663  Biso   1.000  O
  N5       1.0000 0.12177  0.00663  0.62773  Biso   1.000  N
  C29      1.0000 0.18587  0.04533  0.62443  Biso   1.000  C
  H17      1.0000 0.20357  0.08933  0.63623  Biso   1.000  H
  C30      1.0000 0.22617  0.02083  0.60353  Biso   1.000  C
  H18      1.0000 0.27037  0.04863  0.59853  Biso   1.000  H
  C31      1.0000 0.20097  0.95413  0.58993  Biso   1.000  C
  C32      1.0000 0.13407  0.91723  0.59943  Biso   1.000  C
  H19      1.0000 0.11527  0.87273  0.59523  Biso   1.000  H
  C33      1.0000 0.09367  0.94273  0.61483  Biso   1.000  C
  H20      1.0000 0.04917  0.91663  0.61603  Biso   1.000  H
  C34      1.0000 0.23777  0.92593  0.53603  Biso   1.000  C
  C35      1.0000 0.24107  0.92633  0.63313  Biso   1.000  C
  O6       1.0000 0.75113  0.36527  0.97997  Biso   1.000  O
  N6       1.0000 0.78843  0.33997  0.96107  Biso   1.000  N
  C36      1.0000 0.85253  0.37867  0.95777  Biso   1.000  C
  H21      1.0000 0.87023  0.42267  0.96957  Biso   1.000  H
  C37      1.0000 0.89283  0.35417  0.93687  Biso   1.000  C
  H22      1.0000 0.93703  0.38197  0.93187  Biso   1.000  H
  C38      1.0000 0.86763  0.28747  0.92327  Biso   1.000  C
  C39      1.0000 0.80073  0.25057  0.93277  Biso   1.000  C
  H23      1.0000 0.78193  0.20607  0.92857  Biso   1.000  H
  C40      1.0000 0.76033  0.27607  0.94817  Biso   1.000  C
  H24      1.0000 0.71583  0.24997  0.94937  Biso   1.000  H
  C41      1.0000 0.90443  0.25927  0.86937  Biso   1.000  C
  C42      1.0000 0.90773  0.25967  0.96647  Biso   1.000  C
  O7       1.0000 0.30140  0.71920  0.31330  Biso   1.000  O
  N7       1.0000 0.32670  0.78180  0.29440  Biso   1.000  N
  C43      1.0000 0.28800  0.80720  0.29110  Biso   1.000  C
  H25      1.0000 0.24400  0.78090  0.30290  Biso   1.000  H
  C44      1.0000 0.31250  0.87200  0.27020  Biso   1.000  C
  H26      1.0000 0.28470  0.88840  0.26520  Biso   1.000  H
  C45      1.0000 0.37920  0.91350  0.25660  Biso   1.000  C
  C46      1.0000 0.41610  0.88350  0.26610  Biso   1.000  C
  H27      1.0000 0.46060  0.90920  0.26190  Biso   1.000  H
  C47      1.0000 0.39060  0.81760  0.28150  Biso   1.000  C
  H28      1.0000 0.41670  0.79920  0.28270  Biso   1.000  H
  C48      1.0000 0.40740  0.97850  0.20270  Biso   1.000  C
  C49      1.0000 0.40700  0.98140  0.29980  Biso   1.000  C
  O8       1.0000 0.96807  0.05253  0.64663  Biso   1.000  O
  N8       1.0000 0.99337  0.11513  0.62773  Biso   1.000  N
  C50      1.0000 0.95467  0.14053  0.62443  Biso   1.000  C
  H29      1.0000 0.91067  0.11423  0.63623  Biso   1.000  H
  C51      1.0000 0.97917  0.20533  0.60353  Biso   1.000  C
  H30      1.0000 0.95137  0.22173  0.59853  Biso   1.000  H
  C52      1.0000 0.04587  0.24683  0.58993  Biso   1.000  C
  C53      1.0000 0.08277  0.21683  0.59943  Biso   1.000  C
  H31      1.0000 0.12727  0.24253  0.59523  Biso   1.000  H
  C54      1.0000 0.05727  0.15093  0.61483  Biso   1.000  C
  H32      1.0000 0.08337  0.13253  0.61603  Biso   1.000  H
  C55      1.0000 0.07407  0.31183  0.53603  Biso   1.000  C
  C56      1.0000 0.07367  0.31473  0.63313  Biso   1.000  C
  O9       1.0000 0.63473  0.38587  0.97997  Biso   1.000  O
  N9       1.0000 0.66003  0.44847  0.96107  Biso   1.000  N
  C57      1.0000 0.62133  0.47387  0.95777  Biso   1.000  C
  H33      1.0000 0.57733  0.44757  0.96957  Biso   1.000  H
  C58      1.0000 0.64583  0.53867  0.93687  Biso   1.000  C
  H34      1.0000 0.61803  0.55507  0.93187  Biso   1.000  H
  C59      1.0000 0.71253  0.58017  0.92327  Biso   1.000  C
  C60      1.0000 0.74943  0.55017  0.93277  Biso   1.000  C
  H35      1.0000 0.79393  0.57587  0.92857  Biso   1.000  H
  C61      1.0000 0.72393  0.48427  0.94817  Biso   1.000  C
  H36      1.0000 0.75003  0.46587  0.94937  Biso   1.000  H
  C62      1.0000 0.74073  0.64517  0.86937  Biso   1.000  C
  C63      1.0000 0.74033  0.64807  0.96647  Biso   1.000  C
  O10      1.0000 0.58220  0.28080  0.18670  Biso   1.000  O
  N10      1.0000 0.54490  0.21820  0.20560  Biso   1.000  N
  C64      1.0000 0.48080  0.19280  0.20890  Biso   1.000  C
  H37      1.0000 0.46310  0.21910  0.19710  Biso   1.000  H
  C65      1.0000 0.44050  0.12800  0.22980  Biso   1.000  C
  H38      1.0000 0.39630  0.11160  0.23480  Biso   1.000  H
  C66      1.0000 0.46570  0.08650  0.24340  Biso   1.000  C
  C67      1.0000 0.53260  0.11650  0.23390  Biso   1.000  C
  H39      1.0000 0.55140  0.09080  0.23810  Biso   1.000  H
  C68      1.0000 0.57300  0.18240  0.21850  Biso   1.000  C
  H40      1.0000 0.61750  0.20080  0.21730  Biso   1.000  H
  C69      1.0000 0.42890  0.02150  0.29730  Biso   1.000  C
  C70      1.0000 0.42560  0.01860  0.20020  Biso   1.000  C
  O11      1.0000 0.24887  0.61413  0.52003  Biso   1.000  O
  N11      1.0000 0.21157  0.55153  0.53893  Biso   1.000  N
  C71      1.0000 0.14747  0.52613  0.54223  Biso   1.000  C
  H41      1.0000 0.12977  0.55243  0.53043  Biso   1.000  H
  C72      1.0000 0.10717  0.46133  0.56313  Biso   1.000  C
  H42      1.0000 0.06297  0.44493  0.56813  Biso   1.000  H
  C73      1.0000 0.13237  0.41983  0.57673  Biso   1.000  C
  C74      1.0000 0.19927  0.44983  0.56723  Biso   1.000  C
  H43      1.0000 0.21807  0.42413  0.57143  Biso   1.000  H
  C75      1.0000 0.23967  0.51573  0.55183  Biso   1.000  C
  H44      1.0000 0.28417  0.53413  0.55063  Biso   1.000  H
  C76      1.0000 0.09557  0.35483  0.63063  Biso   1.000  C
  C77      1.0000 0.09227  0.35193  0.53353  Biso   1.000  C
  O12      1.0000 0.91553  0.94747  0.85337  Biso   1.000  O
  N12      1.0000 0.87823  0.88487  0.87227  Biso   1.000  N
  C78      1.0000 0.81413  0.85947  0.87557  Biso   1.000  C
  H45      1.0000 0.79643  0.88577  0.86377  Biso   1.000  H
  C79      1.0000 0.77383  0.79467  0.89647  Biso   1.000  C
  H46      1.0000 0.72963  0.77827  0.90147  Biso   1.000  H
  C80      1.0000 0.79903  0.75317  0.91007  Biso   1.000  C
  C81      1.0000 0.86593  0.78317  0.90057  Biso   1.000  C
  H47      1.0000 0.88473  0.75747  0.90477  Biso   1.000  H
  C82      1.0000 0.90633  0.84907  0.88517  Biso   1.000  C
  H48      1.0000 0.95083  0.86747  0.88397  Biso   1.000  H
  C83      1.0000 0.76223  0.68817  0.96397  Biso   1.000  C
  C84      1.0000 0.75893  0.68527  0.86687  Biso   1.000  C
  O13      1.0000 0.69860  0.41780  0.18670  Biso   1.000  O
  N13      1.0000 0.67330  0.45510  0.20560  Biso   1.000  N
  C85      1.0000 0.71200  0.51920  0.20890  Biso   1.000  C
  H49      1.0000 0.75600  0.53690  0.19710  Biso   1.000  H
  C86      1.0000 0.68750  0.55950  0.22980  Biso   1.000  C
  H50      1.0000 0.71530  0.60370  0.23480  Biso   1.000  H
  C87      1.0000 0.62080  0.53430  0.24340  Biso   1.000  C
  C88      1.0000 0.58390  0.46740  0.23390  Biso   1.000  C
  H51      1.0000 0.53940  0.44860  0.23810  Biso   1.000  H
  C89      1.0000 0.60940  0.42700  0.21850  Biso   1.000  C
  H52      1.0000 0.58330  0.38250  0.21730  Biso   1.000  H
  C90      1.0000 0.59260  0.57110  0.29730  Biso   1.000  C
  C91      1.0000 0.59300  0.57440  0.20020  Biso   1.000  C
  O14      1.0000 0.36527  0.75113  0.52003  Biso   1.000  O
  N14      1.0000 0.33997  0.78843  0.53893  Biso   1.000  N
  C92      1.0000 0.37867  0.85253  0.54223  Biso   1.000  C
  H53      1.0000 0.42267  0.87023  0.53043  Biso   1.000  H
  C93      1.0000 0.35417  0.89283  0.56313  Biso   1.000  C
  H54      1.0000 0.38197  0.93703  0.56813  Biso   1.000  H
  C94      1.0000 0.28747  0.86763  0.57673  Biso   1.000  C
  C95      1.0000 0.25057  0.80073  0.56723  Biso   1.000  C
  H55      1.0000 0.20607  0.78193  0.57143  Biso   1.000  H
  C96      1.0000 0.27607  0.76033  0.55183  Biso   1.000  C
  H56      1.0000 0.24997  0.71583  0.55063  Biso   1.000  H
  C97      1.0000 0.25927  0.90443  0.63063  Biso   1.000  C
  C98      1.0000 0.25967  0.90773  0.53353  Biso   1.000  C
  O15      1.0000 0.03193  0.08447  0.85337  Biso   1.000  O
  N15      1.0000 0.00663  0.12177  0.87227  Biso   1.000  N
  C99      1.0000 0.04533  0.18587  0.87557  Biso   1.000  C
  H57      1.0000 0.08933  0.20357  0.86377  Biso   1.000  H
  C100     1.0000 0.02083  0.22617  0.89647  Biso   1.000  C
  H58      1.0000 0.04863  0.27037  0.90147  Biso   1.000  H
  C101     1.0000 0.95413  0.20097  0.91007  Biso   1.000  C
  C102     1.0000 0.91723  0.13407  0.90057  Biso   1.000  C
  H59      1.0000 0.87273  0.11527  0.90477  Biso   1.000  H
  C103     1.0000 0.94273  0.09367  0.88517  Biso   1.000  C
  H60      1.0000 0.91663  0.04917  0.88397  Biso   1.000  H
  C104     1.0000 0.92593  0.23777  0.96397  Biso   1.000  C
  C105     1.0000 0.92633  0.24107  0.86687  Biso   1.000  C
  O16      1.0000 0.71920  0.30140  0.18670  Biso   1.000  O
  N16      1.0000 0.78180  0.32670  0.20560  Biso   1.000  N
  C106     1.0000 0.80720  0.28800  0.20890  Biso   1.000  C
  H61      1.0000 0.78090  0.24400  0.19710  Biso   1.000  H
  C107     1.0000 0.87200  0.31250  0.22980  Biso   1.000  C
  H62      1.0000 0.88840  0.28470  0.23480  Biso   1.000  H
  C108     1.0000 0.91350  0.37920  0.24340  Biso   1.000  C
  C109     1.0000 0.88350  0.41610  0.23390  Biso   1.000  C
  H63      1.0000 0.90920  0.46060  0.23810  Biso   1.000  H
  C110     1.0000 0.81760  0.39060  0.21850  Biso   1.000  C
  H64      1.0000 0.79920  0.41670  0.21730  Biso   1.000  H
  C111     1.0000 0.97850  0.40740  0.29730  Biso   1.000  C
  C112     1.0000 0.98140  0.40700  0.20020  Biso   1.000  C
  O17      1.0000 0.38587  0.63473  0.52003  Biso   1.000  O
  N17      1.0000 0.44847  0.66003  0.53893  Biso   1.000  N
  C113     1.0000 0.47387  0.62133  0.54223  Biso   1.000  C
  H65      1.0000 0.44757  0.57733  0.53043  Biso   1.000  H
  C114     1.0000 0.53867  0.64583  0.56313  Biso   1.000  C
  H66      1.0000 0.55507  0.61803  0.56813  Biso   1.000  H
  C115     1.0000 0.58017  0.71253  0.57673  Biso   1.000  C
  C116     1.0000 0.55017  0.74943  0.56723  Biso   1.000  C
  H67      1.0000 0.57587  0.79393  0.57143  Biso   1.000  H
  C117     1.0000 0.48427  0.72393  0.55183  Biso   1.000  C
  H68      1.0000 0.46587  0.75003  0.55063  Biso   1.000  H
  C118     1.0000 0.64517  0.74073  0.63063  Biso   1.000  C
  C119     1.0000 0.64807  0.74033  0.53353  Biso   1.000  C
  O18      1.0000 0.05253  0.96807  0.85337  Biso   1.000  O
  N18      1.0000 0.11513  0.99337  0.87227  Biso   1.000  N
  C120     1.0000 0.14053  0.95467  0.87557  Biso   1.000  C
  H69      1.0000 0.11423  0.91067  0.86377  Biso   1.000  H
  C121     1.0000 0.20533  0.97917  0.89647  Biso   1.000  C
  H70      1.0000 0.22173  0.95137  0.90147  Biso   1.000  H
  C122     1.0000 0.24683  0.04587  0.91007  Biso   1.000  C
  C123     1.0000 0.21683  0.08277  0.90057  Biso   1.000  C
  H71      1.0000 0.24253  0.12727  0.90477  Biso   1.000  H
  C124     1.0000 0.15093  0.05727  0.88517  Biso   1.000  C
  H72      1.0000 0.13253  0.08337  0.88397  Biso   1.000  H
  C125     1.0000 0.31183  0.07407  0.96397  Biso   1.000  C
  C126     1.0000 0.31473  0.07367  0.86687  Biso   1.000  C
  Yb1      1.0000 0.66667  0.33333  0.08333  Biso   1.000  Yb
  Yb2      1.0000 0.00000  0.00000  0.75000  Biso   1.000  Yb
  Yb3      1.0000 0.33333  0.66667  0.41667  Biso   1.000  Yb
  O19      1.0000 0.71920  0.41780  0.68670  Biso   1.000  O
  N19      1.0000 0.78180  0.45510  0.70560  Biso   1.000  N
  C127     1.0000 0.80720  0.51920  0.70890  Biso   1.000  C
  H73      1.0000 0.78090  0.53690  0.69710  Biso   1.000  H
  C128     1.0000 0.87200  0.55950  0.72980  Biso   1.000  C
  H74      1.0000 0.88840  0.60370  0.73480  Biso   1.000  H
  C129     1.0000 0.91350  0.53430  0.74340  Biso   1.000  C
  C130     1.0000 0.88350  0.46740  0.73390  Biso   1.000  C
  H75      1.0000 0.90920  0.44860  0.73810  Biso   1.000  H
  C131     1.0000 0.81760  0.42700  0.71850  Biso   1.000  C
  H76      1.0000 0.79920  0.38250  0.71730  Biso   1.000  H
  C132     1.0000 0.97850  0.57110  0.79730  Biso   1.000  C
  C133     1.0000 0.98140  0.57440  0.70020  Biso   1.000  C
  O20      1.0000 0.38587  0.75113  0.02003  Biso   1.000  O
  N20      1.0000 0.44847  0.78843  0.03893  Biso   1.000  N
  C134     1.0000 0.47387  0.85253  0.04223  Biso   1.000  C
  H77      1.0000 0.44757  0.87023  0.03043  Biso   1.000  H
  C135     1.0000 0.53867  0.89283  0.06313  Biso   1.000  C
  H78      1.0000 0.55507  0.93703  0.06813  Biso   1.000  H
  C136     1.0000 0.58017  0.86763  0.07673  Biso   1.000  C
  C137     1.0000 0.55017  0.80073  0.06723  Biso   1.000  C
  H79      1.0000 0.57587  0.78193  0.07143  Biso   1.000  H
  C138     1.0000 0.48427  0.76033  0.05183  Biso   1.000  C
  H80      1.0000 0.46587  0.71583  0.05063  Biso   1.000  H
  C139     1.0000 0.64517  0.90443  0.13063  Biso   1.000  C
  C140     1.0000 0.64807  0.90773  0.03353  Biso   1.000  C
  O21      1.0000 0.05253  0.08447  0.35337  Biso   1.000  O
  N21      1.0000 0.11513  0.12177  0.37227  Biso   1.000  N
  C141     1.0000 0.14053  0.18587  0.37557  Biso   1.000  C
  H81      1.0000 0.11423  0.20357  0.36377  Biso   1.000  H
  C142     1.0000 0.20533  0.22617  0.39647  Biso   1.000  C
  H82      1.0000 0.22173  0.27037  0.40147  Biso   1.000  H
  C143     1.0000 0.24683  0.20097  0.41007  Biso   1.000  C
  C144     1.0000 0.21683  0.13407  0.40057  Biso   1.000  C
  H83      1.0000 0.24253  0.11527  0.40477  Biso   1.000  H
  C145     1.0000 0.15093  0.09367  0.38517  Biso   1.000  C
  H84      1.0000 0.13253  0.04917  0.38397  Biso   1.000  H
  C146     1.0000 0.31183  0.23777  0.46397  Biso   1.000  C
  C147     1.0000 0.31473  0.24107  0.36687  Biso   1.000  C
  O22      1.0000 0.58220  0.30140  0.68670  Biso   1.000  O
  N22      1.0000 0.54490  0.32670  0.70560  Biso   1.000  N
  C148     1.0000 0.48080  0.28800  0.70890  Biso   1.000  C
  H85      1.0000 0.46310  0.24400  0.69710  Biso   1.000  H
  C149     1.0000 0.44050  0.31250  0.72980  Biso   1.000  C
  H86      1.0000 0.39630  0.28470  0.73480  Biso   1.000  H
  C150     1.0000 0.46570  0.37920  0.74340  Biso   1.000  C
  C151     1.0000 0.53260  0.41610  0.73390  Biso   1.000  C
  H87      1.0000 0.55140  0.46060  0.73810  Biso   1.000  H
  C152     1.0000 0.57300  0.39060  0.71850  Biso   1.000  C
  H88      1.0000 0.61750  0.41670  0.71730  Biso   1.000  H
  C153     1.0000 0.42890  0.40740  0.79730  Biso   1.000  C
  C154     1.0000 0.42560  0.40700  0.70020  Biso   1.000  C
  O23      1.0000 0.24887  0.63473  0.02003  Biso   1.000  O
  N23      1.0000 0.21157  0.66003  0.03893  Biso   1.000  N
  C155     1.0000 0.14747  0.62133  0.04223  Biso   1.000  C
  H89      1.0000 0.12977  0.57733  0.03043  Biso   1.000  H
  C156     1.0000 0.10717  0.64583  0.06313  Biso   1.000  C
  H90      1.0000 0.06297  0.61803  0.06813  Biso   1.000  H
  C157     1.0000 0.13237  0.71253  0.07673  Biso   1.000  C
  C158     1.0000 0.19927  0.74943  0.06723  Biso   1.000  C
  H91      1.0000 0.21807  0.79393  0.07143  Biso   1.000  H
  C159     1.0000 0.23967  0.72393  0.05183  Biso   1.000  C
  H92      1.0000 0.28417  0.75003  0.05063  Biso   1.000  H
  C160     1.0000 0.09557  0.74073  0.13063  Biso   1.000  C
  C161     1.0000 0.09227  0.74033  0.03353  Biso   1.000  C
  O24      1.0000 0.91553  0.96807  0.35337  Biso   1.000  O
  N24      1.0000 0.87823  0.99337  0.37227  Biso   1.000  N
  C162     1.0000 0.81413  0.95467  0.37557  Biso   1.000  C
  H93      1.0000 0.79643  0.91067  0.36377  Biso   1.000  H
  C163     1.0000 0.77383  0.97917  0.39647  Biso   1.000  C
  H94      1.0000 0.72963  0.95137  0.40147  Biso   1.000  H
  C164     1.0000 0.79903  0.04587  0.41007  Biso   1.000  C
  C165     1.0000 0.86593  0.08277  0.40057  Biso   1.000  C
  H95      1.0000 0.88473  0.12727  0.40477  Biso   1.000  H
  C166     1.0000 0.90633  0.05727  0.38517  Biso   1.000  C
  H96      1.0000 0.95083  0.08337  0.38397  Biso   1.000  H
  C167     1.0000 0.76223  0.07407  0.46397  Biso   1.000  C
  C168     1.0000 0.75893  0.07367  0.36687  Biso   1.000  C
  O25      1.0000 0.69860  0.28080  0.68670  Biso   1.000  O
  N25      1.0000 0.67330  0.21820  0.70560  Biso   1.000  N
  C169     1.0000 0.71200  0.19280  0.70890  Biso   1.000  C
  H97      1.0000 0.75600  0.21910  0.69710  Biso   1.000  H
  C170     1.0000 0.68750  0.12800  0.72980  Biso   1.000  C
  H98      1.0000 0.71530  0.11160  0.73480  Biso   1.000  H
  C171     1.0000 0.62080  0.08650  0.74340  Biso   1.000  C
  C172     1.0000 0.58390  0.11650  0.73390  Biso   1.000  C
  H99      1.0000 0.53940  0.09080  0.73810  Biso   1.000  H
  C173     1.0000 0.60940  0.18240  0.71850  Biso   1.000  C
  H100     1.0000 0.58330  0.20080  0.71730  Biso   1.000  H
  C174     1.0000 0.59260  0.02150  0.79730  Biso   1.000  C
  C175     1.0000 0.59300  0.01860  0.70020  Biso   1.000  C
  O26      1.0000 0.36527  0.61413  0.02003  Biso   1.000  O
  N26      1.0000 0.33997  0.55153  0.03893  Biso   1.000  N
  C176     1.0000 0.37867  0.52613  0.04223  Biso   1.000  C
  H101     1.0000 0.42267  0.55243  0.03043  Biso   1.000  H
  C177     1.0000 0.35417  0.46133  0.06313  Biso   1.000  C
  H102     1.0000 0.38197  0.44493  0.06813  Biso   1.000  H
  C178     1.0000 0.28747  0.41983  0.07673  Biso   1.000  C
  C179     1.0000 0.25057  0.44983  0.06723  Biso   1.000  C
  H103     1.0000 0.20607  0.42413  0.07143  Biso   1.000  H
  C180     1.0000 0.27607  0.51573  0.05183  Biso   1.000  C
  H104     1.0000 0.24997  0.53413  0.05063  Biso   1.000  H
  C181     1.0000 0.25927  0.35483  0.13063  Biso   1.000  C
  C182     1.0000 0.25967  0.35193  0.03353  Biso   1.000  C
  O27      1.0000 0.03193  0.94747  0.35337  Biso   1.000  O
  N27      1.0000 0.00663  0.88487  0.37227  Biso   1.000  N
  C183     1.0000 0.04533  0.85947  0.37557  Biso   1.000  C
  H105     1.0000 0.08933  0.88577  0.36377  Biso   1.000  H
  C184     1.0000 0.02083  0.79467  0.39647  Biso   1.000  C
  H106     1.0000 0.04863  0.77827  0.40147  Biso   1.000  H
  C185     1.0000 0.95413  0.75317  0.41007  Biso   1.000  C
  C186     1.0000 0.91723  0.78317  0.40057  Biso   1.000  C
  H107     1.0000 0.87273  0.75747  0.40477  Biso   1.000  H
  C187     1.0000 0.94273  0.84907  0.38517  Biso   1.000  C
  H108     1.0000 0.91663  0.86747  0.38397  Biso   1.000  H
  C188     1.0000 0.92593  0.68817  0.46397  Biso   1.000  C
  C189     1.0000 0.92633  0.68527  0.36687  Biso   1.000  C
  O28      1.0000 0.41780  0.71920  0.81330  Biso   1.000  O
  N28      1.0000 0.45510  0.78180  0.79440  Biso   1.000  N
  C190     1.0000 0.51920  0.80720  0.79110  Biso   1.000  C
  H109     1.0000 0.53690  0.78090  0.80290  Biso   1.000  H
  C191     1.0000 0.55950  0.87200  0.77020  Biso   1.000  C
  H110     1.0000 0.60370  0.88840  0.76520  Biso   1.000  H
  C192     1.0000 0.53430  0.91350  0.75660  Biso   1.000  C
  C193     1.0000 0.46740  0.88350  0.76610  Biso   1.000  C
  H111     1.0000 0.44860  0.90920  0.76190  Biso   1.000  H
  C194     1.0000 0.42700  0.81760  0.78150  Biso   1.000  C
  H112     1.0000 0.38250  0.79920  0.78270  Biso   1.000  H
  C195     1.0000 0.57110  0.97850  0.70270  Biso   1.000  C
  C196     1.0000 0.57440  0.98140  0.79980  Biso   1.000  C
  O29      1.0000 0.08447  0.05253  0.14663  Biso   1.000  O
  N29      1.0000 0.12177  0.11513  0.12773  Biso   1.000  N
  C197     1.0000 0.18587  0.14053  0.12443  Biso   1.000  C
  H113     1.0000 0.20357  0.11423  0.13623  Biso   1.000  H
  C198     1.0000 0.22617  0.20533  0.10353  Biso   1.000  C
  H114     1.0000 0.27037  0.22173  0.09853  Biso   1.000  H
  C199     1.0000 0.20097  0.24683  0.08993  Biso   1.000  C
  C200     1.0000 0.13407  0.21683  0.09943  Biso   1.000  C
  H115     1.0000 0.11527  0.24253  0.09523  Biso   1.000  H
  C201     1.0000 0.09367  0.15093  0.11483  Biso   1.000  C
  H116     1.0000 0.04917  0.13253  0.11603  Biso   1.000  H
  C202     1.0000 0.23777  0.31183  0.03603  Biso   1.000  C
  C203     1.0000 0.24107  0.31473  0.13313  Biso   1.000  C
  O30      1.0000 0.75113  0.38587  0.47997  Biso   1.000  O
  N30      1.0000 0.78843  0.44847  0.46107  Biso   1.000  N
  C204     1.0000 0.85253  0.47387  0.45777  Biso   1.000  C
  H117     1.0000 0.87023  0.44757  0.46957  Biso   1.000  H
  C205     1.0000 0.89283  0.53867  0.43687  Biso   1.000  C
  H118     1.0000 0.93703  0.55507  0.43187  Biso   1.000  H
  C206     1.0000 0.86763  0.58017  0.42327  Biso   1.000  C
  C207     1.0000 0.80073  0.55017  0.43277  Biso   1.000  C
  H119     1.0000 0.78193  0.57587  0.42857  Biso   1.000  H
  C208     1.0000 0.76033  0.48427  0.44817  Biso   1.000  C
  H120     1.0000 0.71583  0.46587  0.44937  Biso   1.000  H
  C209     1.0000 0.90443  0.64517  0.36937  Biso   1.000  C
  C210     1.0000 0.90773  0.64807  0.46647  Biso   1.000  C
  O31      1.0000 0.30140  0.58220  0.81330  Biso   1.000  O
  N31      1.0000 0.32670  0.54490  0.79440  Biso   1.000  N
  C211     1.0000 0.28800  0.48080  0.79110  Biso   1.000  C
  H121     1.0000 0.24400  0.46310  0.80290  Biso   1.000  H
  C212     1.0000 0.31250  0.44050  0.77020  Biso   1.000  C
  H122     1.0000 0.28470  0.39630  0.76520  Biso   1.000  H
  C213     1.0000 0.37920  0.46570  0.75660  Biso   1.000  C
  C214     1.0000 0.41610  0.53260  0.76610  Biso   1.000  C
  H123     1.0000 0.46060  0.55140  0.76190  Biso   1.000  H
  C215     1.0000 0.39060  0.57300  0.78150  Biso   1.000  C
  H124     1.0000 0.41670  0.61750  0.78270  Biso   1.000  H
  C216     1.0000 0.40740  0.42890  0.70270  Biso   1.000  C
  C217     1.0000 0.40700  0.42560  0.79980  Biso   1.000  C
  O32      1.0000 0.96807  0.91553  0.14663  Biso   1.000  O
  N32      1.0000 0.99337  0.87823  0.12773  Biso   1.000  N
  C218     1.0000 0.95467  0.81413  0.12443  Biso   1.000  C
  H125     1.0000 0.91067  0.79643  0.13623  Biso   1.000  H
  C219     1.0000 0.97917  0.77383  0.10353  Biso   1.000  C
  H126     1.0000 0.95137  0.72963  0.09853  Biso   1.000  H
  C220     1.0000 0.04587  0.79903  0.08993  Biso   1.000  C
  C221     1.0000 0.08277  0.86593  0.09943  Biso   1.000  C
  H127     1.0000 0.12727  0.88473  0.09523  Biso   1.000  H
  C222     1.0000 0.05727  0.90633  0.11483  Biso   1.000  C
  H128     1.0000 0.08337  0.95083  0.11603  Biso   1.000  H
  C223     1.0000 0.07407  0.76223  0.03603  Biso   1.000  C
  C224     1.0000 0.07367  0.75893  0.13313  Biso   1.000  C
  O33      1.0000 0.63473  0.24887  0.47997  Biso   1.000  O
  N33      1.0000 0.66003  0.21157  0.46107  Biso   1.000  N
  C225     1.0000 0.62133  0.14747  0.45777  Biso   1.000  C
  H129     1.0000 0.57733  0.12977  0.46957  Biso   1.000  H
  C226     1.0000 0.64583  0.10717  0.43687  Biso   1.000  C
  H130     1.0000 0.61803  0.06297  0.43187  Biso   1.000  H
  C227     1.0000 0.71253  0.13237  0.42327  Biso   1.000  C
  C228     1.0000 0.74943  0.19927  0.43277  Biso   1.000  C
  H131     1.0000 0.79393  0.21807  0.42857  Biso   1.000  H
  C229     1.0000 0.72393  0.23967  0.44817  Biso   1.000  C
  H132     1.0000 0.75003  0.28417  0.44937  Biso   1.000  H
  C230     1.0000 0.74073  0.09557  0.36937  Biso   1.000  C
  C231     1.0000 0.74033  0.09227  0.46647  Biso   1.000  C
  O34      1.0000 0.28080  0.69860  0.81330  Biso   1.000  O
  N34      1.0000 0.21820  0.67330  0.79440  Biso   1.000  N
  C232     1.0000 0.19280  0.71200  0.79110  Biso   1.000  C
  H133     1.0000 0.21910  0.75600  0.80290  Biso   1.000  H
  C233     1.0000 0.12800  0.68750  0.77020  Biso   1.000  C
  H134     1.0000 0.11160  0.71530  0.76520  Biso   1.000  H
  C234     1.0000 0.08650  0.62080  0.75660  Biso   1.000  C
  C235     1.0000 0.11650  0.58390  0.76610  Biso   1.000  C
  H135     1.0000 0.09080  0.53940  0.76190  Biso   1.000  H
  C236     1.0000 0.18240  0.60940  0.78150  Biso   1.000  C
  H136     1.0000 0.20080  0.58330  0.78270  Biso   1.000  H
  C237     1.0000 0.02150  0.59260  0.70270  Biso   1.000  C
  C238     1.0000 0.01860  0.59300  0.79980  Biso   1.000  C
  O35      1.0000 0.94747  0.03193  0.14663  Biso   1.000  O
  N35      1.0000 0.88487  0.00663  0.12773  Biso   1.000  N
  C239     1.0000 0.85947  0.04533  0.12443  Biso   1.000  C
  H137     1.0000 0.88577  0.08933  0.13623  Biso   1.000  H
  C240     1.0000 0.79467  0.02083  0.10353  Biso   1.000  C
  H138     1.0000 0.77827  0.04863  0.09853  Biso   1.000  H
  C241     1.0000 0.75317  0.95413  0.08993  Biso   1.000  C
  C242     1.0000 0.78317  0.91723  0.09943  Biso   1.000  C
  H139     1.0000 0.75747  0.87273  0.09523  Biso   1.000  H
  C243     1.0000 0.84907  0.94273  0.11483  Biso   1.000  C
  H140     1.0000 0.86747  0.91663  0.11603  Biso   1.000  H
  C244     1.0000 0.68817  0.92593  0.03603  Biso   1.000  C
  C245     1.0000 0.68527  0.92633  0.13313  Biso   1.000  C
  O36      1.0000 0.61413  0.36527  0.47997  Biso   1.000  O
  N36      1.0000 0.55153  0.33997  0.46107  Biso   1.000  N
  C246     1.0000 0.52613  0.37867  0.45777  Biso   1.000  C
  H141     1.0000 0.55243  0.42267  0.46957  Biso   1.000  H
  C247     1.0000 0.46133  0.35417  0.43687  Biso   1.000  C
  H142     1.0000 0.44493  0.38197  0.43187  Biso   1.000  H
  C248     1.0000 0.41983  0.28747  0.42327  Biso   1.000  C
  C249     1.0000 0.44983  0.25057  0.43277  Biso   1.000  C
  H143     1.0000 0.42413  0.20607  0.42857  Biso   1.000  H
  C250     1.0000 0.51573  0.27607  0.44817  Biso   1.000  C
  H144     1.0000 0.53413  0.24997  0.44937  Biso   1.000  H
  C251     1.0000 0.35483  0.25927  0.36937  Biso   1.000  C
  C252     1.0000 0.35193  0.25967  0.46647  Biso   1.000  C
  Yb4      1.0000 0.33333  0.66667  0.91667  Biso   1.000  Yb
  Yb5      1.0000 0.00000  0.00000  0.25000  Biso   1.000  Yb
  Yb6      1.0000 0.66667  0.33333  0.58333  Biso   1.000  Yb
