data_image0
_cell_length_a       14.8967
_cell_length_b       14.8967
_cell_length_c       10.0502
_cell_angle_alpha    90
_cell_angle_beta     90
_cell_angle_gamma    90

_symmetry_space_group_name_H-M    "P 1"
_symmetry_int_tables_number       1

loop_
  _symmetry_equiv_pos_as_xyz
  'x, y, z'

loop_
  _atom_site_label
  _atom_site_occupancy
  _atom_site_fract_x
  _atom_site_fract_y
  _atom_site_fract_z
  _atom_site_thermal_displace_type
  _atom_site_B_iso_or_equiv
  _atom_site_type_symbol
  O1       1.0000 0.41410  0.10010  0.14460  Biso   1.000  O
  C1       1.0000 0.42140  0.14470  0.25210  Biso   1.000  C
  O2       1.0000 0.43690  0.22580  0.25180  Biso   1.000  O
  C2       1.0000 0.40820  0.09610  0.37880  Biso   1.000  C
  C3       1.0000 0.38130  0.00640  0.38150  Biso   1.000  C
  H1       1.0000 0.37300  0.97570  0.29960  Biso   1.000  H
  C4       1.0000 0.28240  0.83480  0.39810  Biso   1.000  C
  C5       1.0000 0.24870  0.74980  0.40100  Biso   1.000  C
  C6       1.0000 0.31230  0.72270  0.39580  Biso   1.000  C
  H2       1.0000 0.71560  0.26740  0.09180  Biso   1.000  H
  H3       1.0000 0.70040  0.31300  0.94940  Biso   1.000  H
  H4       1.0000 0.73420  0.21120  0.95890  Biso   1.000  H
  C7       1.0000 0.34830  0.80840  0.39100  Biso   1.000  C
  O3       1.0000 0.58590  0.89990  0.14460  Biso   1.000  O
  C8       1.0000 0.57860  0.85530  0.25210  Biso   1.000  C
  O4       1.0000 0.56310  0.77420  0.25180  Biso   1.000  O
  C9       1.0000 0.59180  0.90390  0.37880  Biso   1.000  C
  C10      1.0000 0.61870  0.99360  0.38150  Biso   1.000  C
  H5       1.0000 0.62700  0.02430  0.29960  Biso   1.000  H
  C11      1.0000 0.71760  0.16520  0.39810  Biso   1.000  C
  C12      1.0000 0.75130  0.25020  0.40100  Biso   1.000  C
  C13      1.0000 0.68770  0.27730  0.39580  Biso   1.000  C
  H6       1.0000 0.28440  0.73260  0.09180  Biso   1.000  H
  H7       1.0000 0.29960  0.68700  0.94940  Biso   1.000  H
  H8       1.0000 0.26580  0.78880  0.95890  Biso   1.000  H
  C14      1.0000 0.65170  0.19160  0.39100  Biso   1.000  C
  O5       1.0000 0.89990  0.41410  0.64460  Biso   1.000  O
  C15      1.0000 0.85530  0.42140  0.75210  Biso   1.000  C
  O6       1.0000 0.77420  0.43690  0.75180  Biso   1.000  O
  C16      1.0000 0.90390  0.40820  0.87880  Biso   1.000  C
  C17      1.0000 0.99360  0.38130  0.88150  Biso   1.000  C
  H9       1.0000 0.02430  0.37300  0.79960  Biso   1.000  H
  C18      1.0000 0.16520  0.28240  0.89810  Biso   1.000  C
  C19      1.0000 0.25020  0.24870  0.90100  Biso   1.000  C
  C20      1.0000 0.27730  0.31230  0.89580  Biso   1.000  C
  H10      1.0000 0.73260  0.71560  0.59180  Biso   1.000  H
  H11      1.0000 0.68700  0.70040  0.44940  Biso   1.000  H
  H12      1.0000 0.78880  0.73420  0.45890  Biso   1.000  H
  C21      1.0000 0.19160  0.34830  0.89100  Biso   1.000  C
  O7       1.0000 0.10010  0.58590  0.64460  Biso   1.000  O
  C22      1.0000 0.14470  0.57860  0.75210  Biso   1.000  C
  O8       1.0000 0.22580  0.56310  0.75180  Biso   1.000  O
  C23      1.0000 0.09610  0.59180  0.87880  Biso   1.000  C
  C24      1.0000 0.00640  0.61870  0.88150  Biso   1.000  C
  H13      1.0000 0.97570  0.62700  0.79960  Biso   1.000  H
  C25      1.0000 0.83480  0.71760  0.89810  Biso   1.000  C
  C26      1.0000 0.74980  0.75130  0.90100  Biso   1.000  C
  C27      1.0000 0.72270  0.68770  0.89580  Biso   1.000  C
  H14      1.0000 0.26740  0.28440  0.59180  Biso   1.000  H
  H15      1.0000 0.31300  0.29960  0.44940  Biso   1.000  H
  H16      1.0000 0.21120  0.26580  0.45890  Biso   1.000  H
  C28      1.0000 0.80840  0.65170  0.89100  Biso   1.000  C
  O9       1.0000 0.58590  0.89990  0.85540  Biso   1.000  O
  C29      1.0000 0.57860  0.85530  0.74790  Biso   1.000  C
  O10      1.0000 0.56310  0.77420  0.74820  Biso   1.000  O
  C30      1.0000 0.59180  0.90390  0.62120  Biso   1.000  C
  C31      1.0000 0.61870  0.99360  0.61850  Biso   1.000  C
  H17      1.0000 0.62700  0.02430  0.70040  Biso   1.000  H
  C32      1.0000 0.71760  0.16520  0.60190  Biso   1.000  C
  C33      1.0000 0.75130  0.25020  0.59900  Biso   1.000  C
  C34      1.0000 0.68770  0.27730  0.60420  Biso   1.000  C
  H18      1.0000 0.28440  0.73260  0.90820  Biso   1.000  H
  H19      1.0000 0.29960  0.68700  0.05060  Biso   1.000  H
  H20      1.0000 0.26580  0.78880  0.04110  Biso   1.000  H
  C35      1.0000 0.65170  0.19160  0.60900  Biso   1.000  C
  O11      1.0000 0.41410  0.10010  0.85540  Biso   1.000  O
  C36      1.0000 0.42140  0.14470  0.74790  Biso   1.000  C
  O12      1.0000 0.43690  0.22580  0.74820  Biso   1.000  O
  C37      1.0000 0.40820  0.09610  0.62120  Biso   1.000  C
  C38      1.0000 0.38130  0.00640  0.61850  Biso   1.000  C
  H21      1.0000 0.37300  0.97570  0.70040  Biso   1.000  H
  C39      1.0000 0.28240  0.83480  0.60190  Biso   1.000  C
  C40      1.0000 0.24870  0.74980  0.59900  Biso   1.000  C
  C41      1.0000 0.31230  0.72270  0.60420  Biso   1.000  C
  H22      1.0000 0.71560  0.26740  0.90820  Biso   1.000  H
  H23      1.0000 0.70040  0.31300  0.05060  Biso   1.000  H
  H24      1.0000 0.73420  0.21120  0.04110  Biso   1.000  H
  C42      1.0000 0.34830  0.80840  0.60900  Biso   1.000  C
  O13      1.0000 0.10010  0.58590  0.35540  Biso   1.000  O
  C43      1.0000 0.14470  0.57860  0.24790  Biso   1.000  C
  O14      1.0000 0.22580  0.56310  0.24820  Biso   1.000  O
  C44      1.0000 0.09610  0.59180  0.12120  Biso   1.000  C
  C45      1.0000 0.00640  0.61870  0.11850  Biso   1.000  C
  H25      1.0000 0.97570  0.62700  0.20040  Biso   1.000  H
  C46      1.0000 0.83480  0.71760  0.10190  Biso   1.000  C
  C47      1.0000 0.74980  0.75130  0.09900  Biso   1.000  C
  C48      1.0000 0.72270  0.68770  0.10420  Biso   1.000  C
  H26      1.0000 0.26740  0.28440  0.40820  Biso   1.000  H
  H27      1.0000 0.31300  0.29960  0.55060  Biso   1.000  H
  H28      1.0000 0.21120  0.26580  0.54110  Biso   1.000  H
  C49      1.0000 0.80840  0.65170  0.10900  Biso   1.000  C
  O15      1.0000 0.89990  0.41410  0.35540  Biso   1.000  O
  C50      1.0000 0.85530  0.42140  0.24790  Biso   1.000  C
  O16      1.0000 0.77420  0.43690  0.24820  Biso   1.000  O
  C51      1.0000 0.90390  0.40820  0.12120  Biso   1.000  C
  C52      1.0000 0.99360  0.38130  0.11850  Biso   1.000  C
  H29      1.0000 0.02430  0.37300  0.20040  Biso   1.000  H
  C53      1.0000 0.16520  0.28240  0.10190  Biso   1.000  C
  C54      1.0000 0.25020  0.24870  0.09900  Biso   1.000  C
  C55      1.0000 0.27730  0.31230  0.10420  Biso   1.000  C
  H30      1.0000 0.73260  0.71560  0.40820  Biso   1.000  H
  H31      1.0000 0.68700  0.70040  0.55060  Biso   1.000  H
  H32      1.0000 0.78880  0.73420  0.54110  Biso   1.000  H
  C56      1.0000 0.19160  0.34830  0.10900  Biso   1.000  C
  Co1      1.0000 0.43244  0.19685  0.00000  Biso   1.000  Co
  O17      1.0000 0.58310  0.14390  0.00000  Biso   1.000  O
  O18      1.0000 0.53730  0.28460  0.00000  Biso   1.000  O
  N1       1.0000 0.30820  0.26220  0.00000  Biso   1.000  N
  C57      1.0000 0.59980  0.22510  0.00000  Biso   1.000  C
  C58      1.0000 0.69590  0.25700  0.00000  Biso   1.000  C
  Co2      1.0000 0.56756  0.80315  0.00000  Biso   1.000  Co
  O19      1.0000 0.41690  0.85610  0.00000  Biso   1.000  O
  O20      1.0000 0.46270  0.71540  0.00000  Biso   1.000  O
  N2       1.0000 0.69180  0.73780  0.00000  Biso   1.000  N
  C59      1.0000 0.40020  0.77490  0.00000  Biso   1.000  C
  C60      1.0000 0.30410  0.74300  0.00000  Biso   1.000  C
  Co3      1.0000 0.80315  0.43244  0.50000  Biso   1.000  Co
  O21      1.0000 0.85610  0.58310  0.50000  Biso   1.000  O
  O22      1.0000 0.71540  0.53730  0.50000  Biso   1.000  O
  N3       1.0000 0.73780  0.30820  0.50000  Biso   1.000  N
  C61      1.0000 0.77490  0.59980  0.50000  Biso   1.000  C
  C62      1.0000 0.74300  0.69590  0.50000  Biso   1.000  C
  Co4      1.0000 0.19685  0.56756  0.50000  Biso   1.000  Co
  O23      1.0000 0.14390  0.41690  0.50000  Biso   1.000  O
  O24      1.0000 0.28460  0.46270  0.50000  Biso   1.000  O
  N4       1.0000 0.26220  0.69180  0.50000  Biso   1.000  N
  C63      1.0000 0.22510  0.40020  0.50000  Biso   1.000  C
  C64      1.0000 0.25700  0.30410  0.50000  Biso   1.000  C
  Na1      1.0000 0.50000  0.00000  0.00000  Biso   1.000  Na
  Na2      1.0000 0.00000  0.50000  0.50000  Biso   1.000  Na
  C65      1.0000 0.42230  0.13930  0.50000  Biso   1.000  C
  H33      1.0000 0.44220  0.19990  0.50000  Biso   1.000  H
  C66      1.0000 0.36630  0.96020  0.50000  Biso   1.000  C
  C67      1.0000 0.33300  0.86620  0.50000  Biso   1.000  C
  C68      1.0000 0.57770  0.86070  0.50000  Biso   1.000  C
  H34      1.0000 0.55780  0.80010  0.50000  Biso   1.000  H
  C69      1.0000 0.63370  0.03980  0.50000  Biso   1.000  C
  C70      1.0000 0.66700  0.13380  0.50000  Biso   1.000  C
  C71      1.0000 0.86070  0.42230  0.00000  Biso   1.000  C
  H35      1.0000 0.80010  0.44220  0.00000  Biso   1.000  H
  C72      1.0000 0.03980  0.36630  0.00000  Biso   1.000  C
  C73      1.0000 0.13380  0.33300  0.00000  Biso   1.000  C
  C74      1.0000 0.13930  0.57770  0.00000  Biso   1.000  C
  H36      1.0000 0.19990  0.55780  0.00000  Biso   1.000  H
  C75      1.0000 0.96020  0.63370  0.00000  Biso   1.000  C
  C76      1.0000 0.86620  0.66700  0.00000  Biso   1.000  C
