data_image0
_cell_length_a       14.195
_cell_length_b       25.645
_cell_length_c       18.21
_cell_angle_alpha    90
_cell_angle_beta     90
_cell_angle_gamma    90

_symmetry_space_group_name_H-M    "P 1"
_symmetry_int_tables_number       1

loop_
  _symmetry_equiv_pos_as_xyz
  'x, y, z'

loop_
  _atom_site_label
  _atom_site_occupancy
  _atom_site_fract_x
  _atom_site_fract_y
  _atom_site_fract_z
  _atom_site_thermal_displace_type
  _atom_site_B_iso_or_equiv
  _atom_site_type_symbol
  Co1      1.0000 0.46858  0.35487  0.05727  Biso   1.000  Co
  O1       1.0000 0.57700  0.40880  0.19060  Biso   1.000  O
  O2       1.0000 0.54700  0.42130  0.20200  Biso   1.000  O
  O3       1.0000 0.53930  0.41929  0.07394  Biso   1.000  O
  O4       1.0000 0.92120  0.80080  0.19360  Biso   1.000  O
  O5       1.0000 0.96180  0.78930  0.19900  Biso   1.000  O
  O6       1.0000 0.96750  0.78934  0.07742  Biso   1.000  O
  O7       1.0000 0.39330  0.35746  0.17069  Biso   1.000  O
  O8       1.0000 0.32860  0.34499  0.06586  Biso   1.000  O
  N1       1.0000 0.48440  0.35491  0.94400  Biso   1.000  N
  C1       1.0000 0.57620  0.43400  0.13380  Biso   1.000  C
  C2       1.0000 0.63420  0.48280  0.13250  Biso   1.000  C
  C3       1.0000 0.66910  0.50230  0.19720  Biso   1.000  C
  H1       1.0000 0.65930  0.48430  0.24090  Biso   1.000  H
  C4       1.0000 0.71890  0.54860  0.19780  Biso   1.000  C
  H2       1.0000 0.74040  0.56200  0.24230  Biso   1.000  H
  C5       1.0000 0.73760  0.57550  0.13330  Biso   1.000  C
  C6       1.0000 0.70450  0.55450  0.06770  Biso   1.000  C
  H3       1.0000 0.71720  0.57140  0.02370  Biso   1.000  H
  C7       1.0000 0.65290  0.50870  0.06730  Biso   1.000  C
  H4       1.0000 0.63070  0.49520  0.02320  Biso   1.000  H
  C8       1.0000 0.78910  0.62610  0.13420  Biso   1.000  C
  C9       1.0000 0.78240  0.65950  0.19270  Biso   1.000  C
  H5       1.0000 0.74540  0.65000  0.23270  Biso   1.000  H
  C10      1.0000 0.82880  0.70700  0.19420  Biso   1.000  C
  H6       1.0000 0.82370  0.72850  0.23520  Biso   1.000  H
  C11      1.0000 0.88260  0.72240  0.13520  Biso   1.000  C
  C12      1.0000 0.88350  0.69150  0.07570  Biso   1.000  C
  H7       1.0000 0.91560  0.70240  0.03390  Biso   1.000  H
  C13      1.0000 0.83800  0.64400  0.07510  Biso   1.000  C
  H8       1.0000 0.84090  0.62350  0.03300  Biso   1.000  H
  C14      1.0000 0.93030  0.77400  0.13710  Biso   1.000  C
  C15      1.0000 0.32130  0.34820  0.13460  Biso   1.000  C
  C16      1.0000 0.22840  0.34280  0.17020  Biso   1.000  C
  C17      1.0000 0.21630  0.35100  0.24460  Biso   1.000  C
  H9       1.0000 0.26810  0.35830  0.27420  Biso   1.000  H
  C18      1.0000 0.12690  0.34840  0.27510  Biso   1.000  C
  H10      1.0000 0.11970  0.35470  0.32510  Biso   1.000  H
  C19      1.0000 0.04810  0.33690  0.23370  Biso   1.000  C
  C20      1.0000 0.06190  0.32700  0.16010  Biso   1.000  C
  H11      1.0000 0.01050  0.31820  0.13100  Biso   1.000  H
  C21      1.0000 0.14990  0.32980  0.12850  Biso   1.000  C
  H12      1.0000 0.15690  0.32290  0.07870  Biso   1.000  H
  C22      1.0000 0.46100  0.31300  0.90500  Biso   1.000  C
  H13      1.0000 0.44010  0.28350  0.92990  Biso   1.000  H
  C23      1.0000 0.46600  0.31090  0.82900  Biso   1.000  C
  H14      1.0000 0.44900  0.28080  0.80390  Biso   1.000  H
  C24      1.0000 0.49690  0.35470  0.79100  Biso   1.000  C
  C25      1.0000 0.52110  0.39840  0.83120  Biso   1.000  C
  H15      1.0000 0.54140  0.42850  0.80750  Biso   1.000  H
  C26      1.0000 0.51490  0.39690  0.90720  Biso   1.000  C
  H16      1.0000 0.53270  0.42620  0.93380  Biso   1.000  H
  Co2      1.0000 0.53142  0.35487  0.44273  Biso   1.000  Co
  O9       1.0000 0.42300  0.40880  0.30940  Biso   1.000  O
  O10      1.0000 0.45300  0.42130  0.29800  Biso   1.000  O
  O11      1.0000 0.46070  0.41929  0.42606  Biso   1.000  O
  O12      1.0000 0.07880  0.80080  0.30640  Biso   1.000  O
  O13      1.0000 0.03820  0.78930  0.30100  Biso   1.000  O
  O14      1.0000 0.03250  0.78934  0.42258  Biso   1.000  O
  O15      1.0000 0.60670  0.35746  0.32931  Biso   1.000  O
  O16      1.0000 0.67140  0.34499  0.43414  Biso   1.000  O
  N2       1.0000 0.51560  0.35491  0.55600  Biso   1.000  N
  C27      1.0000 0.42380  0.43400  0.36620  Biso   1.000  C
  C28      1.0000 0.36580  0.48280  0.36750  Biso   1.000  C
  C29      1.0000 0.33090  0.50230  0.30280  Biso   1.000  C
  H17      1.0000 0.34070  0.48430  0.25910  Biso   1.000  H
  C30      1.0000 0.28110  0.54860  0.30220  Biso   1.000  C
  H18      1.0000 0.25960  0.56200  0.25770  Biso   1.000  H
  C31      1.0000 0.26240  0.57550  0.36670  Biso   1.000  C
  C32      1.0000 0.29550  0.55450  0.43230  Biso   1.000  C
  H19      1.0000 0.28280  0.57140  0.47630  Biso   1.000  H
  C33      1.0000 0.34710  0.50870  0.43270  Biso   1.000  C
  H20      1.0000 0.36930  0.49520  0.47680  Biso   1.000  H
  C34      1.0000 0.21090  0.62610  0.36580  Biso   1.000  C
  C35      1.0000 0.21760  0.65950  0.30730  Biso   1.000  C
  H21      1.0000 0.25460  0.65000  0.26730  Biso   1.000  H
  C36      1.0000 0.17120  0.70700  0.30580  Biso   1.000  C
  H22      1.0000 0.17630  0.72850  0.26480  Biso   1.000  H
  C37      1.0000 0.11740  0.72240  0.36480  Biso   1.000  C
  C38      1.0000 0.11650  0.69150  0.42430  Biso   1.000  C
  H23      1.0000 0.08440  0.70240  0.46610  Biso   1.000  H
  C39      1.0000 0.16200  0.64400  0.42490  Biso   1.000  C
  H24      1.0000 0.15910  0.62350  0.46700  Biso   1.000  H
  C40      1.0000 0.06970  0.77400  0.36290  Biso   1.000  C
  C41      1.0000 0.67870  0.34820  0.36540  Biso   1.000  C
  C42      1.0000 0.77160  0.34280  0.32980  Biso   1.000  C
  C43      1.0000 0.78370  0.35100  0.25540  Biso   1.000  C
  H25      1.0000 0.73190  0.35830  0.22580  Biso   1.000  H
  C44      1.0000 0.87310  0.34840  0.22490  Biso   1.000  C
  H26      1.0000 0.88030  0.35470  0.17490  Biso   1.000  H
  C45      1.0000 0.95190  0.33690  0.26630  Biso   1.000  C
  C46      1.0000 0.93810  0.32700  0.33990  Biso   1.000  C
  H27      1.0000 0.98950  0.31820  0.36900  Biso   1.000  H
  C47      1.0000 0.85010  0.32980  0.37150  Biso   1.000  C
  H28      1.0000 0.84310  0.32290  0.42130  Biso   1.000  H
  C48      1.0000 0.53900  0.31300  0.59500  Biso   1.000  C
  H29      1.0000 0.55990  0.28350  0.57010  Biso   1.000  H
  C49      1.0000 0.53400  0.31090  0.67100  Biso   1.000  C
  H30      1.0000 0.55100  0.28080  0.69610  Biso   1.000  H
  C50      1.0000 0.50310  0.35470  0.70900  Biso   1.000  C
  C51      1.0000 0.47890  0.39840  0.66880  Biso   1.000  C
  H31      1.0000 0.45860  0.42850  0.69250  Biso   1.000  H
  C52      1.0000 0.48510  0.39690  0.59280  Biso   1.000  C
  H32      1.0000 0.46730  0.42620  0.56620  Biso   1.000  H
  Co3      1.0000 0.96858  0.85487  0.44273  Biso   1.000  Co
  O17      1.0000 0.07700  0.90880  0.30940  Biso   1.000  O
  O18      1.0000 0.04700  0.92130  0.29800  Biso   1.000  O
  O19      1.0000 0.03930  0.91929  0.42606  Biso   1.000  O
  O20      1.0000 0.42120  0.30080  0.30640  Biso   1.000  O
  O21      1.0000 0.46180  0.28930  0.30100  Biso   1.000  O
  O22      1.0000 0.46750  0.28934  0.42258  Biso   1.000  O
  O23      1.0000 0.89330  0.85746  0.32931  Biso   1.000  O
  O24      1.0000 0.82860  0.84499  0.43414  Biso   1.000  O
  N3       1.0000 0.98440  0.85491  0.55600  Biso   1.000  N
  C53      1.0000 0.07620  0.93400  0.36620  Biso   1.000  C
  C54      1.0000 0.13420  0.98280  0.36750  Biso   1.000  C
  C55      1.0000 0.16910  0.00230  0.30280  Biso   1.000  C
  H33      1.0000 0.15930  0.98430  0.25910  Biso   1.000  H
  C56      1.0000 0.21890  0.04860  0.30220  Biso   1.000  C
  H34      1.0000 0.24040  0.06200  0.25770  Biso   1.000  H
  C57      1.0000 0.23760  0.07550  0.36670  Biso   1.000  C
  C58      1.0000 0.20450  0.05450  0.43230  Biso   1.000  C
  H35      1.0000 0.21720  0.07140  0.47630  Biso   1.000  H
  C59      1.0000 0.15290  0.00870  0.43270  Biso   1.000  C
  H36      1.0000 0.13070  0.99520  0.47680  Biso   1.000  H
  C60      1.0000 0.28910  0.12610  0.36580  Biso   1.000  C
  C61      1.0000 0.28240  0.15950  0.30730  Biso   1.000  C
  H37      1.0000 0.24540  0.15000  0.26730  Biso   1.000  H
  C62      1.0000 0.32880  0.20700  0.30580  Biso   1.000  C
  H38      1.0000 0.32370  0.22850  0.26480  Biso   1.000  H
  C63      1.0000 0.38260  0.22240  0.36480  Biso   1.000  C
  C64      1.0000 0.38350  0.19150  0.42430  Biso   1.000  C
  H39      1.0000 0.41560  0.20240  0.46610  Biso   1.000  H
  C65      1.0000 0.33800  0.14400  0.42490  Biso   1.000  C
  H40      1.0000 0.34090  0.12350  0.46700  Biso   1.000  H
  C66      1.0000 0.43030  0.27400  0.36290  Biso   1.000  C
  C67      1.0000 0.82130  0.84820  0.36540  Biso   1.000  C
  C68      1.0000 0.72840  0.84280  0.32980  Biso   1.000  C
  C69      1.0000 0.71630  0.85100  0.25540  Biso   1.000  C
  H41      1.0000 0.76810  0.85830  0.22580  Biso   1.000  H
  C70      1.0000 0.62690  0.84840  0.22490  Biso   1.000  C
  H42      1.0000 0.61970  0.85470  0.17490  Biso   1.000  H
  C71      1.0000 0.54810  0.83690  0.26630  Biso   1.000  C
  C72      1.0000 0.56190  0.82700  0.33990  Biso   1.000  C
  H43      1.0000 0.51050  0.81820  0.36900  Biso   1.000  H
  C73      1.0000 0.64990  0.82980  0.37150  Biso   1.000  C
  H44      1.0000 0.65690  0.82290  0.42130  Biso   1.000  H
  C74      1.0000 0.96100  0.81300  0.59500  Biso   1.000  C
  H45      1.0000 0.94010  0.78350  0.57010  Biso   1.000  H
  C75      1.0000 0.96600  0.81090  0.67100  Biso   1.000  C
  H46      1.0000 0.94900  0.78080  0.69610  Biso   1.000  H
  C76      1.0000 0.99690  0.85470  0.70900  Biso   1.000  C
  C77      1.0000 0.02110  0.89840  0.66880  Biso   1.000  C
  H47      1.0000 0.04140  0.92850  0.69250  Biso   1.000  H
  C78      1.0000 0.01490  0.89690  0.59280  Biso   1.000  C
  H48      1.0000 0.03270  0.92620  0.56620  Biso   1.000  H
  Co4      1.0000 0.03142  0.85487  0.05727  Biso   1.000  Co
  O25      1.0000 0.92300  0.90880  0.19060  Biso   1.000  O
  O26      1.0000 0.95300  0.92130  0.20200  Biso   1.000  O
  O27      1.0000 0.96070  0.91929  0.07394  Biso   1.000  O
  O28      1.0000 0.57880  0.30080  0.19360  Biso   1.000  O
  O29      1.0000 0.53820  0.28930  0.19900  Biso   1.000  O
  O30      1.0000 0.53250  0.28934  0.07742  Biso   1.000  O
  O31      1.0000 0.10670  0.85746  0.17069  Biso   1.000  O
  O32      1.0000 0.17140  0.84499  0.06586  Biso   1.000  O
  N4       1.0000 0.01560  0.85491  0.94400  Biso   1.000  N
  C79      1.0000 0.92380  0.93400  0.13380  Biso   1.000  C
  C80      1.0000 0.86580  0.98280  0.13250  Biso   1.000  C
  C81      1.0000 0.83090  0.00230  0.19720  Biso   1.000  C
  H49      1.0000 0.84070  0.98430  0.24090  Biso   1.000  H
  C82      1.0000 0.78110  0.04860  0.19780  Biso   1.000  C
  H50      1.0000 0.75960  0.06200  0.24230  Biso   1.000  H
  C83      1.0000 0.76240  0.07550  0.13330  Biso   1.000  C
  C84      1.0000 0.79550  0.05450  0.06770  Biso   1.000  C
  H51      1.0000 0.78280  0.07140  0.02370  Biso   1.000  H
  C85      1.0000 0.84710  0.00870  0.06730  Biso   1.000  C
  H52      1.0000 0.86930  0.99520  0.02320  Biso   1.000  H
  C86      1.0000 0.71090  0.12610  0.13420  Biso   1.000  C
  C87      1.0000 0.71760  0.15950  0.19270  Biso   1.000  C
  H53      1.0000 0.75460  0.15000  0.23270  Biso   1.000  H
  C88      1.0000 0.67120  0.20700  0.19420  Biso   1.000  C
  H54      1.0000 0.67630  0.22850  0.23520  Biso   1.000  H
  C89      1.0000 0.61740  0.22240  0.13520  Biso   1.000  C
  C90      1.0000 0.61650  0.19150  0.07570  Biso   1.000  C
  H55      1.0000 0.58440  0.20240  0.03390  Biso   1.000  H
  C91      1.0000 0.66200  0.14400  0.07510  Biso   1.000  C
  H56      1.0000 0.65910  0.12350  0.03300  Biso   1.000  H
  C92      1.0000 0.56970  0.27400  0.13710  Biso   1.000  C
  C93      1.0000 0.17870  0.84820  0.13460  Biso   1.000  C
  C94      1.0000 0.27160  0.84280  0.17020  Biso   1.000  C
  C95      1.0000 0.28370  0.85100  0.24460  Biso   1.000  C
  H57      1.0000 0.23190  0.85830  0.27420  Biso   1.000  H
  C96      1.0000 0.37310  0.84840  0.27510  Biso   1.000  C
  H58      1.0000 0.38030  0.85470  0.32510  Biso   1.000  H
  C97      1.0000 0.45190  0.83690  0.23370  Biso   1.000  C
  C98      1.0000 0.43810  0.82700  0.16010  Biso   1.000  C
  H59      1.0000 0.48950  0.81820  0.13100  Biso   1.000  H
  C99      1.0000 0.35010  0.82980  0.12850  Biso   1.000  C
  H60      1.0000 0.34310  0.82290  0.07870  Biso   1.000  H
  C100     1.0000 0.03900  0.81300  0.90500  Biso   1.000  C
  H61      1.0000 0.05990  0.78350  0.92990  Biso   1.000  H
  C101     1.0000 0.03400  0.81090  0.82900  Biso   1.000  C
  H62      1.0000 0.05100  0.78080  0.80390  Biso   1.000  H
  C102     1.0000 0.00310  0.85470  0.79100  Biso   1.000  C
  C103     1.0000 0.97890  0.89840  0.83120  Biso   1.000  C
  H63      1.0000 0.95860  0.92850  0.80750  Biso   1.000  H
  C104     1.0000 0.98510  0.89690  0.90720  Biso   1.000  C
  H64      1.0000 0.96730  0.92620  0.93380  Biso   1.000  H
  Co5      1.0000 0.50000  0.35523  0.25000  Biso   1.000  Co
  Co6      1.0000 0.00000  0.85523  0.25000  Biso   1.000  Co
  Co7      1.0000 0.03142  0.14513  0.55727  Biso   1.000  Co
  O33      1.0000 0.92300  0.09120  0.69060  Biso   1.000  O
  O34      1.0000 0.95300  0.07870  0.70200  Biso   1.000  O
  O35      1.0000 0.96070  0.08071  0.57394  Biso   1.000  O
  O36      1.0000 0.57880  0.69920  0.69360  Biso   1.000  O
  O37      1.0000 0.53820  0.71070  0.69900  Biso   1.000  O
  O38      1.0000 0.53250  0.71066  0.57742  Biso   1.000  O
  O39      1.0000 0.10670  0.14254  0.67069  Biso   1.000  O
  O40      1.0000 0.17140  0.15501  0.56586  Biso   1.000  O
  N5       1.0000 0.01560  0.14509  0.44400  Biso   1.000  N
  C105     1.0000 0.92380  0.06600  0.63380  Biso   1.000  C
  C106     1.0000 0.86580  0.01720  0.63250  Biso   1.000  C
  C107     1.0000 0.83090  0.99770  0.69720  Biso   1.000  C
  H65      1.0000 0.84070  0.01570  0.74090  Biso   1.000  H
  C108     1.0000 0.78110  0.95140  0.69780  Biso   1.000  C
  H66      1.0000 0.75960  0.93800  0.74230  Biso   1.000  H
  C109     1.0000 0.76240  0.92450  0.63330  Biso   1.000  C
  C110     1.0000 0.79550  0.94550  0.56770  Biso   1.000  C
  H67      1.0000 0.78280  0.92860  0.52370  Biso   1.000  H
  C111     1.0000 0.84710  0.99130  0.56730  Biso   1.000  C
  H68      1.0000 0.86930  0.00480  0.52320  Biso   1.000  H
  C112     1.0000 0.71090  0.87390  0.63420  Biso   1.000  C
  C113     1.0000 0.71760  0.84050  0.69270  Biso   1.000  C
  H69      1.0000 0.75460  0.85000  0.73270  Biso   1.000  H
  C114     1.0000 0.67120  0.79300  0.69420  Biso   1.000  C
  H70      1.0000 0.67630  0.77150  0.73520  Biso   1.000  H
  C115     1.0000 0.61740  0.77760  0.63520  Biso   1.000  C
  C116     1.0000 0.61650  0.80850  0.57570  Biso   1.000  C
  H71      1.0000 0.58440  0.79760  0.53390  Biso   1.000  H
  C117     1.0000 0.66200  0.85600  0.57510  Biso   1.000  C
  H72      1.0000 0.65910  0.87650  0.53300  Biso   1.000  H
  C118     1.0000 0.56970  0.72600  0.63710  Biso   1.000  C
  C119     1.0000 0.17870  0.15180  0.63460  Biso   1.000  C
  C120     1.0000 0.27160  0.15720  0.67020  Biso   1.000  C
  C121     1.0000 0.28370  0.14900  0.74460  Biso   1.000  C
  H73      1.0000 0.23190  0.14170  0.77420  Biso   1.000  H
  C122     1.0000 0.37310  0.15160  0.77510  Biso   1.000  C
  H74      1.0000 0.38030  0.14530  0.82510  Biso   1.000  H
  C123     1.0000 0.45190  0.16310  0.73370  Biso   1.000  C
  C124     1.0000 0.43810  0.17300  0.66010  Biso   1.000  C
  H75      1.0000 0.48950  0.18180  0.63100  Biso   1.000  H
  C125     1.0000 0.35010  0.17020  0.62850  Biso   1.000  C
  H76      1.0000 0.34310  0.17710  0.57870  Biso   1.000  H
  C126     1.0000 0.03900  0.18700  0.40500  Biso   1.000  C
  H77      1.0000 0.05990  0.21650  0.42990  Biso   1.000  H
  C127     1.0000 0.03400  0.18910  0.32900  Biso   1.000  C
  H78      1.0000 0.05100  0.21920  0.30390  Biso   1.000  H
  C128     1.0000 0.00310  0.14530  0.29100  Biso   1.000  C
  C129     1.0000 0.97890  0.10160  0.33120  Biso   1.000  C
  H79      1.0000 0.95860  0.07150  0.30750  Biso   1.000  H
  C130     1.0000 0.98510  0.10310  0.40720  Biso   1.000  C
  H80      1.0000 0.96730  0.07380  0.43380  Biso   1.000  H
  Co8      1.0000 0.96858  0.14513  0.94273  Biso   1.000  Co
  O41      1.0000 0.07700  0.09120  0.80940  Biso   1.000  O
  O42      1.0000 0.04700  0.07870  0.79800  Biso   1.000  O
  O43      1.0000 0.03930  0.08071  0.92606  Biso   1.000  O
  O44      1.0000 0.42120  0.69920  0.80640  Biso   1.000  O
  O45      1.0000 0.46180  0.71070  0.80100  Biso   1.000  O
  O46      1.0000 0.46750  0.71066  0.92258  Biso   1.000  O
  O47      1.0000 0.89330  0.14254  0.82931  Biso   1.000  O
  O48      1.0000 0.82860  0.15501  0.93414  Biso   1.000  O
  N6       1.0000 0.98440  0.14509  0.05600  Biso   1.000  N
  C131     1.0000 0.07620  0.06600  0.86620  Biso   1.000  C
  C132     1.0000 0.13420  0.01720  0.86750  Biso   1.000  C
  C133     1.0000 0.16910  0.99770  0.80280  Biso   1.000  C
  H81      1.0000 0.15930  0.01570  0.75910  Biso   1.000  H
  C134     1.0000 0.21890  0.95140  0.80220  Biso   1.000  C
  H82      1.0000 0.24040  0.93800  0.75770  Biso   1.000  H
  C135     1.0000 0.23760  0.92450  0.86670  Biso   1.000  C
  C136     1.0000 0.20450  0.94550  0.93230  Biso   1.000  C
  H83      1.0000 0.21720  0.92860  0.97630  Biso   1.000  H
  C137     1.0000 0.15290  0.99130  0.93270  Biso   1.000  C
  H84      1.0000 0.13070  0.00480  0.97680  Biso   1.000  H
  C138     1.0000 0.28910  0.87390  0.86580  Biso   1.000  C
  C139     1.0000 0.28240  0.84050  0.80730  Biso   1.000  C
  H85      1.0000 0.24540  0.85000  0.76730  Biso   1.000  H
  C140     1.0000 0.32880  0.79300  0.80580  Biso   1.000  C
  H86      1.0000 0.32370  0.77150  0.76480  Biso   1.000  H
  C141     1.0000 0.38260  0.77760  0.86480  Biso   1.000  C
  C142     1.0000 0.38350  0.80850  0.92430  Biso   1.000  C
  H87      1.0000 0.41560  0.79760  0.96610  Biso   1.000  H
  C143     1.0000 0.33800  0.85600  0.92490  Biso   1.000  C
  H88      1.0000 0.34090  0.87650  0.96700  Biso   1.000  H
  C144     1.0000 0.43030  0.72600  0.86290  Biso   1.000  C
  C145     1.0000 0.82130  0.15180  0.86540  Biso   1.000  C
  C146     1.0000 0.72840  0.15720  0.82980  Biso   1.000  C
  C147     1.0000 0.71630  0.14900  0.75540  Biso   1.000  C
  H89      1.0000 0.76810  0.14170  0.72580  Biso   1.000  H
  C148     1.0000 0.62690  0.15160  0.72490  Biso   1.000  C
  H90      1.0000 0.61970  0.14530  0.67490  Biso   1.000  H
  C149     1.0000 0.54810  0.16310  0.76630  Biso   1.000  C
  C150     1.0000 0.56190  0.17300  0.83990  Biso   1.000  C
  H91      1.0000 0.51050  0.18180  0.86900  Biso   1.000  H
  C151     1.0000 0.64990  0.17020  0.87150  Biso   1.000  C
  H92      1.0000 0.65690  0.17710  0.92130  Biso   1.000  H
  C152     1.0000 0.96100  0.18700  0.09500  Biso   1.000  C
  H93      1.0000 0.94010  0.21650  0.07010  Biso   1.000  H
  C153     1.0000 0.96600  0.18910  0.17100  Biso   1.000  C
  H94      1.0000 0.94900  0.21920  0.19610  Biso   1.000  H
  C154     1.0000 0.99690  0.14530  0.20900  Biso   1.000  C
  C155     1.0000 0.02110  0.10160  0.16880  Biso   1.000  C
  H95      1.0000 0.04140  0.07150  0.19250  Biso   1.000  H
  C156     1.0000 0.01490  0.10310  0.09280  Biso   1.000  C
  H96      1.0000 0.03270  0.07380  0.06620  Biso   1.000  H
  Co9      1.0000 0.53142  0.64513  0.94273  Biso   1.000  Co
  O49      1.0000 0.42300  0.59120  0.80940  Biso   1.000  O
  O50      1.0000 0.45300  0.57870  0.79800  Biso   1.000  O
  O51      1.0000 0.46070  0.58071  0.92606  Biso   1.000  O
  O52      1.0000 0.07880  0.19920  0.80640  Biso   1.000  O
  O53      1.0000 0.03820  0.21070  0.80100  Biso   1.000  O
  O54      1.0000 0.03250  0.21066  0.92258  Biso   1.000  O
  O55      1.0000 0.60670  0.64254  0.82931  Biso   1.000  O
  O56      1.0000 0.67140  0.65501  0.93414  Biso   1.000  O
  N7       1.0000 0.51560  0.64509  0.05600  Biso   1.000  N
  C157     1.0000 0.42380  0.56600  0.86620  Biso   1.000  C
  C158     1.0000 0.36580  0.51720  0.86750  Biso   1.000  C
  C159     1.0000 0.33090  0.49770  0.80280  Biso   1.000  C
  H97      1.0000 0.34070  0.51570  0.75910  Biso   1.000  H
  C160     1.0000 0.28110  0.45140  0.80220  Biso   1.000  C
  H98      1.0000 0.25960  0.43800  0.75770  Biso   1.000  H
  C161     1.0000 0.26240  0.42450  0.86670  Biso   1.000  C
  C162     1.0000 0.29550  0.44550  0.93230  Biso   1.000  C
  H99      1.0000 0.28280  0.42860  0.97630  Biso   1.000  H
  C163     1.0000 0.34710  0.49130  0.93270  Biso   1.000  C
  H100     1.0000 0.36930  0.50480  0.97680  Biso   1.000  H
  C164     1.0000 0.21090  0.37390  0.86580  Biso   1.000  C
  C165     1.0000 0.21760  0.34050  0.80730  Biso   1.000  C
  H101     1.0000 0.25460  0.35000  0.76730  Biso   1.000  H
  C166     1.0000 0.17120  0.29300  0.80580  Biso   1.000  C
  H102     1.0000 0.17630  0.27150  0.76480  Biso   1.000  H
  C167     1.0000 0.11740  0.27760  0.86480  Biso   1.000  C
  C168     1.0000 0.11650  0.30850  0.92430  Biso   1.000  C
  H103     1.0000 0.08440  0.29760  0.96610  Biso   1.000  H
  C169     1.0000 0.16200  0.35600  0.92490  Biso   1.000  C
  H104     1.0000 0.15910  0.37650  0.96700  Biso   1.000  H
  C170     1.0000 0.06970  0.22600  0.86290  Biso   1.000  C
  C171     1.0000 0.67870  0.65180  0.86540  Biso   1.000  C
  C172     1.0000 0.77160  0.65720  0.82980  Biso   1.000  C
  C173     1.0000 0.78370  0.64900  0.75540  Biso   1.000  C
  H105     1.0000 0.73190  0.64170  0.72580  Biso   1.000  H
  C174     1.0000 0.87310  0.65160  0.72490  Biso   1.000  C
  H106     1.0000 0.88030  0.64530  0.67490  Biso   1.000  H
  C175     1.0000 0.95190  0.66310  0.76630  Biso   1.000  C
  C176     1.0000 0.93810  0.67300  0.83990  Biso   1.000  C
  H107     1.0000 0.98950  0.68180  0.86900  Biso   1.000  H
  C177     1.0000 0.85010  0.67020  0.87150  Biso   1.000  C
  H108     1.0000 0.84310  0.67710  0.92130  Biso   1.000  H
  C178     1.0000 0.53900  0.68700  0.09500  Biso   1.000  C
  H109     1.0000 0.55990  0.71650  0.07010  Biso   1.000  H
  C179     1.0000 0.53400  0.68910  0.17100  Biso   1.000  C
  H110     1.0000 0.55100  0.71920  0.19610  Biso   1.000  H
  C180     1.0000 0.50310  0.64530  0.20900  Biso   1.000  C
  C181     1.0000 0.47890  0.60160  0.16880  Biso   1.000  C
  H111     1.0000 0.45860  0.57150  0.19250  Biso   1.000  H
  C182     1.0000 0.48510  0.60310  0.09280  Biso   1.000  C
  H112     1.0000 0.46730  0.57380  0.06620  Biso   1.000  H
  Co10     1.0000 0.46858  0.64513  0.55727  Biso   1.000  Co
  O57      1.0000 0.57700  0.59120  0.69060  Biso   1.000  O
  O58      1.0000 0.54700  0.57870  0.70200  Biso   1.000  O
  O59      1.0000 0.53930  0.58071  0.57394  Biso   1.000  O
  O60      1.0000 0.92120  0.19920  0.69360  Biso   1.000  O
  O61      1.0000 0.96180  0.21070  0.69900  Biso   1.000  O
  O62      1.0000 0.96750  0.21066  0.57742  Biso   1.000  O
  O63      1.0000 0.39330  0.64254  0.67069  Biso   1.000  O
  O64      1.0000 0.32860  0.65501  0.56586  Biso   1.000  O
  N8       1.0000 0.48440  0.64509  0.44400  Biso   1.000  N
  C183     1.0000 0.57620  0.56600  0.63380  Biso   1.000  C
  C184     1.0000 0.63420  0.51720  0.63250  Biso   1.000  C
  C185     1.0000 0.66910  0.49770  0.69720  Biso   1.000  C
  H113     1.0000 0.65930  0.51570  0.74090  Biso   1.000  H
  C186     1.0000 0.71890  0.45140  0.69780  Biso   1.000  C
  H114     1.0000 0.74040  0.43800  0.74230  Biso   1.000  H
  C187     1.0000 0.73760  0.42450  0.63330  Biso   1.000  C
  C188     1.0000 0.70450  0.44550  0.56770  Biso   1.000  C
  H115     1.0000 0.71720  0.42860  0.52370  Biso   1.000  H
  C189     1.0000 0.65290  0.49130  0.56730  Biso   1.000  C
  H116     1.0000 0.63070  0.50480  0.52320  Biso   1.000  H
  C190     1.0000 0.78910  0.37390  0.63420  Biso   1.000  C
  C191     1.0000 0.78240  0.34050  0.69270  Biso   1.000  C
  H117     1.0000 0.74540  0.35000  0.73270  Biso   1.000  H
  C192     1.0000 0.82880  0.29300  0.69420  Biso   1.000  C
  H118     1.0000 0.82370  0.27150  0.73520  Biso   1.000  H
  C193     1.0000 0.88260  0.27760  0.63520  Biso   1.000  C
  C194     1.0000 0.88350  0.30850  0.57570  Biso   1.000  C
  H119     1.0000 0.91560  0.29760  0.53390  Biso   1.000  H
  C195     1.0000 0.83800  0.35600  0.57510  Biso   1.000  C
  H120     1.0000 0.84090  0.37650  0.53300  Biso   1.000  H
  C196     1.0000 0.93030  0.22600  0.63710  Biso   1.000  C
  C197     1.0000 0.32130  0.65180  0.63460  Biso   1.000  C
  C198     1.0000 0.22840  0.65720  0.67020  Biso   1.000  C
  C199     1.0000 0.21630  0.64900  0.74460  Biso   1.000  C
  H121     1.0000 0.26810  0.64170  0.77420  Biso   1.000  H
  C200     1.0000 0.12690  0.65160  0.77510  Biso   1.000  C
  H122     1.0000 0.11970  0.64530  0.82510  Biso   1.000  H
  C201     1.0000 0.04810  0.66310  0.73370  Biso   1.000  C
  C202     1.0000 0.06190  0.67300  0.66010  Biso   1.000  C
  H123     1.0000 0.01050  0.68180  0.63100  Biso   1.000  H
  C203     1.0000 0.14990  0.67020  0.62850  Biso   1.000  C
  H124     1.0000 0.15690  0.67710  0.57870  Biso   1.000  H
  C204     1.0000 0.46100  0.68700  0.40500  Biso   1.000  C
  H125     1.0000 0.44010  0.71650  0.42990  Biso   1.000  H
  C205     1.0000 0.46600  0.68910  0.32900  Biso   1.000  C
  H126     1.0000 0.44900  0.71920  0.30390  Biso   1.000  H
  C206     1.0000 0.49690  0.64530  0.29100  Biso   1.000  C
  C207     1.0000 0.52110  0.60160  0.33120  Biso   1.000  C
  H127     1.0000 0.54140  0.57150  0.30750  Biso   1.000  H
  C208     1.0000 0.51490  0.60310  0.40720  Biso   1.000  C
  H128     1.0000 0.53270  0.57380  0.43380  Biso   1.000  H
  Co11     1.0000 0.00000  0.14477  0.75000  Biso   1.000  Co
  Co12     1.0000 0.50000  0.64477  0.75000  Biso   1.000  Co
