data_image0
_cell_length_a       6.654
_cell_length_b       8.939
_cell_length_c       11.505
_cell_angle_alpha    94.2
_cell_angle_beta     90.57
_cell_angle_gamma    107.12

_symmetry_space_group_name_H-M    "P 1"
_symmetry_int_tables_number       1

loop_
  _symmetry_equiv_pos_as_xyz
  'x, y, z'

loop_
  _atom_site_label
  _atom_site_occupancy
  _atom_site_fract_x
  _atom_site_fract_y
  _atom_site_fract_z
  _atom_site_thermal_displace_type
  _atom_site_B_iso_or_equiv
  _atom_site_type_symbol
  Zr1      1.0000 0.16896  0.27749  0.90169  Biso   1.000  Zr
  Zr2      1.0000 0.77480  0.55838  0.64844  Biso   1.000  Zr
  P1       1.0000 0.70970  0.38320  0.91433  Biso   1.000  P
  P2       1.0000 0.23410  0.45580  0.63912  Biso   1.000  P
  P3       1.0000 0.85990  0.90210  0.82960  Biso   1.000  P
  P4       1.0000 0.00610  0.12760  0.16430  Biso   1.000  P
  F1       1.0000 0.68100  0.33770  0.57930  Biso   1.000  F
  O1       1.0000 0.48100  0.28010  0.90140  Biso   1.000  O
  O2       1.0000 0.74410  0.49370  0.02680  Biso   1.000  O
  O3       1.0000 0.85080  0.27380  0.91900  Biso   1.000  O
  O4       1.0000 0.76620  0.48150  0.81040  Biso   1.000  O
  O5       1.0000 0.20620  0.36420  0.51870  Biso   1.000  O
  O6       1.0000 0.46250  0.56010  0.65700  Biso   1.000  O
  O7       1.0000 0.08900  0.56260  0.64450  Biso   1.000  O
  O8       1.0000 0.18170  0.34140  0.73370  Biso   1.000  O
  O9       1.0000 0.05720  0.04520  0.83060  Biso   1.000  O
  O10      1.0000 0.85230  0.81410  0.93630  Biso   1.000  O
  O11      1.0000 0.87010  0.79290  0.71820  Biso   1.000  O
  O12      1.0000 0.66500  0.96740  0.81880  Biso   1.000  O
  O13      1.0000 0.78990  0.16840  0.14940  Biso   1.000  O
  Zr3      1.0000 0.83104  0.72251  0.09831  Biso   1.000  Zr
  Zr4      1.0000 0.22520  0.44162  0.35156  Biso   1.000  Zr
  P5       1.0000 0.29030  0.61680  0.08567  Biso   1.000  P
  P6       1.0000 0.76590  0.54420  0.36088  Biso   1.000  P
  P7       1.0000 0.14010  0.09790  0.17040  Biso   1.000  P
  P8       1.0000 0.99390  0.87240  0.83570  Biso   1.000  P
  F2       1.0000 0.31900  0.66230  0.42070  Biso   1.000  F
  O14      1.0000 0.51900  0.71990  0.09860  Biso   1.000  O
  O15      1.0000 0.25590  0.50630  0.97320  Biso   1.000  O
  O16      1.0000 0.14920  0.72620  0.08100  Biso   1.000  O
  O17      1.0000 0.23380  0.51850  0.18960  Biso   1.000  O
  O18      1.0000 0.79380  0.63580  0.48130  Biso   1.000  O
  O19      1.0000 0.53750  0.43990  0.34300  Biso   1.000  O
  O20      1.0000 0.91100  0.43740  0.35550  Biso   1.000  O
  O21      1.0000 0.81830  0.65860  0.26630  Biso   1.000  O
  O22      1.0000 0.94280  0.95480  0.16940  Biso   1.000  O
  O23      1.0000 0.14770  0.18590  0.06370  Biso   1.000  O
  O24      1.0000 0.12990  0.20710  0.28180  Biso   1.000  O
  O25      1.0000 0.33500  0.03260  0.18120  Biso   1.000  O
  O26      1.0000 0.21010  0.83160  0.85060  Biso   1.000  O
