data_image0
_cell_length_a       11.539
_cell_length_b       6.637
_cell_length_c       17.092
_cell_angle_alpha    90
_cell_angle_beta     94.95
_cell_angle_gamma    90

_symmetry_space_group_name_H-M    "P 1"
_symmetry_int_tables_number       1

loop_
  _symmetry_equiv_pos_as_xyz
  'x, y, z'

loop_
  _atom_site_label
  _atom_site_occupancy
  _atom_site_fract_x
  _atom_site_fract_y
  _atom_site_fract_z
  _atom_site_thermal_displace_type
  _atom_site_B_iso_or_equiv
  _atom_site_type_symbol
  Zr1      1.0000 0.40222  0.06899  0.13890  Biso   1.000  Zr
  Zr2      1.0000 0.14851  0.57049  0.27945  Biso   1.000  Zr
  P1       1.0000 0.13999  0.06950  0.22857  Biso   1.000  P
  P2       1.0000 0.41349  0.56610  0.19103  Biso   1.000  P
  P3       1.0000 0.66911  0.09670  0.04922  Biso   1.000  P
  P4       1.0000 0.66960  0.95620  0.06500  Biso   1.000  P
  F1       1.0000 0.07840  0.56960  0.16831  Biso   1.000  F
  O1       1.0000 0.15320  0.25840  0.28110  Biso   1.000  O
  O2       1.0000 0.01930  0.07050  0.18230  Biso   1.000  O
  O3       1.0000 0.23460  0.06780  0.17080  Biso   1.000  O
  O4       1.0000 0.15120  0.88220  0.28210  Biso   1.000  O
  O5       1.0000 0.41050  0.75180  0.13650  Biso   1.000  O
  O6       1.0000 0.52630  0.56240  0.24590  Biso   1.000  O
  O7       1.0000 0.31000  0.57170  0.24040  Biso   1.000  O
  O8       1.0000 0.40520  0.37750  0.13790  Biso   1.000  O
  O9       1.0000 0.56440  0.06950  0.09490  Biso   1.000  O
  O10      1.0000 0.66780  0.95330  0.97890  Biso   1.000  O
  O11      1.0000 0.78240  0.07130  0.10200  Biso   1.000  O
  O12      1.0000 0.67190  0.32150  0.01730  Biso   1.000  O
  O13      1.0000 0.66710  0.71500  0.07060  Biso   1.000  O
  Zr3      1.0000 0.59778  0.56899  0.36110  Biso   1.000  Zr
  Zr4      1.0000 0.85149  0.07049  0.22055  Biso   1.000  Zr
  P5       1.0000 0.86001  0.56950  0.27143  Biso   1.000  P
  P6       1.0000 0.58651  0.06610  0.30897  Biso   1.000  P
  P7       1.0000 0.33089  0.59670  0.45078  Biso   1.000  P
  P8       1.0000 0.33040  0.45620  0.43500  Biso   1.000  P
  F2       1.0000 0.92160  0.06960  0.33169  Biso   1.000  F
  O14      1.0000 0.84680  0.75840  0.21890  Biso   1.000  O
  O15      1.0000 0.98070  0.57050  0.31770  Biso   1.000  O
  O16      1.0000 0.76540  0.56780  0.32920  Biso   1.000  O
  O17      1.0000 0.84880  0.38220  0.21790  Biso   1.000  O
  O18      1.0000 0.58950  0.25180  0.36350  Biso   1.000  O
  O19      1.0000 0.47370  0.06240  0.25410  Biso   1.000  O
  O20      1.0000 0.69000  0.07170  0.25960  Biso   1.000  O
  O21      1.0000 0.59480  0.87750  0.36210  Biso   1.000  O
  O22      1.0000 0.43560  0.56950  0.40510  Biso   1.000  O
  O23      1.0000 0.33220  0.45330  0.52110  Biso   1.000  O
  O24      1.0000 0.21760  0.57130  0.39800  Biso   1.000  O
  O25      1.0000 0.32810  0.82150  0.48270  Biso   1.000  O
  O26      1.0000 0.33290  0.21500  0.42940  Biso   1.000  O
  Zr5      1.0000 0.59778  0.93101  0.86110  Biso   1.000  Zr
  Zr6      1.0000 0.85149  0.42951  0.72055  Biso   1.000  Zr
  P9       1.0000 0.86001  0.93050  0.77143  Biso   1.000  P
  P10      1.0000 0.58651  0.43390  0.80897  Biso   1.000  P
  P11      1.0000 0.33089  0.90330  0.95078  Biso   1.000  P
  P12      1.0000 0.33040  0.04380  0.93500  Biso   1.000  P
  F3       1.0000 0.92160  0.43040  0.83169  Biso   1.000  F
  O27      1.0000 0.84680  0.74160  0.71890  Biso   1.000  O
  O28      1.0000 0.98070  0.92950  0.81770  Biso   1.000  O
  O29      1.0000 0.76540  0.93220  0.82920  Biso   1.000  O
  O30      1.0000 0.84880  0.11780  0.71790  Biso   1.000  O
  O31      1.0000 0.58950  0.24820  0.86350  Biso   1.000  O
  O32      1.0000 0.47370  0.43760  0.75410  Biso   1.000  O
  O33      1.0000 0.69000  0.42830  0.75960  Biso   1.000  O
  O34      1.0000 0.59480  0.62250  0.86210  Biso   1.000  O
  O35      1.0000 0.43560  0.93050  0.90510  Biso   1.000  O
  O36      1.0000 0.33220  0.04670  0.02110  Biso   1.000  O
  O37      1.0000 0.21760  0.92870  0.89800  Biso   1.000  O
  O38      1.0000 0.32810  0.67850  0.98270  Biso   1.000  O
  O39      1.0000 0.33290  0.28500  0.92940  Biso   1.000  O
  Zr7      1.0000 0.40222  0.43101  0.63890  Biso   1.000  Zr
  Zr8      1.0000 0.14851  0.92951  0.77945  Biso   1.000  Zr
  P13      1.0000 0.13999  0.43050  0.72857  Biso   1.000  P
  P14      1.0000 0.41349  0.93390  0.69103  Biso   1.000  P
  P15      1.0000 0.66911  0.40330  0.54922  Biso   1.000  P
  P16      1.0000 0.66960  0.54380  0.56500  Biso   1.000  P
  F4       1.0000 0.07840  0.93040  0.66831  Biso   1.000  F
  O40      1.0000 0.15320  0.24160  0.78110  Biso   1.000  O
  O41      1.0000 0.01930  0.42950  0.68230  Biso   1.000  O
  O42      1.0000 0.23460  0.43220  0.67080  Biso   1.000  O
  O43      1.0000 0.15120  0.61780  0.78210  Biso   1.000  O
  O44      1.0000 0.41050  0.74820  0.63650  Biso   1.000  O
  O45      1.0000 0.52630  0.93760  0.74590  Biso   1.000  O
  O46      1.0000 0.31000  0.92830  0.74040  Biso   1.000  O
  O47      1.0000 0.40520  0.12250  0.63790  Biso   1.000  O
  O48      1.0000 0.56440  0.43050  0.59490  Biso   1.000  O
  O49      1.0000 0.66780  0.54670  0.47890  Biso   1.000  O
  O50      1.0000 0.78240  0.42870  0.60200  Biso   1.000  O
  O51      1.0000 0.67190  0.17850  0.51730  Biso   1.000  O
  O52      1.0000 0.66710  0.78500  0.57060  Biso   1.000  O
