data_image0
_cell_length_a       11.8894
_cell_length_b       5.2299
_cell_length_c       17.4663
_cell_angle_alpha    90
_cell_angle_beta     97.279
_cell_angle_gamma    90

_symmetry_space_group_name_H-M    "P 1"
_symmetry_int_tables_number       1

loop_
  _symmetry_equiv_pos_as_xyz
  'x, y, z'

loop_
  _atom_site_label
  _atom_site_occupancy
  _atom_site_fract_x
  _atom_site_fract_y
  _atom_site_fract_z
  _atom_site_thermal_displace_type
  _atom_site_B_iso_or_equiv
  _atom_site_type_symbol
  Na1      1.0000 0.58991  0.89880  0.03331  Biso   1.000  Na
  Na2      1.0000 0.32142  0.93200  0.09161  Biso   1.000  Na
  Na3      1.0000 0.10692  0.36480  0.95889  Biso   1.000  Na
  Na4      1.0000 0.14741  0.97240  0.24034  Biso   1.000  Na
  O1       1.0000 0.46920  0.62090  0.09643  Biso   1.000  O
  O2       1.0000 0.25130  0.67750  0.96075  Biso   1.000  O
  O3       1.0000 0.26390  0.09950  0.96916  Biso   1.000  O
  O4       1.0000 0.20750  0.66260  0.16074  Biso   1.000  O
  O5       1.0000 0.48980  0.20010  0.09105  Biso   1.000  O
  O6       1.0000 0.33060  0.93840  0.33557  Biso   1.000  O
  O7       1.0000 0.02190  0.50010  0.06690  Biso   1.000  O
  H1       1.0000 0.01540  0.36380  0.09250  Biso   1.000  H
  H2       1.0000 0.08530  0.54500  0.09120  Biso   1.000  H
  O8       1.0000 0.25190  0.24730  0.17204  Biso   1.000  O
  O9       1.0000 0.03330  0.55210  0.84599  Biso   1.000  O
  O10      1.0000 0.27310  0.30010  0.70152  Biso   1.000  O
  O11      1.0000 0.01160  0.71070  0.72686  Biso   1.000  O
  N1       1.0000 0.36890  0.51800  0.31861  Biso   1.000  N
  H3       1.0000 0.37750  0.36560  0.33990  Biso   1.000  H
  N2       1.0000 0.24050  0.72210  0.71953  Biso   1.000  N
  H4       1.0000 0.24560  0.87760  0.70110  Biso   1.000  H
  C1       1.0000 0.48110  0.40390  0.12739  Biso   1.000  C
  C2       1.0000 0.27080  0.47750  0.18570  Biso   1.000  C
  C3       1.0000 0.24830  0.89460  0.93110  Biso   1.000  C
  C4       1.0000 0.26910  0.52350  0.67770  Biso   1.000  C
  C5       1.0000 0.48020  0.38840  0.21520  Biso   1.000  C
  H5       1.0000 0.47100  0.20840  0.23090  Biso   1.000  H
  H6       1.0000 0.55280  0.45330  0.24220  Biso   1.000  H
  C6       1.0000 0.34370  0.71780  0.36150  Biso   1.000  C
  C7       1.0000 0.38210  0.54920  0.23700  Biso   1.000  C
  H7       1.0000 0.39910  0.73300  0.22770  Biso   1.000  H
  C8       1.0000 0.20120  0.68920  0.79500  Biso   1.000  C
  H8       1.0000 0.24080  0.53930  0.82190  Biso   1.000  H
  C9       1.0000 0.22840  0.92930  0.84370  Biso   1.000  C
  H9       1.0000 0.29700  0.00910  0.82730  Biso   1.000  H
  H10      1.0000 0.16510  0.05150  0.83150  Biso   1.000  H
  C10      1.0000 0.33270  0.66510  0.44480  Biso   1.000  C
  C11      1.0000 0.38260  0.45860  0.48610  Biso   1.000  C
  H11      1.0000 0.42960  0.34400  0.46240  Biso   1.000  H
  C12      1.0000 0.36360  0.41960  0.56210  Biso   1.000  C
  H12      1.0000 0.39820  0.27820  0.59000  Biso   1.000  H
  C13      1.0000 0.29500  0.58340  0.59790  Biso   1.000  C
  C14      1.0000 0.24780  0.79740  0.55750  Biso   1.000  C
  H13      1.0000 0.20280  0.91470  0.58190  Biso   1.000  H
  C15      1.0000 0.26710  0.83780  0.48150  Biso   1.000  C
  H14      1.0000 0.23540  0.98350  0.45420  Biso   1.000  H
  C16      1.0000 0.07190  0.64510  0.78720  Biso   1.000  C
  C17      1.0000 0.26950  0.45300  0.46350  Biso   1.000  C
  H15      1.0000 0.23940  0.33700  0.42430  Biso   1.000  H
  C18      1.0000 0.25100  0.41300  0.54000  Biso   1.000  C
  H16      1.0000 0.20790  0.26880  0.55280  Biso   1.000  H
  C19      1.0000 0.35800  0.79400  0.57930  Biso   1.000  C
  H17      1.0000 0.38780  0.91040  0.61850  Biso   1.000  H
  C20      1.0000 0.37700  0.83400  0.50280  Biso   1.000  C
  H18      1.0000 0.41960  0.97780  0.49020  Biso   1.000  H
  Na5      1.0000 0.41009  0.39880  0.96669  Biso   1.000  Na
  Na6      1.0000 0.67858  0.43200  0.90839  Biso   1.000  Na
  Na7      1.0000 0.89308  0.86480  0.04111  Biso   1.000  Na
  Na8      1.0000 0.85259  0.47240  0.75966  Biso   1.000  Na
  O12      1.0000 0.53080  0.12090  0.90357  Biso   1.000  O
  O13      1.0000 0.74870  0.17750  0.03925  Biso   1.000  O
  O14      1.0000 0.73610  0.59950  0.03084  Biso   1.000  O
  O15      1.0000 0.79250  0.16260  0.83926  Biso   1.000  O
  O16      1.0000 0.51020  0.70010  0.90895  Biso   1.000  O
  O17      1.0000 0.66940  0.43840  0.66443  Biso   1.000  O
  O18      1.0000 0.97810  0.00010  0.93310  Biso   1.000  O
  H19      1.0000 0.98460  0.86380  0.90750  Biso   1.000  H
  H20      1.0000 0.91470  0.04500  0.90880  Biso   1.000  H
  O19      1.0000 0.74810  0.74730  0.82796  Biso   1.000  O
  O20      1.0000 0.96670  0.05210  0.15401  Biso   1.000  O
  O21      1.0000 0.72690  0.80010  0.29848  Biso   1.000  O
  O22      1.0000 0.98840  0.21070  0.27314  Biso   1.000  O
  N3       1.0000 0.63110  0.01800  0.68139  Biso   1.000  N
  H21      1.0000 0.62250  0.86560  0.66010  Biso   1.000  H
  N4       1.0000 0.75950  0.22210  0.28047  Biso   1.000  N
  H22      1.0000 0.75440  0.37760  0.29890  Biso   1.000  H
  C21      1.0000 0.51890  0.90390  0.87261  Biso   1.000  C
  C22      1.0000 0.72920  0.97750  0.81430  Biso   1.000  C
  C23      1.0000 0.75170  0.39460  0.06890  Biso   1.000  C
  C24      1.0000 0.73090  0.02350  0.32230  Biso   1.000  C
  C25      1.0000 0.51980  0.88840  0.78480  Biso   1.000  C
  H23      1.0000 0.52900  0.70840  0.76910  Biso   1.000  H
  H24      1.0000 0.44720  0.95330  0.75780  Biso   1.000  H
  C26      1.0000 0.65630  0.21780  0.63850  Biso   1.000  C
  C27      1.0000 0.61790  0.04920  0.76300  Biso   1.000  C
  H25      1.0000 0.60090  0.23300  0.77230  Biso   1.000  H
  C28      1.0000 0.79880  0.18920  0.20500  Biso   1.000  C
  H26      1.0000 0.75920  0.03930  0.17810  Biso   1.000  H
  C29      1.0000 0.77160  0.42930  0.15630  Biso   1.000  C
  H27      1.0000 0.70300  0.50910  0.17270  Biso   1.000  H
  H28      1.0000 0.83490  0.55150  0.16850  Biso   1.000  H
  C30      1.0000 0.66730  0.16510  0.55520  Biso   1.000  C
  C31      1.0000 0.61740  0.95860  0.51390  Biso   1.000  C
  H29      1.0000 0.57040  0.84400  0.53760  Biso   1.000  H
  C32      1.0000 0.63640  0.91960  0.43790  Biso   1.000  C
  H30      1.0000 0.60180  0.77820  0.41000  Biso   1.000  H
  C33      1.0000 0.70500  0.08340  0.40210  Biso   1.000  C
  C34      1.0000 0.75220  0.29740  0.44250  Biso   1.000  C
  H31      1.0000 0.79720  0.41470  0.41810  Biso   1.000  H
  C35      1.0000 0.73290  0.33780  0.51850  Biso   1.000  C
  H32      1.0000 0.76460  0.48350  0.54580  Biso   1.000  H
  C36      1.0000 0.92810  0.14510  0.21280  Biso   1.000  C
  C37      1.0000 0.73050  0.95300  0.53650  Biso   1.000  C
  H33      1.0000 0.76060  0.83700  0.57570  Biso   1.000  H
  C38      1.0000 0.74900  0.91300  0.46000  Biso   1.000  C
  H34      1.0000 0.79210  0.76880  0.44720  Biso   1.000  H
  C39      1.0000 0.64200  0.29400  0.42070  Biso   1.000  C
  H35      1.0000 0.61220  0.41040  0.38150  Biso   1.000  H
  C40      1.0000 0.62300  0.33400  0.49720  Biso   1.000  C
  H36      1.0000 0.58040  0.47780  0.50980  Biso   1.000  H
