data_image0
_cell_length_a       31.283
_cell_length_b       14.5442
_cell_length_c       8.6817
_cell_angle_alpha    90
_cell_angle_beta     96.033
_cell_angle_gamma    90

_symmetry_space_group_name_H-M    "P 1"
_symmetry_int_tables_number       1

loop_
  _symmetry_equiv_pos_as_xyz
  'x, y, z'

loop_
  _atom_site_label
  _atom_site_occupancy
  _atom_site_fract_x
  _atom_site_fract_y
  _atom_site_fract_z
  _atom_site_thermal_displace_type
  _atom_site_B_iso_or_equiv
  _atom_site_type_symbol
  Ce1      1.0000 0.67296  0.56042  0.77390  Biso   1.000  Ce
  O1       1.0000 0.69944  0.53710  0.51620  Biso   1.000  O
  O2       1.0000 0.74689  0.53570  0.34600  Biso   1.000  O
  O3       1.0000 0.80668  0.84350  0.99400  Biso   1.000  O
  O4       1.0000 0.84134  0.89850  0.79980  Biso   1.000  O
  N1       1.0000 0.74311  0.65430  0.70190  Biso   1.000  N
  C1       1.0000 0.73467  0.56280  0.47020  Biso   1.000  C
  C2       1.0000 0.76051  0.63130  0.57120  Biso   1.000  C
  C3       1.0000 0.79742  0.67120  0.52950  Biso   1.000  C
  H1       1.0000 0.80950  0.65160  0.43900  Biso   1.000  H
  C4       1.0000 0.81670  0.74060  0.62160  Biso   1.000  C
  H2       1.0000 0.84160  0.77090  0.59270  Biso   1.000  H
  C5       1.0000 0.79953  0.76500  0.75570  Biso   1.000  C
  C6       1.0000 0.76250  0.71830  0.79200  Biso   1.000  C
  H3       1.0000 0.75100  0.73340  0.88560  Biso   1.000  H
  C7       1.0000 0.81748  0.84060  0.85780  Biso   1.000  C
  O5       1.0000 0.61158  0.57140  0.57110  Biso   1.000  O
  O6       1.0000 0.60683  0.45770  0.39820  Biso   1.000  O
  C8       1.0000 0.59130  0.51250  0.48710  Biso   1.000  C
  C9       1.0000 0.54370  0.50590  0.49340  Biso   1.000  C
  C10      1.0000 0.52170  0.57500  0.55710  Biso   1.000  C
  H4       1.0000 0.53690  0.62750  0.59860  Biso   1.000  H
  N2       1.0000 0.52130  0.43030  0.43800  Biso   1.000  N
  C11      1.0000 0.47870  0.56970  0.56200  Biso   1.000  C
  H5       1.0000 0.53600  0.38080  0.39550  Biso   1.000  H
  H6       1.0000 0.46420  0.37640  0.40450  Biso   1.000  H
  H7       1.0000 0.46510  0.61550  0.60140  Biso   1.000  H
  Ce2      1.0000 0.17296  0.06042  0.77390  Biso   1.000  Ce
  O7       1.0000 0.19944  0.03710  0.51620  Biso   1.000  O
  O8       1.0000 0.24689  0.03570  0.34600  Biso   1.000  O
  O9       1.0000 0.30668  0.34350  0.99400  Biso   1.000  O
  O10      1.0000 0.34134  0.39850  0.79980  Biso   1.000  O
  N3       1.0000 0.24311  0.15430  0.70190  Biso   1.000  N
  C12      1.0000 0.23467  0.06280  0.47020  Biso   1.000  C
  C13      1.0000 0.26051  0.13130  0.57120  Biso   1.000  C
  C14      1.0000 0.29742  0.17120  0.52950  Biso   1.000  C
  H8       1.0000 0.30950  0.15160  0.43900  Biso   1.000  H
  C15      1.0000 0.31670  0.24060  0.62160  Biso   1.000  C
  H9       1.0000 0.34160  0.27090  0.59270  Biso   1.000  H
  C16      1.0000 0.29953  0.26500  0.75570  Biso   1.000  C
  C17      1.0000 0.26250  0.21830  0.79200  Biso   1.000  C
  H10      1.0000 0.25100  0.23340  0.88560  Biso   1.000  H
  C18      1.0000 0.31748  0.34060  0.85780  Biso   1.000  C
  O11      1.0000 0.11158  0.07140  0.57110  Biso   1.000  O
  O12      1.0000 0.10683  0.95770  0.39820  Biso   1.000  O
  C19      1.0000 0.09130  0.01250  0.48710  Biso   1.000  C
  C20      1.0000 0.04370  0.00590  0.49340  Biso   1.000  C
  C21      1.0000 0.02170  0.07500  0.55710  Biso   1.000  C
  H11      1.0000 0.03690  0.12750  0.59860  Biso   1.000  H
  N4       1.0000 0.02130  0.93030  0.43800  Biso   1.000  N
  C22      1.0000 0.97870  0.06970  0.56200  Biso   1.000  C
  H12      1.0000 0.03600  0.88080  0.39550  Biso   1.000  H
  H13      1.0000 0.96420  0.87640  0.40450  Biso   1.000  H
  H14      1.0000 0.96510  0.11550  0.60140  Biso   1.000  H
  Ce3      1.0000 0.32704  0.56042  0.72610  Biso   1.000  Ce
  O13      1.0000 0.30056  0.53710  0.98380  Biso   1.000  O
  O14      1.0000 0.25311  0.53570  0.15400  Biso   1.000  O
  O15      1.0000 0.19332  0.84350  0.50600  Biso   1.000  O
  O16      1.0000 0.15866  0.89850  0.70020  Biso   1.000  O
  N5       1.0000 0.25689  0.65430  0.79810  Biso   1.000  N
  C23      1.0000 0.26533  0.56280  0.02980  Biso   1.000  C
  C24      1.0000 0.23949  0.63130  0.92880  Biso   1.000  C
  C25      1.0000 0.20258  0.67120  0.97050  Biso   1.000  C
  H15      1.0000 0.19050  0.65160  0.06100  Biso   1.000  H
  C26      1.0000 0.18330  0.74060  0.87840  Biso   1.000  C
  H16      1.0000 0.15840  0.77090  0.90730  Biso   1.000  H
  C27      1.0000 0.20047  0.76500  0.74430  Biso   1.000  C
  C28      1.0000 0.23750  0.71830  0.70800  Biso   1.000  C
  H17      1.0000 0.24900  0.73340  0.61440  Biso   1.000  H
  C29      1.0000 0.18252  0.84060  0.64220  Biso   1.000  C
  O17      1.0000 0.38842  0.57140  0.92890  Biso   1.000  O
  O18      1.0000 0.39317  0.45770  0.10180  Biso   1.000  O
  C30      1.0000 0.40870  0.51250  0.01290  Biso   1.000  C
  C31      1.0000 0.45630  0.50590  0.00660  Biso   1.000  C
  C32      1.0000 0.47830  0.57500  0.94290  Biso   1.000  C
  H18      1.0000 0.46310  0.62750  0.90140  Biso   1.000  H
  N6       1.0000 0.47870  0.43030  0.06200  Biso   1.000  N
  C33      1.0000 0.52130  0.56970  0.93800  Biso   1.000  C
  H19      1.0000 0.46400  0.38080  0.10450  Biso   1.000  H
  H20      1.0000 0.53580  0.37640  0.09550  Biso   1.000  H
  H21      1.0000 0.53490  0.61550  0.89860  Biso   1.000  H
  Ce4      1.0000 0.82704  0.06042  0.72610  Biso   1.000  Ce
  O19      1.0000 0.80056  0.03710  0.98380  Biso   1.000  O
  O20      1.0000 0.75311  0.03570  0.15400  Biso   1.000  O
  O21      1.0000 0.69332  0.34350  0.50600  Biso   1.000  O
  O22      1.0000 0.65866  0.39850  0.70020  Biso   1.000  O
  N7       1.0000 0.75689  0.15430  0.79810  Biso   1.000  N
  C34      1.0000 0.76533  0.06280  0.02980  Biso   1.000  C
  C35      1.0000 0.73949  0.13130  0.92880  Biso   1.000  C
  C36      1.0000 0.70258  0.17120  0.97050  Biso   1.000  C
  H22      1.0000 0.69050  0.15160  0.06100  Biso   1.000  H
  C37      1.0000 0.68330  0.24060  0.87840  Biso   1.000  C
  H23      1.0000 0.65840  0.27090  0.90730  Biso   1.000  H
  C38      1.0000 0.70047  0.26500  0.74430  Biso   1.000  C
  C39      1.0000 0.73750  0.21830  0.70800  Biso   1.000  C
  H24      1.0000 0.74900  0.23340  0.61440  Biso   1.000  H
  C40      1.0000 0.68252  0.34060  0.64220  Biso   1.000  C
  O23      1.0000 0.88842  0.07140  0.92890  Biso   1.000  O
  O24      1.0000 0.89317  0.95770  0.10180  Biso   1.000  O
  C41      1.0000 0.90870  0.01250  0.01290  Biso   1.000  C
  C42      1.0000 0.95630  0.00590  0.00660  Biso   1.000  C
  C43      1.0000 0.97830  0.07500  0.94290  Biso   1.000  C
  H25      1.0000 0.96310  0.12750  0.90140  Biso   1.000  H
  N8       1.0000 0.97870  0.93030  0.06200  Biso   1.000  N
  C44      1.0000 0.02130  0.06970  0.93800  Biso   1.000  C
  H26      1.0000 0.96400  0.88080  0.10450  Biso   1.000  H
  H27      1.0000 0.03580  0.87640  0.09550  Biso   1.000  H
  H28      1.0000 0.03490  0.11550  0.89860  Biso   1.000  H
  Ce5      1.0000 0.32704  0.43958  0.22610  Biso   1.000  Ce
  O25      1.0000 0.30056  0.46290  0.48380  Biso   1.000  O
  O26      1.0000 0.25311  0.46430  0.65400  Biso   1.000  O
  O27      1.0000 0.19332  0.15650  0.00600  Biso   1.000  O
  O28      1.0000 0.15866  0.10150  0.20020  Biso   1.000  O
  N9       1.0000 0.25689  0.34570  0.29810  Biso   1.000  N
  C45      1.0000 0.26533  0.43720  0.52980  Biso   1.000  C
  C46      1.0000 0.23949  0.36870  0.42880  Biso   1.000  C
  C47      1.0000 0.20258  0.32880  0.47050  Biso   1.000  C
  H29      1.0000 0.19050  0.34840  0.56100  Biso   1.000  H
  C48      1.0000 0.18330  0.25940  0.37840  Biso   1.000  C
  H30      1.0000 0.15840  0.22910  0.40730  Biso   1.000  H
  C49      1.0000 0.20047  0.23500  0.24430  Biso   1.000  C
  C50      1.0000 0.23750  0.28170  0.20800  Biso   1.000  C
  H31      1.0000 0.24900  0.26660  0.11440  Biso   1.000  H
  C51      1.0000 0.18252  0.15940  0.14220  Biso   1.000  C
  O29      1.0000 0.38842  0.42860  0.42890  Biso   1.000  O
  O30      1.0000 0.39317  0.54230  0.60180  Biso   1.000  O
  C52      1.0000 0.40870  0.48750  0.51290  Biso   1.000  C
  C53      1.0000 0.45630  0.49410  0.50660  Biso   1.000  C
  C54      1.0000 0.47830  0.42500  0.44290  Biso   1.000  C
  H32      1.0000 0.46310  0.37250  0.40140  Biso   1.000  H
  H33      1.0000 0.46400  0.61920  0.60450  Biso   1.000  H
  H34      1.0000 0.53580  0.62360  0.59550  Biso   1.000  H
  H35      1.0000 0.53490  0.38450  0.39860  Biso   1.000  H
  Ce6      1.0000 0.82704  0.93958  0.22610  Biso   1.000  Ce
  O31      1.0000 0.80056  0.96290  0.48380  Biso   1.000  O
  O32      1.0000 0.75311  0.96430  0.65400  Biso   1.000  O
  O33      1.0000 0.69332  0.65650  0.00600  Biso   1.000  O
  O34      1.0000 0.65866  0.60150  0.20020  Biso   1.000  O
  N10      1.0000 0.75689  0.84570  0.29810  Biso   1.000  N
  C55      1.0000 0.76533  0.93720  0.52980  Biso   1.000  C
  C56      1.0000 0.73949  0.86870  0.42880  Biso   1.000  C
  C57      1.0000 0.70258  0.82880  0.47050  Biso   1.000  C
  H36      1.0000 0.69050  0.84840  0.56100  Biso   1.000  H
  C58      1.0000 0.68330  0.75940  0.37840  Biso   1.000  C
  H37      1.0000 0.65840  0.72910  0.40730  Biso   1.000  H
  C59      1.0000 0.70047  0.73500  0.24430  Biso   1.000  C
  C60      1.0000 0.73750  0.78170  0.20800  Biso   1.000  C
  H38      1.0000 0.74900  0.76660  0.11440  Biso   1.000  H
  C61      1.0000 0.68252  0.65940  0.14220  Biso   1.000  C
  O35      1.0000 0.88842  0.92860  0.42890  Biso   1.000  O
  O36      1.0000 0.89317  0.04230  0.60180  Biso   1.000  O
  C62      1.0000 0.90870  0.98750  0.51290  Biso   1.000  C
  C63      1.0000 0.95630  0.99410  0.50660  Biso   1.000  C
  C64      1.0000 0.97830  0.92500  0.44290  Biso   1.000  C
  H39      1.0000 0.96310  0.87250  0.40140  Biso   1.000  H
  H40      1.0000 0.96400  0.11920  0.60450  Biso   1.000  H
  H41      1.0000 0.03580  0.12360  0.59550  Biso   1.000  H
  H42      1.0000 0.03490  0.88450  0.39860  Biso   1.000  H
  Ce7      1.0000 0.67296  0.43958  0.27390  Biso   1.000  Ce
  O37      1.0000 0.69944  0.46290  0.01620  Biso   1.000  O
  O38      1.0000 0.74689  0.46430  0.84600  Biso   1.000  O
  O39      1.0000 0.80668  0.15650  0.49400  Biso   1.000  O
  O40      1.0000 0.84134  0.10150  0.29980  Biso   1.000  O
  N11      1.0000 0.74311  0.34570  0.20190  Biso   1.000  N
  C65      1.0000 0.73467  0.43720  0.97020  Biso   1.000  C
  C66      1.0000 0.76051  0.36870  0.07120  Biso   1.000  C
  C67      1.0000 0.79742  0.32880  0.02950  Biso   1.000  C
  H43      1.0000 0.80950  0.34840  0.93900  Biso   1.000  H
  C68      1.0000 0.81670  0.25940  0.12160  Biso   1.000  C
  H44      1.0000 0.84160  0.22910  0.09270  Biso   1.000  H
  C69      1.0000 0.79953  0.23500  0.25570  Biso   1.000  C
  C70      1.0000 0.76250  0.28170  0.29200  Biso   1.000  C
  H45      1.0000 0.75100  0.26660  0.38560  Biso   1.000  H
  C71      1.0000 0.81748  0.15940  0.35780  Biso   1.000  C
  O41      1.0000 0.61158  0.42860  0.07110  Biso   1.000  O
  O42      1.0000 0.60683  0.54230  0.89820  Biso   1.000  O
  C72      1.0000 0.59130  0.48750  0.98710  Biso   1.000  C
  C73      1.0000 0.54370  0.49410  0.99340  Biso   1.000  C
  C74      1.0000 0.52170  0.42500  0.05710  Biso   1.000  C
  H46      1.0000 0.53690  0.37250  0.09860  Biso   1.000  H
  H47      1.0000 0.53600  0.61920  0.89550  Biso   1.000  H
  H48      1.0000 0.46420  0.62360  0.90450  Biso   1.000  H
  H49      1.0000 0.46510  0.38450  0.10140  Biso   1.000  H
  Ce8      1.0000 0.17296  0.93958  0.27390  Biso   1.000  Ce
  O43      1.0000 0.19944  0.96290  0.01620  Biso   1.000  O
  O44      1.0000 0.24689  0.96430  0.84600  Biso   1.000  O
  O45      1.0000 0.30668  0.65650  0.49400  Biso   1.000  O
  O46      1.0000 0.34134  0.60150  0.29980  Biso   1.000  O
  N12      1.0000 0.24311  0.84570  0.20190  Biso   1.000  N
  C75      1.0000 0.23467  0.93720  0.97020  Biso   1.000  C
  C76      1.0000 0.26051  0.86870  0.07120  Biso   1.000  C
  C77      1.0000 0.29742  0.82880  0.02950  Biso   1.000  C
  H50      1.0000 0.30950  0.84840  0.93900  Biso   1.000  H
  C78      1.0000 0.31670  0.75940  0.12160  Biso   1.000  C
  H51      1.0000 0.34160  0.72910  0.09270  Biso   1.000  H
  C79      1.0000 0.29953  0.73500  0.25570  Biso   1.000  C
  C80      1.0000 0.26250  0.78170  0.29200  Biso   1.000  C
  H52      1.0000 0.25100  0.76660  0.38560  Biso   1.000  H
  C81      1.0000 0.31748  0.65940  0.35780  Biso   1.000  C
  O47      1.0000 0.11158  0.92860  0.07110  Biso   1.000  O
  O48      1.0000 0.10683  0.04230  0.89820  Biso   1.000  O
  C82      1.0000 0.09130  0.98750  0.98710  Biso   1.000  C
  C83      1.0000 0.04370  0.99410  0.99340  Biso   1.000  C
  C84      1.0000 0.02170  0.92500  0.05710  Biso   1.000  C
  H53      1.0000 0.03690  0.87250  0.09860  Biso   1.000  H
  H54      1.0000 0.03600  0.11920  0.89550  Biso   1.000  H
  H55      1.0000 0.96420  0.12360  0.90450  Biso   1.000  H
  H56      1.0000 0.96510  0.88450  0.10140  Biso   1.000  H
