data_image0
_cell_length_a       8.6591
_cell_length_b       32.508
_cell_length_c       9.979
_cell_angle_alpha    90
_cell_angle_beta     97.77
_cell_angle_gamma    90

_symmetry_space_group_name_H-M    "P 1"
_symmetry_int_tables_number       1

loop_
  _symmetry_equiv_pos_as_xyz
  'x, y, z'

loop_
  _atom_site_label
  _atom_site_occupancy
  _atom_site_fract_x
  _atom_site_fract_y
  _atom_site_fract_z
  _atom_site_thermal_displace_type
  _atom_site_B_iso_or_equiv
  _atom_site_type_symbol
  U1       1.0000 0.30893  0.19125  0.27111  Biso   1.000  U
  U2       1.0000 0.16598  0.95945  0.76976  Biso   1.000  U
  O1       1.0000 0.36400  0.11330  0.29600  Biso   1.000  O
  O2       1.0000 0.22830  0.15220  0.06690  Biso   1.000  O
  O3       1.0000 0.47110  0.17975  0.49250  Biso   1.000  O
  O4       1.0000 0.71000  0.20277  0.69240  Biso   1.000  O
  O5       1.0000 0.64070  0.12920  0.46900  Biso   1.000  O
  H1       1.0000 0.64490  0.14170  0.39820  Biso   1.000  H
  O6       1.0000 0.71280  0.20490  0.91640  Biso   1.000  O
  O7       1.0000 0.99850  0.18215  0.04750  Biso   1.000  O
  O8       1.0000 0.30120  0.01840  0.89170  Biso   1.000  O
  O9       1.0000 0.28350  0.01940  0.67130  Biso   1.000  O
  O10      1.0000 0.96500  0.09331  0.38550  Biso   1.000  O
  O11      1.0000 0.84900  0.04344  0.48080  Biso   1.000  O
  O12      1.0000 0.94280  0.09650  0.10470  Biso   1.000  O
  O13      1.0000 0.83370  0.04560  0.98170  Biso   1.000  O
  C1       1.0000 0.57850  0.15000  0.79670  Biso   1.000  C
  C2       1.0000 0.52820  0.13070  0.66930  Biso   1.000  C
  C3       1.0000 0.44500  0.09380  0.67080  Biso   1.000  C
  H2       1.0000 0.41070  0.08070  0.58940  Biso   1.000  H
  C4       1.0000 0.41320  0.07680  0.78860  Biso   1.000  C
  C5       1.0000 0.46050  0.09490  0.91380  Biso   1.000  C
  H3       1.0000 0.43770  0.08280  0.99340  Biso   1.000  H
  C6       1.0000 0.54390  0.13190  0.91530  Biso   1.000  C
  H4       1.0000 0.57680  0.14470  0.99760  Biso   1.000  H
  C7       1.0000 0.67440  0.18900  0.80200  Biso   1.000  C
  C8       1.0000 0.55580  0.14710  0.53500  Biso   1.000  C
  C9       1.0000 0.33000  0.03640  0.78560  Biso   1.000  C
  C10      1.0000 0.04680  0.13500  0.87740  Biso   1.000  C
  C11      1.0000 0.95670  0.09830  0.86560  Biso   1.000  C
  C12      1.0000 0.91990  0.08020  0.74120  Biso   1.000  C
  H5       1.0000 0.86090  0.05620  0.73370  Biso   1.000  H
  C13      1.0000 0.96880  0.09690  0.62650  Biso   1.000  C
  C14      1.0000 0.05750  0.13240  0.63780  Biso   1.000  C
  H6       1.0000 0.09120  0.14380  0.56120  Biso   1.000  H
  C15      1.0000 0.09610  0.15110  0.76150  Biso   1.000  C
  H7       1.0000 0.15630  0.17490  0.76760  Biso   1.000  H
  C16      1.0000 0.09510  0.15730  0.00560  Biso   1.000  C
  C17      1.0000 0.90760  0.07970  0.99060  Biso   1.000  C
  C18      1.0000 0.92580  0.07690  0.49010  Biso   1.000  C
  O14      1.0000 0.72550  0.88400  0.66900  Biso   1.000  O
  U3       1.0000 0.69107  0.69125  0.72889  Biso   1.000  U
  U4       1.0000 0.83402  0.45945  0.23024  Biso   1.000  U
  O15      1.0000 0.63600  0.61330  0.70400  Biso   1.000  O
  O16      1.0000 0.77170  0.65220  0.93310  Biso   1.000  O
  O17      1.0000 0.52890  0.67975  0.50750  Biso   1.000  O
  O18      1.0000 0.29000  0.70277  0.30760  Biso   1.000  O
  O19      1.0000 0.35930  0.62920  0.53100  Biso   1.000  O
  H8       1.0000 0.35510  0.64170  0.60180  Biso   1.000  H
  O20      1.0000 0.28720  0.70490  0.08360  Biso   1.000  O
  O21      1.0000 0.00150  0.68215  0.95250  Biso   1.000  O
  O22      1.0000 0.69880  0.51840  0.10830  Biso   1.000  O
  O23      1.0000 0.71650  0.51940  0.32870  Biso   1.000  O
  O24      1.0000 0.03500  0.59331  0.61450  Biso   1.000  O
  O25      1.0000 0.15100  0.54344  0.51920  Biso   1.000  O
  O26      1.0000 0.05720  0.59650  0.89530  Biso   1.000  O
  O27      1.0000 0.16630  0.54560  0.01830  Biso   1.000  O
  C19      1.0000 0.42150  0.65000  0.20330  Biso   1.000  C
  C20      1.0000 0.47180  0.63070  0.33070  Biso   1.000  C
  C21      1.0000 0.55500  0.59380  0.32920  Biso   1.000  C
  H9       1.0000 0.58930  0.58070  0.41060  Biso   1.000  H
  C22      1.0000 0.58680  0.57680  0.21140  Biso   1.000  C
  C23      1.0000 0.53950  0.59490  0.08620  Biso   1.000  C
  H10      1.0000 0.56230  0.58280  0.00660  Biso   1.000  H
  C24      1.0000 0.45610  0.63190  0.08470  Biso   1.000  C
  H11      1.0000 0.42320  0.64470  0.00240  Biso   1.000  H
  C25      1.0000 0.32560  0.68900  0.19800  Biso   1.000  C
  C26      1.0000 0.44420  0.64710  0.46500  Biso   1.000  C
  C27      1.0000 0.67000  0.53640  0.21440  Biso   1.000  C
  C28      1.0000 0.95320  0.63500  0.12260  Biso   1.000  C
  C29      1.0000 0.04330  0.59830  0.13440  Biso   1.000  C
  C30      1.0000 0.08010  0.58020  0.25880  Biso   1.000  C
  H12      1.0000 0.13910  0.55620  0.26630  Biso   1.000  H
  C31      1.0000 0.03120  0.59690  0.37350  Biso   1.000  C
  C32      1.0000 0.94250  0.63240  0.36220  Biso   1.000  C
  H13      1.0000 0.90880  0.64380  0.43880  Biso   1.000  H
  C33      1.0000 0.90390  0.65110  0.23850  Biso   1.000  C
  H14      1.0000 0.84370  0.67490  0.23240  Biso   1.000  H
  C34      1.0000 0.90490  0.65730  0.99440  Biso   1.000  C
  C35      1.0000 0.09240  0.57970  0.00940  Biso   1.000  C
  C36      1.0000 0.07420  0.57690  0.50990  Biso   1.000  C
  O28      1.0000 0.27450  0.38400  0.33100  Biso   1.000  O
  U5       1.0000 0.69107  0.80875  0.72889  Biso   1.000  U
  U6       1.0000 0.83402  0.04055  0.23024  Biso   1.000  U
  O29      1.0000 0.63600  0.88670  0.70400  Biso   1.000  O
  O30      1.0000 0.77170  0.84780  0.93310  Biso   1.000  O
  O31      1.0000 0.52890  0.82025  0.50750  Biso   1.000  O
  O32      1.0000 0.29000  0.79723  0.30760  Biso   1.000  O
  O33      1.0000 0.35930  0.87080  0.53100  Biso   1.000  O
  H15      1.0000 0.35510  0.85830  0.60180  Biso   1.000  H
  O34      1.0000 0.28720  0.79510  0.08360  Biso   1.000  O
  O35      1.0000 0.00150  0.81785  0.95250  Biso   1.000  O
  O36      1.0000 0.69880  0.98160  0.10830  Biso   1.000  O
  O37      1.0000 0.71650  0.98060  0.32870  Biso   1.000  O
  O38      1.0000 0.03500  0.90669  0.61450  Biso   1.000  O
  O39      1.0000 0.15100  0.95656  0.51920  Biso   1.000  O
  O40      1.0000 0.05720  0.90350  0.89530  Biso   1.000  O
  O41      1.0000 0.16630  0.95440  0.01830  Biso   1.000  O
  C37      1.0000 0.42150  0.85000  0.20330  Biso   1.000  C
  C38      1.0000 0.47180  0.86930  0.33070  Biso   1.000  C
  C39      1.0000 0.55500  0.90620  0.32920  Biso   1.000  C
  H16      1.0000 0.58930  0.91930  0.41060  Biso   1.000  H
  C40      1.0000 0.58680  0.92320  0.21140  Biso   1.000  C
  C41      1.0000 0.53950  0.90510  0.08620  Biso   1.000  C
  H17      1.0000 0.56230  0.91720  0.00660  Biso   1.000  H
  C42      1.0000 0.45610  0.86810  0.08470  Biso   1.000  C
  H18      1.0000 0.42320  0.85530  0.00240  Biso   1.000  H
  C43      1.0000 0.32560  0.81100  0.19800  Biso   1.000  C
  C44      1.0000 0.44420  0.85290  0.46500  Biso   1.000  C
  C45      1.0000 0.67000  0.96360  0.21440  Biso   1.000  C
  C46      1.0000 0.95320  0.86500  0.12260  Biso   1.000  C
  C47      1.0000 0.04330  0.90170  0.13440  Biso   1.000  C
  C48      1.0000 0.08010  0.91980  0.25880  Biso   1.000  C
  H19      1.0000 0.13910  0.94380  0.26630  Biso   1.000  H
  C49      1.0000 0.03120  0.90310  0.37350  Biso   1.000  C
  C50      1.0000 0.94250  0.86760  0.36220  Biso   1.000  C
  H20      1.0000 0.90880  0.85620  0.43880  Biso   1.000  H
  C51      1.0000 0.90390  0.84890  0.23850  Biso   1.000  C
  H21      1.0000 0.84370  0.82510  0.23240  Biso   1.000  H
  C52      1.0000 0.90490  0.84270  0.99440  Biso   1.000  C
  C53      1.0000 0.09240  0.92030  0.00940  Biso   1.000  C
  C54      1.0000 0.07420  0.92310  0.50990  Biso   1.000  C
  O42      1.0000 0.27450  0.11600  0.33100  Biso   1.000  O
  U7       1.0000 0.30893  0.30875  0.27111  Biso   1.000  U
  U8       1.0000 0.16598  0.54055  0.76976  Biso   1.000  U
  O43      1.0000 0.36400  0.38670  0.29600  Biso   1.000  O
  O44      1.0000 0.22830  0.34780  0.06690  Biso   1.000  O
  O45      1.0000 0.47110  0.32025  0.49250  Biso   1.000  O
  O46      1.0000 0.71000  0.29723  0.69240  Biso   1.000  O
  O47      1.0000 0.64070  0.37080  0.46900  Biso   1.000  O
  H22      1.0000 0.64490  0.35830  0.39820  Biso   1.000  H
  O48      1.0000 0.71280  0.29510  0.91640  Biso   1.000  O
  O49      1.0000 0.99850  0.31785  0.04750  Biso   1.000  O
  O50      1.0000 0.30120  0.48160  0.89170  Biso   1.000  O
  O51      1.0000 0.28350  0.48060  0.67130  Biso   1.000  O
  O52      1.0000 0.96500  0.40669  0.38550  Biso   1.000  O
  O53      1.0000 0.84900  0.45656  0.48080  Biso   1.000  O
  O54      1.0000 0.94280  0.40350  0.10470  Biso   1.000  O
  O55      1.0000 0.83370  0.45440  0.98170  Biso   1.000  O
  C55      1.0000 0.57850  0.35000  0.79670  Biso   1.000  C
  C56      1.0000 0.52820  0.36930  0.66930  Biso   1.000  C
  C57      1.0000 0.44500  0.40620  0.67080  Biso   1.000  C
  H23      1.0000 0.41070  0.41930  0.58940  Biso   1.000  H
  C58      1.0000 0.41320  0.42320  0.78860  Biso   1.000  C
  C59      1.0000 0.46050  0.40510  0.91380  Biso   1.000  C
  H24      1.0000 0.43770  0.41720  0.99340  Biso   1.000  H
  C60      1.0000 0.54390  0.36810  0.91530  Biso   1.000  C
  H25      1.0000 0.57680  0.35530  0.99760  Biso   1.000  H
  C61      1.0000 0.67440  0.31100  0.80200  Biso   1.000  C
  C62      1.0000 0.55580  0.35290  0.53500  Biso   1.000  C
  C63      1.0000 0.33000  0.46360  0.78560  Biso   1.000  C
  C64      1.0000 0.04680  0.36500  0.87740  Biso   1.000  C
  C65      1.0000 0.95670  0.40170  0.86560  Biso   1.000  C
  C66      1.0000 0.91990  0.41980  0.74120  Biso   1.000  C
  H26      1.0000 0.86090  0.44380  0.73370  Biso   1.000  H
  C67      1.0000 0.96880  0.40310  0.62650  Biso   1.000  C
  C68      1.0000 0.05750  0.36760  0.63780  Biso   1.000  C
  H27      1.0000 0.09120  0.35620  0.56120  Biso   1.000  H
  C69      1.0000 0.09610  0.34890  0.76150  Biso   1.000  C
  H28      1.0000 0.15630  0.32510  0.76760  Biso   1.000  H
  C70      1.0000 0.09510  0.34270  0.00560  Biso   1.000  C
  C71      1.0000 0.90760  0.42030  0.99060  Biso   1.000  C
  C72      1.0000 0.92580  0.42310  0.49010  Biso   1.000  C
  O56      1.0000 0.72550  0.61600  0.66900  Biso   1.000  O
  U9       1.0000 0.55903  0.25000  0.55500  Biso   1.000  U
  U10      1.0000 0.92605  0.25000  0.00418  Biso   1.000  U
  O57      1.0000 0.37060  0.25000  0.37670  Biso   1.000  O
  O58      1.0000 0.20200  0.25000  0.12930  Biso   1.000  O
  U11      1.0000 0.44097  0.75000  0.44500  Biso   1.000  U
  U12      1.0000 0.07395  0.75000  0.99582  Biso   1.000  U
  O59      1.0000 0.62940  0.75000  0.62330  Biso   1.000  O
  O60      1.0000 0.79800  0.75000  0.87070  Biso   1.000  O
