data_image0
_cell_length_a       18.982
_cell_length_b       18.982
_cell_length_c       7.9137
_cell_angle_alpha    90
_cell_angle_beta     90
_cell_angle_gamma    120

_symmetry_space_group_name_H-M    "P 1"
_symmetry_int_tables_number       1

loop_
  _symmetry_equiv_pos_as_xyz
  'x, y, z'

loop_
  _atom_site_label
  _atom_site_occupancy
  _atom_site_fract_x
  _atom_site_fract_y
  _atom_site_fract_z
  _atom_site_thermal_displace_type
  _atom_site_B_iso_or_equiv
  _atom_site_type_symbol
  N1       1.0000 0.25973  0.56021  0.49380  Biso   1.000  N
  N2       1.0000 0.19590  0.43570  0.39230  Biso   1.000  N
  N3       1.0000 0.07791  0.10571  0.15800  Biso   1.000  N
  N4       1.0000 0.14650  0.22940  0.25860  Biso   1.000  N
  N5       1.0000 0.22591  0.63293  0.81060  Biso   1.000  N
  N6       1.0000 0.09954  0.57420  0.90350  Biso   1.000  N
  C1       1.0000 0.24730  0.48730  0.51110  Biso   1.000  C
  H1       1.0000 0.27090  0.47190  0.59550  Biso   1.000  H
  C2       1.0000 0.21440  0.55590  0.35420  Biso   1.000  C
  H2       1.0000 0.21030  0.59930  0.31130  Biso   1.000  H
  C3       1.0000 0.17720  0.48100  0.28860  Biso   1.000  C
  H3       1.0000 0.14510  0.46350  0.19190  Biso   1.000  H
  C4       1.0000 0.09430  0.18100  0.13830  Biso   1.000  C
  H4       1.0000 0.07300  0.19860  0.05320  Biso   1.000  H
  C5       1.0000 0.12050  0.10730  0.29710  Biso   1.000  C
  H5       1.0000 0.12160  0.06230  0.34030  Biso   1.000  H
  C6       1.0000 0.16090  0.18210  0.36440  Biso   1.000  C
  H6       1.0000 0.19200  0.19800  0.46250  Biso   1.000  H
  C7       1.0000 0.15270  0.34510  0.39730  Biso   1.000  C
  C8       1.0000 0.21520  0.36810  0.30630  Biso   1.000  C
  C9       1.0000 0.19070  0.32140  0.25580  Biso   1.000  C
  C10      1.0000 0.13230  0.30030  0.35710  Biso   1.000  C
  C11      1.0000 0.15190  0.57160  0.79170  Biso   1.000  C
  H7       1.0000 0.13720  0.53110  0.71090  Biso   1.000  H
  C12      1.0000 0.22160  0.67720  0.94320  Biso   1.000  C
  H8       1.0000 0.26520  0.72440  0.98640  Biso   1.000  H
  C13      1.0000 0.14420  0.64170  0.00160  Biso   1.000  C
  H9       1.0000 0.12530  0.65960  0.09070  Biso   1.000  H
  C14      1.0000 0.01290  0.51850  0.91420  Biso   1.000  C
  H10      1.0000 0.99760  0.47560  0.83150  Biso   1.000  H
  H11      1.0000 0.98430  0.54740  0.88660  Biso   1.000  H
  N7       1.0000 0.43979  0.69952  0.49380  Biso   1.000  N
  N8       1.0000 0.56430  0.76020  0.39230  Biso   1.000  N
  N9       1.0000 0.89429  0.97220  0.15800  Biso   1.000  N
  N10      1.0000 0.77060  0.91710  0.25860  Biso   1.000  N
  N11      1.0000 0.36707  0.59298  0.81060  Biso   1.000  N
  N12      1.0000 0.42580  0.52534  0.90350  Biso   1.000  N
  C15      1.0000 0.51270  0.76000  0.51110  Biso   1.000  C
  H12      1.0000 0.52810  0.79900  0.59550  Biso   1.000  H
  C16      1.0000 0.44410  0.65850  0.35420  Biso   1.000  C
  H13      1.0000 0.40070  0.61100  0.31130  Biso   1.000  H
  C17      1.0000 0.51900  0.69620  0.28860  Biso   1.000  C
  H14      1.0000 0.53650  0.68160  0.19190  Biso   1.000  H
  C18      1.0000 0.81900  0.91330  0.13830  Biso   1.000  C
  H15      1.0000 0.80140  0.87440  0.05320  Biso   1.000  H
  C19      1.0000 0.89270  0.01320  0.29710  Biso   1.000  C
  H16      1.0000 0.93770  0.05930  0.34030  Biso   1.000  H
  C20      1.0000 0.81790  0.97880  0.36440  Biso   1.000  C
  H17      1.0000 0.80200  0.99400  0.46250  Biso   1.000  H
  C21      1.0000 0.65490  0.80760  0.39730  Biso   1.000  C
  C22      1.0000 0.63190  0.84710  0.30630  Biso   1.000  C
  C23      1.0000 0.67860  0.86930  0.25580  Biso   1.000  C
  C24      1.0000 0.69970  0.83200  0.35710  Biso   1.000  C
  C25      1.0000 0.42840  0.58030  0.79170  Biso   1.000  C
  H18      1.0000 0.46890  0.60610  0.71090  Biso   1.000  H
  C26      1.0000 0.32280  0.54440  0.94320  Biso   1.000  C
  H19      1.0000 0.27560  0.54080  0.98640  Biso   1.000  H
  C27      1.0000 0.35830  0.50250  0.00160  Biso   1.000  C
  H20      1.0000 0.34040  0.46570  0.09070  Biso   1.000  H
  C28      1.0000 0.48150  0.49440  0.91420  Biso   1.000  C
  H21      1.0000 0.52440  0.52200  0.83150  Biso   1.000  H
  H22      1.0000 0.45260  0.43690  0.88660  Biso   1.000  H
  N13      1.0000 0.30048  0.74027  0.49380  Biso   1.000  N
  N14      1.0000 0.23980  0.80410  0.39230  Biso   1.000  N
  N15      1.0000 0.02780  0.92209  0.15800  Biso   1.000  N
  N16      1.0000 0.08290  0.85350  0.25860  Biso   1.000  N
  N17      1.0000 0.40702  0.77409  0.81060  Biso   1.000  N
  N18      1.0000 0.47466  0.90046  0.90350  Biso   1.000  N
  C29      1.0000 0.24000  0.75270  0.51110  Biso   1.000  C
  H23      1.0000 0.20100  0.72910  0.59550  Biso   1.000  H
  C30      1.0000 0.34150  0.78560  0.35420  Biso   1.000  C
  H24      1.0000 0.38900  0.78970  0.31130  Biso   1.000  H
  C31      1.0000 0.30380  0.82280  0.28860  Biso   1.000  C
  H25      1.0000 0.31840  0.85490  0.19190  Biso   1.000  H
  C32      1.0000 0.08670  0.90570  0.13830  Biso   1.000  C
  H26      1.0000 0.12560  0.92700  0.05320  Biso   1.000  H
  C33      1.0000 0.98680  0.87950  0.29710  Biso   1.000  C
  H27      1.0000 0.94070  0.87840  0.34030  Biso   1.000  H
  C34      1.0000 0.02120  0.83910  0.36440  Biso   1.000  C
  H28      1.0000 0.00600  0.80800  0.46250  Biso   1.000  H
  C35      1.0000 0.19240  0.84730  0.39730  Biso   1.000  C
  C36      1.0000 0.15290  0.78480  0.30630  Biso   1.000  C
  C37      1.0000 0.13070  0.80930  0.25580  Biso   1.000  C
  C38      1.0000 0.16800  0.86770  0.35710  Biso   1.000  C
  C39      1.0000 0.41970  0.84810  0.79170  Biso   1.000  C
  H29      1.0000 0.39390  0.86280  0.71090  Biso   1.000  H
  C40      1.0000 0.45560  0.77840  0.94320  Biso   1.000  C
  H30      1.0000 0.45920  0.73480  0.98640  Biso   1.000  H
  C41      1.0000 0.49750  0.85580  0.00160  Biso   1.000  C
  H31      1.0000 0.53430  0.87470  0.09070  Biso   1.000  H
  C42      1.0000 0.50560  0.98710  0.91420  Biso   1.000  C
  H32      1.0000 0.47800  0.00240  0.83150  Biso   1.000  H
  H33      1.0000 0.56310  0.01570  0.88660  Biso   1.000  H
  N19      1.0000 0.74027  0.43979  0.50620  Biso   1.000  N
  N20      1.0000 0.80410  0.56430  0.60770  Biso   1.000  N
  N21      1.0000 0.92209  0.89429  0.84200  Biso   1.000  N
  N22      1.0000 0.85350  0.77060  0.74140  Biso   1.000  N
  N23      1.0000 0.77409  0.36707  0.18940  Biso   1.000  N
  N24      1.0000 0.90046  0.42580  0.09650  Biso   1.000  N
  C43      1.0000 0.75270  0.51270  0.48890  Biso   1.000  C
  H34      1.0000 0.72910  0.52810  0.40450  Biso   1.000  H
  C44      1.0000 0.78560  0.44410  0.64580  Biso   1.000  C
  H35      1.0000 0.78970  0.40070  0.68870  Biso   1.000  H
  C45      1.0000 0.82280  0.51900  0.71140  Biso   1.000  C
  H36      1.0000 0.85490  0.53650  0.80810  Biso   1.000  H
  C46      1.0000 0.90570  0.81900  0.86170  Biso   1.000  C
  H37      1.0000 0.92700  0.80140  0.94680  Biso   1.000  H
  C47      1.0000 0.87950  0.89270  0.70290  Biso   1.000  C
  H38      1.0000 0.87840  0.93770  0.65970  Biso   1.000  H
  C48      1.0000 0.83910  0.81790  0.63560  Biso   1.000  C
  H39      1.0000 0.80800  0.80200  0.53750  Biso   1.000  H
  C49      1.0000 0.84730  0.65490  0.60270  Biso   1.000  C
  C50      1.0000 0.78480  0.63190  0.69370  Biso   1.000  C
  C51      1.0000 0.80930  0.67860  0.74420  Biso   1.000  C
  C52      1.0000 0.86770  0.69970  0.64290  Biso   1.000  C
  C53      1.0000 0.84810  0.42840  0.20830  Biso   1.000  C
  H40      1.0000 0.86280  0.46890  0.28910  Biso   1.000  H
  C54      1.0000 0.77840  0.32280  0.05680  Biso   1.000  C
  H41      1.0000 0.73480  0.27560  0.01360  Biso   1.000  H
  C55      1.0000 0.85580  0.35830  0.99840  Biso   1.000  C
  H42      1.0000 0.87470  0.34040  0.90930  Biso   1.000  H
  C56      1.0000 0.98710  0.48150  0.08580  Biso   1.000  C
  H43      1.0000 0.00240  0.52440  0.16850  Biso   1.000  H
  H44      1.0000 0.01570  0.45260  0.11340  Biso   1.000  H
  N25      1.0000 0.56021  0.30048  0.50620  Biso   1.000  N
  N26      1.0000 0.43570  0.23980  0.60770  Biso   1.000  N
  N27      1.0000 0.10571  0.02780  0.84200  Biso   1.000  N
  N28      1.0000 0.22940  0.08290  0.74140  Biso   1.000  N
  N29      1.0000 0.63293  0.40702  0.18940  Biso   1.000  N
  N30      1.0000 0.57420  0.47466  0.09650  Biso   1.000  N
  C57      1.0000 0.48730  0.24000  0.48890  Biso   1.000  C
  H45      1.0000 0.47190  0.20100  0.40450  Biso   1.000  H
  C58      1.0000 0.55590  0.34150  0.64580  Biso   1.000  C
  H46      1.0000 0.59930  0.38900  0.68870  Biso   1.000  H
  C59      1.0000 0.48100  0.30380  0.71140  Biso   1.000  C
  H47      1.0000 0.46350  0.31840  0.80810  Biso   1.000  H
  C60      1.0000 0.18100  0.08670  0.86170  Biso   1.000  C
  H48      1.0000 0.19860  0.12560  0.94680  Biso   1.000  H
  C61      1.0000 0.10730  0.98680  0.70290  Biso   1.000  C
  H49      1.0000 0.06230  0.94070  0.65970  Biso   1.000  H
  C62      1.0000 0.18210  0.02120  0.63560  Biso   1.000  C
  H50      1.0000 0.19800  0.00600  0.53750  Biso   1.000  H
  C63      1.0000 0.34510  0.19240  0.60270  Biso   1.000  C
  C64      1.0000 0.36810  0.15290  0.69370  Biso   1.000  C
  C65      1.0000 0.32140  0.13070  0.74420  Biso   1.000  C
  C66      1.0000 0.30030  0.16800  0.64290  Biso   1.000  C
  C67      1.0000 0.57160  0.41970  0.20830  Biso   1.000  C
  H51      1.0000 0.53110  0.39390  0.28910  Biso   1.000  H
  C68      1.0000 0.67720  0.45560  0.05680  Biso   1.000  C
  H52      1.0000 0.72440  0.45920  0.01360  Biso   1.000  H
  C69      1.0000 0.64170  0.49750  0.99840  Biso   1.000  C
  H53      1.0000 0.65960  0.53430  0.90930  Biso   1.000  H
  C70      1.0000 0.51850  0.50560  0.08580  Biso   1.000  C
  H54      1.0000 0.47560  0.47800  0.16850  Biso   1.000  H
  H55      1.0000 0.54740  0.56310  0.11340  Biso   1.000  H
  N31      1.0000 0.69952  0.25973  0.50620  Biso   1.000  N
  N32      1.0000 0.76020  0.19590  0.60770  Biso   1.000  N
  N33      1.0000 0.97220  0.07791  0.84200  Biso   1.000  N
  N34      1.0000 0.91710  0.14650  0.74140  Biso   1.000  N
  N35      1.0000 0.59298  0.22591  0.18940  Biso   1.000  N
  N36      1.0000 0.52534  0.09954  0.09650  Biso   1.000  N
  C71      1.0000 0.76000  0.24730  0.48890  Biso   1.000  C
  H56      1.0000 0.79900  0.27090  0.40450  Biso   1.000  H
  C72      1.0000 0.65850  0.21440  0.64580  Biso   1.000  C
  H57      1.0000 0.61100  0.21030  0.68870  Biso   1.000  H
  C73      1.0000 0.69620  0.17720  0.71140  Biso   1.000  C
  H58      1.0000 0.68160  0.14510  0.80810  Biso   1.000  H
  C74      1.0000 0.91330  0.09430  0.86170  Biso   1.000  C
  H59      1.0000 0.87440  0.07300  0.94680  Biso   1.000  H
  C75      1.0000 0.01320  0.12050  0.70290  Biso   1.000  C
  H60      1.0000 0.05930  0.12160  0.65970  Biso   1.000  H
  C76      1.0000 0.97880  0.16090  0.63560  Biso   1.000  C
  H61      1.0000 0.99400  0.19200  0.53750  Biso   1.000  H
  C77      1.0000 0.80760  0.15270  0.60270  Biso   1.000  C
  C78      1.0000 0.84710  0.21520  0.69370  Biso   1.000  C
  C79      1.0000 0.86930  0.19070  0.74420  Biso   1.000  C
  C80      1.0000 0.83200  0.13230  0.64290  Biso   1.000  C
  C81      1.0000 0.58030  0.15190  0.20830  Biso   1.000  C
  H62      1.0000 0.60610  0.13720  0.28910  Biso   1.000  H
  C82      1.0000 0.54440  0.22160  0.05680  Biso   1.000  C
  H63      1.0000 0.54080  0.26520  0.01360  Biso   1.000  H
  C83      1.0000 0.50250  0.14420  0.99840  Biso   1.000  C
  H64      1.0000 0.46570  0.12530  0.90930  Biso   1.000  H
  C84      1.0000 0.49440  0.01290  0.08580  Biso   1.000  C
  H65      1.0000 0.52200  0.99760  0.16850  Biso   1.000  H
  H66      1.0000 0.43690  0.98430  0.11340  Biso   1.000  H
  Zn1      1.0000 0.33333  0.66667  0.65082  Biso   1.000  Zn
  Zn2      1.0000 0.66667  0.33333  0.34918  Biso   1.000  Zn
  Zn3      1.0000 0.00000  0.00000  0.00000  Biso   1.000  Zn
