data_image0
_cell_length_a       20.838
_cell_length_b       7.245
_cell_length_c       15.52
_cell_angle_alpha    90
_cell_angle_beta     90
_cell_angle_gamma    90

_symmetry_space_group_name_H-M    "P 1"
_symmetry_int_tables_number       1

loop_
  _symmetry_equiv_pos_as_xyz
  'x, y, z'

loop_
  _atom_site_label
  _atom_site_occupancy
  _atom_site_fract_x
  _atom_site_fract_y
  _atom_site_fract_z
  _atom_site_thermal_displace_type
  _atom_site_B_iso_or_equiv
  _atom_site_type_symbol
  N1       1.0000 0.06740  0.64660  0.44090  Biso   1.000  N
  C1       1.0000 0.11250  0.40800  0.60350  Biso   1.000  C
  H1       1.0000 0.12390  0.52990  0.61330  Biso   1.000  H
  C2       1.0000 0.26000  0.14400  0.67300  Biso   1.000  C
  C3       1.0000 0.20400  0.39400  0.75500  Biso   1.000  C
  H2       1.0000 0.25310  0.05170  0.62960  Biso   1.000  H
  H3       1.0000 0.17280  0.48950  0.76230  Biso   1.000  H
  N2       1.0000 0.56740  0.14660  0.94090  Biso   1.000  N
  C4       1.0000 0.61250  0.90800  0.10350  Biso   1.000  C
  H4       1.0000 0.62390  0.02990  0.11330  Biso   1.000  H
  C5       1.0000 0.76000  0.64400  0.17300  Biso   1.000  C
  C6       1.0000 0.70400  0.89400  0.25500  Biso   1.000  C
  H5       1.0000 0.75310  0.55170  0.12960  Biso   1.000  H
  H6       1.0000 0.67280  0.98950  0.26230  Biso   1.000  H
  N3       1.0000 0.93260  0.85340  0.44090  Biso   1.000  N
  C7       1.0000 0.88750  0.09200  0.60350  Biso   1.000  C
  H7       1.0000 0.87610  0.97010  0.61330  Biso   1.000  H
  C8       1.0000 0.74000  0.35600  0.67300  Biso   1.000  C
  C9       1.0000 0.79600  0.10600  0.75500  Biso   1.000  C
  H8       1.0000 0.74690  0.44830  0.62960  Biso   1.000  H
  H9       1.0000 0.82720  0.01050  0.76230  Biso   1.000  H
  N4       1.0000 0.43260  0.35340  0.94090  Biso   1.000  N
  C10      1.0000 0.38750  0.59200  0.10350  Biso   1.000  C
  H10      1.0000 0.37610  0.47010  0.11330  Biso   1.000  H
  C11      1.0000 0.24000  0.85600  0.17300  Biso   1.000  C
  C12      1.0000 0.29600  0.60600  0.25500  Biso   1.000  C
  H11      1.0000 0.24690  0.94830  0.12960  Biso   1.000  H
  H12      1.0000 0.32720  0.51050  0.26230  Biso   1.000  H
  N5       1.0000 0.93260  0.14660  0.55910  Biso   1.000  N
  C13      1.0000 0.88750  0.90800  0.39650  Biso   1.000  C
  H13      1.0000 0.87610  0.02990  0.38670  Biso   1.000  H
  C14      1.0000 0.74000  0.64400  0.32700  Biso   1.000  C
  C15      1.0000 0.79600  0.89400  0.24500  Biso   1.000  C
  H14      1.0000 0.74690  0.55170  0.37040  Biso   1.000  H
  H15      1.0000 0.82720  0.98950  0.23770  Biso   1.000  H
  N6       1.0000 0.43260  0.64660  0.05910  Biso   1.000  N
  C16      1.0000 0.38750  0.40800  0.89650  Biso   1.000  C
  H16      1.0000 0.37610  0.52990  0.88670  Biso   1.000  H
  C17      1.0000 0.24000  0.14400  0.82700  Biso   1.000  C
  C18      1.0000 0.29600  0.39400  0.74500  Biso   1.000  C
  H17      1.0000 0.24690  0.05170  0.87040  Biso   1.000  H
  H18      1.0000 0.32720  0.48950  0.73770  Biso   1.000  H
  N7       1.0000 0.06740  0.35340  0.55910  Biso   1.000  N
  C19      1.0000 0.11250  0.59200  0.39650  Biso   1.000  C
  H19      1.0000 0.12390  0.47010  0.38670  Biso   1.000  H
  C20      1.0000 0.26000  0.85600  0.32700  Biso   1.000  C
  C21      1.0000 0.20400  0.60600  0.24500  Biso   1.000  C
  H20      1.0000 0.25310  0.94830  0.37040  Biso   1.000  H
  H21      1.0000 0.17280  0.51050  0.23770  Biso   1.000  H
  N8       1.0000 0.56740  0.85340  0.05910  Biso   1.000  N
  C22      1.0000 0.61250  0.09200  0.89650  Biso   1.000  C
  H22      1.0000 0.62390  0.97010  0.88670  Biso   1.000  H
  C23      1.0000 0.76000  0.35600  0.82700  Biso   1.000  C
  C24      1.0000 0.70400  0.10600  0.74500  Biso   1.000  C
  H23      1.0000 0.75310  0.44830  0.87040  Biso   1.000  H
  H24      1.0000 0.67280  0.01050  0.73770  Biso   1.000  H
  N9       1.0000 0.93260  0.35340  0.55910  Biso   1.000  N
  C25      1.0000 0.88750  0.59200  0.39650  Biso   1.000  C
  H25      1.0000 0.87610  0.47010  0.38670  Biso   1.000  H
  C26      1.0000 0.74000  0.85600  0.32700  Biso   1.000  C
  C27      1.0000 0.79600  0.60600  0.24500  Biso   1.000  C
  H26      1.0000 0.74690  0.94830  0.37040  Biso   1.000  H
  H27      1.0000 0.82720  0.51050  0.23770  Biso   1.000  H
  N10      1.0000 0.43260  0.85340  0.05910  Biso   1.000  N
  C28      1.0000 0.38750  0.09200  0.89650  Biso   1.000  C
  H28      1.0000 0.37610  0.97010  0.88670  Biso   1.000  H
  C29      1.0000 0.24000  0.35600  0.82700  Biso   1.000  C
  C30      1.0000 0.29600  0.10600  0.74500  Biso   1.000  C
  H29      1.0000 0.24690  0.44830  0.87040  Biso   1.000  H
  H30      1.0000 0.32720  0.01050  0.73770  Biso   1.000  H
  N11      1.0000 0.06740  0.14660  0.55910  Biso   1.000  N
  C31      1.0000 0.11250  0.90800  0.39650  Biso   1.000  C
  H31      1.0000 0.12390  0.02990  0.38670  Biso   1.000  H
  C32      1.0000 0.26000  0.64400  0.32700  Biso   1.000  C
  C33      1.0000 0.20400  0.89400  0.24500  Biso   1.000  C
  H32      1.0000 0.25310  0.55170  0.37040  Biso   1.000  H
  H33      1.0000 0.17280  0.98950  0.23770  Biso   1.000  H
  N12      1.0000 0.56740  0.64660  0.05910  Biso   1.000  N
  C34      1.0000 0.61250  0.40800  0.89650  Biso   1.000  C
  H34      1.0000 0.62390  0.52990  0.88670  Biso   1.000  H
  C35      1.0000 0.76000  0.14400  0.82700  Biso   1.000  C
  C36      1.0000 0.70400  0.39400  0.74500  Biso   1.000  C
  H35      1.0000 0.75310  0.05170  0.87040  Biso   1.000  H
  H36      1.0000 0.67280  0.48950  0.73770  Biso   1.000  H
  N13      1.0000 0.06740  0.85340  0.44090  Biso   1.000  N
  C37      1.0000 0.11250  0.09200  0.60350  Biso   1.000  C
  H37      1.0000 0.12390  0.97010  0.61330  Biso   1.000  H
  C38      1.0000 0.26000  0.35600  0.67300  Biso   1.000  C
  C39      1.0000 0.20400  0.10600  0.75500  Biso   1.000  C
  H38      1.0000 0.25310  0.44830  0.62960  Biso   1.000  H
  H39      1.0000 0.17280  0.01050  0.76230  Biso   1.000  H
  N14      1.0000 0.56740  0.35340  0.94090  Biso   1.000  N
  C40      1.0000 0.61250  0.59200  0.10350  Biso   1.000  C
  H40      1.0000 0.62390  0.47010  0.11330  Biso   1.000  H
  C41      1.0000 0.76000  0.85600  0.17300  Biso   1.000  C
  C42      1.0000 0.70400  0.60600  0.25500  Biso   1.000  C
  H41      1.0000 0.75310  0.94830  0.12960  Biso   1.000  H
  H42      1.0000 0.67280  0.51050  0.26230  Biso   1.000  H
  N15      1.0000 0.93260  0.64660  0.44090  Biso   1.000  N
  C43      1.0000 0.88750  0.40800  0.60350  Biso   1.000  C
  H43      1.0000 0.87610  0.52990  0.61330  Biso   1.000  H
  C44      1.0000 0.74000  0.14400  0.67300  Biso   1.000  C
  C45      1.0000 0.79600  0.39400  0.75500  Biso   1.000  C
  H44      1.0000 0.74690  0.05170  0.62960  Biso   1.000  H
  H45      1.0000 0.82720  0.48950  0.76230  Biso   1.000  H
  N16      1.0000 0.43260  0.14660  0.94090  Biso   1.000  N
  C46      1.0000 0.38750  0.90800  0.10350  Biso   1.000  C
  H46      1.0000 0.37610  0.02990  0.11330  Biso   1.000  H
  C47      1.0000 0.24000  0.64400  0.17300  Biso   1.000  C
  C48      1.0000 0.29600  0.89400  0.25500  Biso   1.000  C
  H47      1.0000 0.24690  0.55170  0.12960  Biso   1.000  H
  H48      1.0000 0.32720  0.98950  0.26230  Biso   1.000  H
  Br1      1.0000 0.00000  0.75000  0.63890  Biso   1.000  Br
  Br2      1.0000 0.50000  0.25000  0.13890  Biso   1.000  Br
  Br3      1.0000 0.00000  0.25000  0.36110  Biso   1.000  Br
  Br4      1.0000 0.50000  0.75000  0.86110  Biso   1.000  Br
  Cu1      1.0000 0.00000  0.50000  0.50000  Biso   1.000  Cu
  Cu2      1.0000 0.50000  0.00000  0.00000  Biso   1.000  Cu
  Cu3      1.0000 0.00000  0.00000  0.50000  Biso   1.000  Cu
  Cu4      1.0000 0.50000  0.50000  0.00000  Biso   1.000  Cu
  N17      1.0000 0.14380  0.25000  0.63690  Biso   1.000  N
  C49      1.0000 0.19720  0.25000  0.69900  Biso   1.000  C
  N18      1.0000 0.64380  0.75000  0.13690  Biso   1.000  N
  C50      1.0000 0.69720  0.75000  0.19900  Biso   1.000  C
  N19      1.0000 0.85620  0.25000  0.63690  Biso   1.000  N
  C51      1.0000 0.80280  0.25000  0.69900  Biso   1.000  C
  N20      1.0000 0.35620  0.75000  0.13690  Biso   1.000  N
  C52      1.0000 0.30280  0.75000  0.19900  Biso   1.000  C
  N21      1.0000 0.85620  0.75000  0.36310  Biso   1.000  N
  C53      1.0000 0.80280  0.75000  0.30100  Biso   1.000  C
  N22      1.0000 0.35620  0.25000  0.86310  Biso   1.000  N
  C54      1.0000 0.30280  0.25000  0.80100  Biso   1.000  C
  N23      1.0000 0.14380  0.75000  0.36310  Biso   1.000  N
  C55      1.0000 0.19720  0.75000  0.30100  Biso   1.000  C
  N24      1.0000 0.64380  0.25000  0.86310  Biso   1.000  N
  C56      1.0000 0.69720  0.25000  0.80100  Biso   1.000  C
