data_image0
_cell_length_a       21.85
_cell_length_b       7.3551
_cell_length_c       14.223
_cell_angle_alpha    90
_cell_angle_beta     90
_cell_angle_gamma    90

_symmetry_space_group_name_H-M    "P 1"
_symmetry_int_tables_number       1

loop_
  _symmetry_equiv_pos_as_xyz
  'x, y, z'

loop_
  _atom_site_label
  _atom_site_occupancy
  _atom_site_fract_x
  _atom_site_fract_y
  _atom_site_fract_z
  _atom_site_thermal_displace_type
  _atom_site_B_iso_or_equiv
  _atom_site_type_symbol
  N1       1.0000 0.43530  0.34480  0.56060  Biso   1.000  N
  C1       1.0000 0.38830  0.60190  0.38970  Biso   1.000  C
  H1       1.0000 0.37800  0.48140  0.37770  Biso   1.000  H
  C2       1.0000 0.25420  0.85500  0.33190  Biso   1.000  C
  C3       1.0000 0.29990  0.85400  0.22320  Biso   1.000  C
  H2       1.0000 0.25690  0.92030  0.39010  Biso   1.000  H
  H3       1.0000 0.33440  0.92580  0.20430  Biso   1.000  H
  N2       1.0000 0.93530  0.84480  0.06060  Biso   1.000  N
  C4       1.0000 0.88830  0.10190  0.88970  Biso   1.000  C
  H4       1.0000 0.87800  0.98140  0.87770  Biso   1.000  H
  C5       1.0000 0.75420  0.35500  0.83190  Biso   1.000  C
  C6       1.0000 0.79990  0.35400  0.72320  Biso   1.000  C
  H5       1.0000 0.75690  0.42030  0.89010  Biso   1.000  H
  H6       1.0000 0.83440  0.42580  0.70430  Biso   1.000  H
  N3       1.0000 0.56470  0.15520  0.56060  Biso   1.000  N
  C7       1.0000 0.61170  0.89810  0.38970  Biso   1.000  C
  H7       1.0000 0.62200  0.01860  0.37770  Biso   1.000  H
  C8       1.0000 0.74580  0.64500  0.33190  Biso   1.000  C
  C9       1.0000 0.70010  0.64600  0.22320  Biso   1.000  C
  H8       1.0000 0.74310  0.57970  0.39010  Biso   1.000  H
  H9       1.0000 0.66560  0.57420  0.20430  Biso   1.000  H
  N4       1.0000 0.06470  0.65520  0.06060  Biso   1.000  N
  C10      1.0000 0.11170  0.39810  0.88970  Biso   1.000  C
  H10      1.0000 0.12200  0.51860  0.87770  Biso   1.000  H
  C11      1.0000 0.24580  0.14500  0.83190  Biso   1.000  C
  C12      1.0000 0.20010  0.14600  0.72320  Biso   1.000  C
  H11      1.0000 0.24310  0.07970  0.89010  Biso   1.000  H
  H12      1.0000 0.16560  0.07420  0.70430  Biso   1.000  H
  N5       1.0000 0.56470  0.84480  0.43940  Biso   1.000  N
  C13      1.0000 0.61170  0.10190  0.61030  Biso   1.000  C
  H13      1.0000 0.62200  0.98140  0.62230  Biso   1.000  H
  C14      1.0000 0.74580  0.35500  0.66810  Biso   1.000  C
  C15      1.0000 0.70010  0.35400  0.77680  Biso   1.000  C
  H14      1.0000 0.74310  0.42030  0.60990  Biso   1.000  H
  H15      1.0000 0.66560  0.42580  0.79570  Biso   1.000  H
  N6       1.0000 0.06470  0.34480  0.93940  Biso   1.000  N
  C16      1.0000 0.11170  0.60190  0.11030  Biso   1.000  C
  H16      1.0000 0.12200  0.48140  0.12230  Biso   1.000  H
  C17      1.0000 0.24580  0.85500  0.16810  Biso   1.000  C
  C18      1.0000 0.20010  0.85400  0.27680  Biso   1.000  C
  H17      1.0000 0.24310  0.92030  0.10990  Biso   1.000  H
  H18      1.0000 0.16560  0.92580  0.29570  Biso   1.000  H
  N7       1.0000 0.43530  0.65520  0.43940  Biso   1.000  N
  C19      1.0000 0.38830  0.39810  0.61030  Biso   1.000  C
  H19      1.0000 0.37800  0.51860  0.62230  Biso   1.000  H
  C20      1.0000 0.25420  0.14500  0.66810  Biso   1.000  C
  C21      1.0000 0.29990  0.14600  0.77680  Biso   1.000  C
  H20      1.0000 0.25690  0.07970  0.60990  Biso   1.000  H
  H21      1.0000 0.33440  0.07420  0.79570  Biso   1.000  H
  N8       1.0000 0.93530  0.15520  0.93940  Biso   1.000  N
  C22      1.0000 0.88830  0.89810  0.11030  Biso   1.000  C
  H22      1.0000 0.87800  0.01860  0.12230  Biso   1.000  H
  C23      1.0000 0.75420  0.64500  0.16810  Biso   1.000  C
  C24      1.0000 0.79990  0.64600  0.27680  Biso   1.000  C
  H23      1.0000 0.75690  0.57970  0.10990  Biso   1.000  H
  H24      1.0000 0.83440  0.57420  0.29570  Biso   1.000  H
  N9       1.0000 0.56470  0.65520  0.43940  Biso   1.000  N
  C25      1.0000 0.61170  0.39810  0.61030  Biso   1.000  C
  H25      1.0000 0.62200  0.51860  0.62230  Biso   1.000  H
  C26      1.0000 0.74580  0.14500  0.66810  Biso   1.000  C
  C27      1.0000 0.70010  0.14600  0.77680  Biso   1.000  C
  H26      1.0000 0.74310  0.07970  0.60990  Biso   1.000  H
  H27      1.0000 0.66560  0.07420  0.79570  Biso   1.000  H
  N10      1.0000 0.06470  0.15520  0.93940  Biso   1.000  N
  C28      1.0000 0.11170  0.89810  0.11030  Biso   1.000  C
  H28      1.0000 0.12200  0.01860  0.12230  Biso   1.000  H
  C29      1.0000 0.24580  0.64500  0.16810  Biso   1.000  C
  C30      1.0000 0.20010  0.64600  0.27680  Biso   1.000  C
  H29      1.0000 0.24310  0.57970  0.10990  Biso   1.000  H
  H30      1.0000 0.16560  0.57420  0.29570  Biso   1.000  H
  N11      1.0000 0.43530  0.84480  0.43940  Biso   1.000  N
  C31      1.0000 0.38830  0.10190  0.61030  Biso   1.000  C
  H31      1.0000 0.37800  0.98140  0.62230  Biso   1.000  H
  C32      1.0000 0.25420  0.35500  0.66810  Biso   1.000  C
  C33      1.0000 0.29990  0.35400  0.77680  Biso   1.000  C
  H32      1.0000 0.25690  0.42030  0.60990  Biso   1.000  H
  H33      1.0000 0.33440  0.42580  0.79570  Biso   1.000  H
  N12      1.0000 0.93530  0.34480  0.93940  Biso   1.000  N
  C34      1.0000 0.88830  0.60190  0.11030  Biso   1.000  C
  H34      1.0000 0.87800  0.48140  0.12230  Biso   1.000  H
  C35      1.0000 0.75420  0.85500  0.16810  Biso   1.000  C
  C36      1.0000 0.79990  0.85400  0.27680  Biso   1.000  C
  H35      1.0000 0.75690  0.92030  0.10990  Biso   1.000  H
  H36      1.0000 0.83440  0.92580  0.29570  Biso   1.000  H
  N13      1.0000 0.43530  0.15520  0.56060  Biso   1.000  N
  C37      1.0000 0.38830  0.89810  0.38970  Biso   1.000  C
  H37      1.0000 0.37800  0.01860  0.37770  Biso   1.000  H
  C38      1.0000 0.25420  0.64500  0.33190  Biso   1.000  C
  C39      1.0000 0.29990  0.64600  0.22320  Biso   1.000  C
  H38      1.0000 0.25690  0.57970  0.39010  Biso   1.000  H
  H39      1.0000 0.33440  0.57420  0.20430  Biso   1.000  H
  N14      1.0000 0.93530  0.65520  0.06060  Biso   1.000  N
  C40      1.0000 0.88830  0.39810  0.88970  Biso   1.000  C
  H40      1.0000 0.87800  0.51860  0.87770  Biso   1.000  H
  C41      1.0000 0.75420  0.14500  0.83190  Biso   1.000  C
  C42      1.0000 0.79990  0.14600  0.72320  Biso   1.000  C
  H41      1.0000 0.75690  0.07970  0.89010  Biso   1.000  H
  H42      1.0000 0.83440  0.07420  0.70430  Biso   1.000  H
  N15      1.0000 0.56470  0.34480  0.56060  Biso   1.000  N
  C43      1.0000 0.61170  0.60190  0.38970  Biso   1.000  C
  H43      1.0000 0.62200  0.48140  0.37770  Biso   1.000  H
  C44      1.0000 0.74580  0.85500  0.33190  Biso   1.000  C
  C45      1.0000 0.70010  0.85400  0.22320  Biso   1.000  C
  H44      1.0000 0.74310  0.92030  0.39010  Biso   1.000  H
  H45      1.0000 0.66560  0.92580  0.20430  Biso   1.000  H
  N16      1.0000 0.06470  0.84480  0.06060  Biso   1.000  N
  C46      1.0000 0.11170  0.10190  0.88970  Biso   1.000  C
  H46      1.0000 0.12200  0.98140  0.87770  Biso   1.000  H
  C47      1.0000 0.24580  0.35500  0.83190  Biso   1.000  C
  C48      1.0000 0.20010  0.35400  0.72320  Biso   1.000  C
  H47      1.0000 0.24310  0.42030  0.89010  Biso   1.000  H
  H48      1.0000 0.16560  0.42580  0.70430  Biso   1.000  H
  Br1      1.0000 0.50000  0.25000  0.34974  Biso   1.000  Br
  Br2      1.0000 0.00000  0.75000  0.84974  Biso   1.000  Br
  Br3      1.0000 0.50000  0.75000  0.65026  Biso   1.000  Br
  Br4      1.0000 0.00000  0.25000  0.15026  Biso   1.000  Br
  Cu1      1.0000 0.50000  0.50000  0.50000  Biso   1.000  Cu
  Cu2      1.0000 0.00000  0.00000  0.00000  Biso   1.000  Cu
  Cu3      1.0000 0.50000  0.00000  0.50000  Biso   1.000  Cu
  Cu4      1.0000 0.00000  0.50000  0.00000  Biso   1.000  Cu
  N17      1.0000 0.35670  0.75000  0.35800  Biso   1.000  N
  C49      1.0000 0.30200  0.75000  0.30370  Biso   1.000  C
  N18      1.0000 0.85670  0.25000  0.85800  Biso   1.000  N
  C50      1.0000 0.80200  0.25000  0.80370  Biso   1.000  C
  N19      1.0000 0.64330  0.75000  0.35800  Biso   1.000  N
  C51      1.0000 0.69800  0.75000  0.30370  Biso   1.000  C
  N20      1.0000 0.14330  0.25000  0.85800  Biso   1.000  N
  C52      1.0000 0.19800  0.25000  0.80370  Biso   1.000  C
  N21      1.0000 0.64330  0.25000  0.64200  Biso   1.000  N
  C53      1.0000 0.69800  0.25000  0.69630  Biso   1.000  C
  N22      1.0000 0.14330  0.75000  0.14200  Biso   1.000  N
  C54      1.0000 0.19800  0.75000  0.19630  Biso   1.000  C
  N23      1.0000 0.35670  0.25000  0.64200  Biso   1.000  N
  C55      1.0000 0.30200  0.25000  0.69630  Biso   1.000  C
  N24      1.0000 0.85670  0.75000  0.14200  Biso   1.000  N
  C56      1.0000 0.80200  0.75000  0.19630  Biso   1.000  C
