data_image0
_cell_length_a       21.526
_cell_length_b       7.3473
_cell_length_c       14.68
_cell_angle_alpha    90
_cell_angle_beta     90
_cell_angle_gamma    90

_symmetry_space_group_name_H-M    "P 1"
_symmetry_int_tables_number       1

loop_
  _symmetry_equiv_pos_as_xyz
  'x, y, z'

loop_
  _atom_site_label
  _atom_site_occupancy
  _atom_site_fract_x
  _atom_site_fract_y
  _atom_site_fract_z
  _atom_site_thermal_displace_type
  _atom_site_B_iso_or_equiv
  _atom_site_type_symbol
  N1       1.0000 0.06589  0.34360  0.44020  Biso   1.000  N
  C1       1.0000 0.11310  0.60350  0.60860  Biso   1.000  C
  H1       1.0000 0.12400  0.48310  0.61950  Biso   1.000  H
  C2       1.0000 0.24760  0.64510  0.67090  Biso   1.000  C
  C3       1.0000 0.19840  0.85300  0.77350  Biso   1.000  C
  H2       1.0000 0.24600  0.57530  0.61560  Biso   1.000  H
  H3       1.0000 0.16250  0.92310  0.78970  Biso   1.000  H
  N2       1.0000 0.56589  0.84360  0.94020  Biso   1.000  N
  C4       1.0000 0.61310  0.10350  0.10860  Biso   1.000  C
  H4       1.0000 0.62400  0.98310  0.11950  Biso   1.000  H
  C5       1.0000 0.74760  0.14510  0.17090  Biso   1.000  C
  C6       1.0000 0.69840  0.35300  0.27350  Biso   1.000  C
  H5       1.0000 0.74600  0.07530  0.11560  Biso   1.000  H
  H6       1.0000 0.66250  0.42310  0.28970  Biso   1.000  H
  N3       1.0000 0.93411  0.15640  0.44020  Biso   1.000  N
  C7       1.0000 0.88690  0.89650  0.60860  Biso   1.000  C
  H7       1.0000 0.87600  0.01690  0.61950  Biso   1.000  H
  C8       1.0000 0.75240  0.85490  0.67090  Biso   1.000  C
  C9       1.0000 0.80160  0.64700  0.77350  Biso   1.000  C
  H8       1.0000 0.75400  0.92470  0.61560  Biso   1.000  H
  H9       1.0000 0.83750  0.57690  0.78970  Biso   1.000  H
  N4       1.0000 0.43411  0.65640  0.94020  Biso   1.000  N
  C10      1.0000 0.38690  0.39650  0.10860  Biso   1.000  C
  H10      1.0000 0.37600  0.51690  0.11950  Biso   1.000  H
  C11      1.0000 0.25240  0.35490  0.17090  Biso   1.000  C
  C12      1.0000 0.30160  0.14700  0.27350  Biso   1.000  C
  H11      1.0000 0.25400  0.42470  0.11560  Biso   1.000  H
  H12      1.0000 0.33750  0.07690  0.28970  Biso   1.000  H
  N5       1.0000 0.93411  0.84360  0.55980  Biso   1.000  N
  C13      1.0000 0.88690  0.10350  0.39140  Biso   1.000  C
  H13      1.0000 0.87600  0.98310  0.38050  Biso   1.000  H
  C14      1.0000 0.75240  0.14510  0.32910  Biso   1.000  C
  C15      1.0000 0.80160  0.35300  0.22650  Biso   1.000  C
  H14      1.0000 0.75400  0.07530  0.38440  Biso   1.000  H
  H15      1.0000 0.83750  0.42310  0.21030  Biso   1.000  H
  N6       1.0000 0.43411  0.34360  0.05980  Biso   1.000  N
  C16      1.0000 0.38690  0.60350  0.89140  Biso   1.000  C
  H16      1.0000 0.37600  0.48310  0.88050  Biso   1.000  H
  C17      1.0000 0.25240  0.64510  0.82910  Biso   1.000  C
  C18      1.0000 0.30160  0.85300  0.72650  Biso   1.000  C
  H17      1.0000 0.25400  0.57530  0.88440  Biso   1.000  H
  H18      1.0000 0.33750  0.92310  0.71030  Biso   1.000  H
  N7       1.0000 0.06589  0.65640  0.55980  Biso   1.000  N
  C19      1.0000 0.11310  0.39650  0.39140  Biso   1.000  C
  H19      1.0000 0.12400  0.51690  0.38050  Biso   1.000  H
  C20      1.0000 0.24760  0.35490  0.32910  Biso   1.000  C
  C21      1.0000 0.19840  0.14700  0.22650  Biso   1.000  C
  H20      1.0000 0.24600  0.42470  0.38440  Biso   1.000  H
  H21      1.0000 0.16250  0.07690  0.21030  Biso   1.000  H
  N8       1.0000 0.56589  0.15640  0.05980  Biso   1.000  N
  C22      1.0000 0.61310  0.89650  0.89140  Biso   1.000  C
  H22      1.0000 0.62400  0.01690  0.88050  Biso   1.000  H
  C23      1.0000 0.74760  0.85490  0.82910  Biso   1.000  C
  C24      1.0000 0.69840  0.64700  0.72650  Biso   1.000  C
  H23      1.0000 0.74600  0.92470  0.88440  Biso   1.000  H
  H24      1.0000 0.66250  0.57690  0.71030  Biso   1.000  H
  N9       1.0000 0.93411  0.65640  0.55980  Biso   1.000  N
  C25      1.0000 0.88690  0.39650  0.39140  Biso   1.000  C
  H25      1.0000 0.87600  0.51690  0.38050  Biso   1.000  H
  C26      1.0000 0.75240  0.35490  0.32910  Biso   1.000  C
  C27      1.0000 0.80160  0.14700  0.22650  Biso   1.000  C
  H26      1.0000 0.75400  0.42470  0.38440  Biso   1.000  H
  H27      1.0000 0.83750  0.07690  0.21030  Biso   1.000  H
  N10      1.0000 0.43411  0.15640  0.05980  Biso   1.000  N
  C28      1.0000 0.38690  0.89650  0.89140  Biso   1.000  C
  H28      1.0000 0.37600  0.01690  0.88050  Biso   1.000  H
  C29      1.0000 0.25240  0.85490  0.82910  Biso   1.000  C
  C30      1.0000 0.30160  0.64700  0.72650  Biso   1.000  C
  H29      1.0000 0.25400  0.92470  0.88440  Biso   1.000  H
  H30      1.0000 0.33750  0.57690  0.71030  Biso   1.000  H
  N11      1.0000 0.06589  0.84360  0.55980  Biso   1.000  N
  C31      1.0000 0.11310  0.10350  0.39140  Biso   1.000  C
  H31      1.0000 0.12400  0.98310  0.38050  Biso   1.000  H
  C32      1.0000 0.24760  0.14510  0.32910  Biso   1.000  C
  C33      1.0000 0.19840  0.35300  0.22650  Biso   1.000  C
  H32      1.0000 0.24600  0.07530  0.38440  Biso   1.000  H
  H33      1.0000 0.16250  0.42310  0.21030  Biso   1.000  H
  N12      1.0000 0.56589  0.34360  0.05980  Biso   1.000  N
  C34      1.0000 0.61310  0.60350  0.89140  Biso   1.000  C
  H34      1.0000 0.62400  0.48310  0.88050  Biso   1.000  H
  C35      1.0000 0.74760  0.64510  0.82910  Biso   1.000  C
  C36      1.0000 0.69840  0.85300  0.72650  Biso   1.000  C
  H35      1.0000 0.74600  0.57530  0.88440  Biso   1.000  H
  H36      1.0000 0.66250  0.92310  0.71030  Biso   1.000  H
  N13      1.0000 0.06589  0.15640  0.44020  Biso   1.000  N
  C37      1.0000 0.11310  0.89650  0.60860  Biso   1.000  C
  H37      1.0000 0.12400  0.01690  0.61950  Biso   1.000  H
  C38      1.0000 0.24760  0.85490  0.67090  Biso   1.000  C
  C39      1.0000 0.19840  0.64700  0.77350  Biso   1.000  C
  H38      1.0000 0.24600  0.92470  0.61560  Biso   1.000  H
  H39      1.0000 0.16250  0.57690  0.78970  Biso   1.000  H
  N14      1.0000 0.56589  0.65640  0.94020  Biso   1.000  N
  C40      1.0000 0.61310  0.39650  0.10860  Biso   1.000  C
  H40      1.0000 0.62400  0.51690  0.11950  Biso   1.000  H
  C41      1.0000 0.74760  0.35490  0.17090  Biso   1.000  C
  C42      1.0000 0.69840  0.14700  0.27350  Biso   1.000  C
  H41      1.0000 0.74600  0.42470  0.11560  Biso   1.000  H
  H42      1.0000 0.66250  0.07690  0.28970  Biso   1.000  H
  N15      1.0000 0.93411  0.34360  0.44020  Biso   1.000  N
  C43      1.0000 0.88690  0.60350  0.60860  Biso   1.000  C
  H43      1.0000 0.87600  0.48310  0.61950  Biso   1.000  H
  C44      1.0000 0.75240  0.64510  0.67090  Biso   1.000  C
  C45      1.0000 0.80160  0.85300  0.77350  Biso   1.000  C
  H44      1.0000 0.75400  0.57530  0.61560  Biso   1.000  H
  H45      1.0000 0.83750  0.92310  0.78970  Biso   1.000  H
  N16      1.0000 0.43411  0.84360  0.94020  Biso   1.000  N
  C46      1.0000 0.38690  0.10350  0.10860  Biso   1.000  C
  H46      1.0000 0.37600  0.98310  0.11950  Biso   1.000  H
  C47      1.0000 0.25240  0.14510  0.17090  Biso   1.000  C
  C48      1.0000 0.30160  0.35300  0.27350  Biso   1.000  C
  H47      1.0000 0.25400  0.07530  0.11560  Biso   1.000  H
  H48      1.0000 0.33750  0.42310  0.28970  Biso   1.000  H
  Br1      1.0000 0.00000  0.25000  0.64568  Biso   1.000  Br
  Br2      1.0000 0.50000  0.75000  0.14568  Biso   1.000  Br
  Br3      1.0000 0.00000  0.75000  0.35432  Biso   1.000  Br
  Br4      1.0000 0.50000  0.25000  0.85432  Biso   1.000  Br
  Cu1      1.0000 0.00000  0.50000  0.50000  Biso   1.000  Cu
  Cu2      1.0000 0.50000  0.00000  0.00000  Biso   1.000  Cu
  Cu3      1.0000 0.00000  0.00000  0.50000  Biso   1.000  Cu
  Cu4      1.0000 0.50000  0.50000  0.00000  Biso   1.000  Cu
  N17      1.0000 0.14370  0.75000  0.64070  Biso   1.000  N
  C49      1.0000 0.19830  0.75000  0.69710  Biso   1.000  C
  N18      1.0000 0.64370  0.25000  0.14070  Biso   1.000  N
  C50      1.0000 0.69830  0.25000  0.19710  Biso   1.000  C
  N19      1.0000 0.85630  0.75000  0.64070  Biso   1.000  N
  C51      1.0000 0.80170  0.75000  0.69710  Biso   1.000  C
  N20      1.0000 0.35630  0.25000  0.14070  Biso   1.000  N
  C52      1.0000 0.30170  0.25000  0.19710  Biso   1.000  C
  N21      1.0000 0.85630  0.25000  0.35930  Biso   1.000  N
  C53      1.0000 0.80170  0.25000  0.30290  Biso   1.000  C
  N22      1.0000 0.35630  0.75000  0.85930  Biso   1.000  N
  C54      1.0000 0.30170  0.75000  0.80290  Biso   1.000  C
  N23      1.0000 0.14370  0.25000  0.35930  Biso   1.000  N
  C55      1.0000 0.19830  0.25000  0.30290  Biso   1.000  C
  N24      1.0000 0.64370  0.75000  0.85930  Biso   1.000  N
  C56      1.0000 0.69830  0.75000  0.80290  Biso   1.000  C
