data_image0
_cell_length_a       20.896
_cell_length_b       7.2476
_cell_length_c       15.503
_cell_angle_alpha    90
_cell_angle_beta     90
_cell_angle_gamma    90

_symmetry_space_group_name_H-M    "P 1"
_symmetry_int_tables_number       1

loop_
  _symmetry_equiv_pos_as_xyz
  'x, y, z'

loop_
  _atom_site_label
  _atom_site_occupancy
  _atom_site_fract_x
  _atom_site_fract_y
  _atom_site_fract_z
  _atom_site_thermal_displace_type
  _atom_site_B_iso_or_equiv
  _atom_site_type_symbol
  N1       1.0000 0.43240  0.35010  0.55780  Biso   1.000  N
  C1       1.0000 0.38490  0.59960  0.39390  Biso   1.000  C
  H1       1.0000 0.37180  0.47880  0.38430  Biso   1.000  H
  C2       1.0000 0.24600  0.84500  0.31700  Biso   1.000  C
  C3       1.0000 0.29820  0.89100  0.23900  Biso   1.000  C
  H2       1.0000 0.24150  0.90140  0.37270  Biso   1.000  H
  H3       1.0000 0.32650  0.99470  0.23370  Biso   1.000  H
  N2       1.0000 0.93240  0.85010  0.05780  Biso   1.000  N
  C4       1.0000 0.88490  0.09960  0.89390  Biso   1.000  C
  H4       1.0000 0.87180  0.97880  0.88430  Biso   1.000  H
  C5       1.0000 0.74600  0.34500  0.81700  Biso   1.000  C
  C6       1.0000 0.79820  0.39100  0.73900  Biso   1.000  C
  H5       1.0000 0.74150  0.40140  0.87270  Biso   1.000  H
  H6       1.0000 0.82650  0.49470  0.73370  Biso   1.000  H
  N3       1.0000 0.56760  0.14990  0.55780  Biso   1.000  N
  C7       1.0000 0.61510  0.90040  0.39390  Biso   1.000  C
  H7       1.0000 0.62820  0.02120  0.38430  Biso   1.000  H
  C8       1.0000 0.75400  0.65500  0.31700  Biso   1.000  C
  C9       1.0000 0.70180  0.60900  0.23900  Biso   1.000  C
  H8       1.0000 0.75850  0.59860  0.37270  Biso   1.000  H
  H9       1.0000 0.67350  0.50530  0.23370  Biso   1.000  H
  N4       1.0000 0.06760  0.64990  0.05780  Biso   1.000  N
  C10      1.0000 0.11510  0.40040  0.89390  Biso   1.000  C
  H10      1.0000 0.12820  0.52120  0.88430  Biso   1.000  H
  C11      1.0000 0.25400  0.15500  0.81700  Biso   1.000  C
  C12      1.0000 0.20180  0.10900  0.73900  Biso   1.000  C
  H11      1.0000 0.25850  0.09860  0.87270  Biso   1.000  H
  H12      1.0000 0.17350  0.00530  0.73370  Biso   1.000  H
  N5       1.0000 0.56760  0.85010  0.44220  Biso   1.000  N
  C13      1.0000 0.61510  0.09960  0.60610  Biso   1.000  C
  H13      1.0000 0.62820  0.97880  0.61570  Biso   1.000  H
  C14      1.0000 0.75400  0.34500  0.68300  Biso   1.000  C
  C15      1.0000 0.70180  0.39100  0.76100  Biso   1.000  C
  H14      1.0000 0.75850  0.40140  0.62730  Biso   1.000  H
  H15      1.0000 0.67350  0.49470  0.76630  Biso   1.000  H
  N6       1.0000 0.06760  0.35010  0.94220  Biso   1.000  N
  C16      1.0000 0.11510  0.59960  0.10610  Biso   1.000  C
  H16      1.0000 0.12820  0.47880  0.11570  Biso   1.000  H
  C17      1.0000 0.25400  0.84500  0.18300  Biso   1.000  C
  C18      1.0000 0.20180  0.89100  0.26100  Biso   1.000  C
  H17      1.0000 0.25850  0.90140  0.12730  Biso   1.000  H
  H18      1.0000 0.17350  0.99470  0.26630  Biso   1.000  H
  N7       1.0000 0.43240  0.64990  0.44220  Biso   1.000  N
  C19      1.0000 0.38490  0.40040  0.60610  Biso   1.000  C
  H19      1.0000 0.37180  0.52120  0.61570  Biso   1.000  H
  C20      1.0000 0.24600  0.15500  0.68300  Biso   1.000  C
  C21      1.0000 0.29820  0.10900  0.76100  Biso   1.000  C
  H20      1.0000 0.24150  0.09860  0.62730  Biso   1.000  H
  H21      1.0000 0.32650  0.00530  0.76630  Biso   1.000  H
  N8       1.0000 0.93240  0.14990  0.94220  Biso   1.000  N
  C22      1.0000 0.88490  0.90040  0.10610  Biso   1.000  C
  H22      1.0000 0.87180  0.02120  0.11570  Biso   1.000  H
  C23      1.0000 0.74600  0.65500  0.18300  Biso   1.000  C
  C24      1.0000 0.79820  0.60900  0.26100  Biso   1.000  C
  H23      1.0000 0.74150  0.59860  0.12730  Biso   1.000  H
  H24      1.0000 0.82650  0.50530  0.26630  Biso   1.000  H
  N9       1.0000 0.56760  0.64990  0.44220  Biso   1.000  N
  C25      1.0000 0.61510  0.40040  0.60610  Biso   1.000  C
  H25      1.0000 0.62820  0.52120  0.61570  Biso   1.000  H
  C26      1.0000 0.75400  0.15500  0.68300  Biso   1.000  C
  C27      1.0000 0.70180  0.10900  0.76100  Biso   1.000  C
  H26      1.0000 0.75850  0.09860  0.62730  Biso   1.000  H
  H27      1.0000 0.67350  0.00530  0.76630  Biso   1.000  H
  N10      1.0000 0.06760  0.14990  0.94220  Biso   1.000  N
  C28      1.0000 0.11510  0.90040  0.10610  Biso   1.000  C
  H28      1.0000 0.12820  0.02120  0.11570  Biso   1.000  H
  C29      1.0000 0.25400  0.65500  0.18300  Biso   1.000  C
  C30      1.0000 0.20180  0.60900  0.26100  Biso   1.000  C
  H29      1.0000 0.25850  0.59860  0.12730  Biso   1.000  H
  H30      1.0000 0.17350  0.50530  0.26630  Biso   1.000  H
  N11      1.0000 0.43240  0.85010  0.44220  Biso   1.000  N
  C31      1.0000 0.38490  0.09960  0.60610  Biso   1.000  C
  H31      1.0000 0.37180  0.97880  0.61570  Biso   1.000  H
  C32      1.0000 0.24600  0.34500  0.68300  Biso   1.000  C
  C33      1.0000 0.29820  0.39100  0.76100  Biso   1.000  C
  H32      1.0000 0.24150  0.40140  0.62730  Biso   1.000  H
  H33      1.0000 0.32650  0.49470  0.76630  Biso   1.000  H
  N12      1.0000 0.93240  0.35010  0.94220  Biso   1.000  N
  C34      1.0000 0.88490  0.59960  0.10610  Biso   1.000  C
  H34      1.0000 0.87180  0.47880  0.11570  Biso   1.000  H
  C35      1.0000 0.74600  0.84500  0.18300  Biso   1.000  C
  C36      1.0000 0.79820  0.89100  0.26100  Biso   1.000  C
  H35      1.0000 0.74150  0.90140  0.12730  Biso   1.000  H
  H36      1.0000 0.82650  0.99470  0.26630  Biso   1.000  H
  N13      1.0000 0.43240  0.14990  0.55780  Biso   1.000  N
  C37      1.0000 0.38490  0.90040  0.39390  Biso   1.000  C
  H37      1.0000 0.37180  0.02120  0.38430  Biso   1.000  H
  C38      1.0000 0.24600  0.65500  0.31700  Biso   1.000  C
  C39      1.0000 0.29820  0.60900  0.23900  Biso   1.000  C
  H38      1.0000 0.24150  0.59860  0.37270  Biso   1.000  H
  H39      1.0000 0.32650  0.50530  0.23370  Biso   1.000  H
  N14      1.0000 0.93240  0.64990  0.05780  Biso   1.000  N
  C40      1.0000 0.88490  0.40040  0.89390  Biso   1.000  C
  H40      1.0000 0.87180  0.52120  0.88430  Biso   1.000  H
  C41      1.0000 0.74600  0.15500  0.81700  Biso   1.000  C
  C42      1.0000 0.79820  0.10900  0.73900  Biso   1.000  C
  H41      1.0000 0.74150  0.09860  0.87270  Biso   1.000  H
  H42      1.0000 0.82650  0.00530  0.73370  Biso   1.000  H
  N15      1.0000 0.56760  0.35010  0.55780  Biso   1.000  N
  C43      1.0000 0.61510  0.59960  0.39390  Biso   1.000  C
  H43      1.0000 0.62820  0.47880  0.38430  Biso   1.000  H
  C44      1.0000 0.75400  0.84500  0.31700  Biso   1.000  C
  C45      1.0000 0.70180  0.89100  0.23900  Biso   1.000  C
  H44      1.0000 0.75850  0.90140  0.37270  Biso   1.000  H
  H45      1.0000 0.67350  0.99470  0.23370  Biso   1.000  H
  N16      1.0000 0.06760  0.85010  0.05780  Biso   1.000  N
  C46      1.0000 0.11510  0.09960  0.89390  Biso   1.000  C
  H46      1.0000 0.12820  0.97880  0.88430  Biso   1.000  H
  C47      1.0000 0.25400  0.34500  0.81700  Biso   1.000  C
  C48      1.0000 0.20180  0.39100  0.73900  Biso   1.000  C
  H47      1.0000 0.25850  0.40140  0.87270  Biso   1.000  H
  H48      1.0000 0.17350  0.49470  0.73370  Biso   1.000  H
  Br1      1.0000 0.50000  0.25000  0.36140  Biso   1.000  Br
  Br2      1.0000 0.00000  0.75000  0.86140  Biso   1.000  Br
  Br3      1.0000 0.50000  0.75000  0.63860  Biso   1.000  Br
  Br4      1.0000 0.00000  0.25000  0.13860  Biso   1.000  Br
  Cu1      1.0000 0.50000  0.50000  0.50000  Biso   1.000  Cu
  Cu2      1.0000 0.00000  0.00000  0.00000  Biso   1.000  Cu
  Cu3      1.0000 0.50000  0.00000  0.50000  Biso   1.000  Cu
  Cu4      1.0000 0.00000  0.50000  0.00000  Biso   1.000  Cu
  N17      1.0000 0.35810  0.75000  0.36030  Biso   1.000  N
  C49      1.0000 0.30240  0.75000  0.30380  Biso   1.000  C
  N18      1.0000 0.85810  0.25000  0.86030  Biso   1.000  N
  C50      1.0000 0.80240  0.25000  0.80380  Biso   1.000  C
  N19      1.0000 0.64190  0.75000  0.36030  Biso   1.000  N
  C51      1.0000 0.69760  0.75000  0.30380  Biso   1.000  C
  N20      1.0000 0.14190  0.25000  0.86030  Biso   1.000  N
  C52      1.0000 0.19760  0.25000  0.80380  Biso   1.000  C
  N21      1.0000 0.64190  0.25000  0.63970  Biso   1.000  N
  C53      1.0000 0.69760  0.25000  0.69620  Biso   1.000  C
  N22      1.0000 0.14190  0.75000  0.13970  Biso   1.000  N
  C54      1.0000 0.19760  0.75000  0.19620  Biso   1.000  C
  N23      1.0000 0.35810  0.25000  0.63970  Biso   1.000  N
  C55      1.0000 0.30240  0.25000  0.69620  Biso   1.000  C
  N24      1.0000 0.85810  0.75000  0.13970  Biso   1.000  N
  C56      1.0000 0.80240  0.75000  0.19620  Biso   1.000  C
