data_image0
_cell_length_a       21.742
_cell_length_b       7.367
_cell_length_c       14.417
_cell_angle_alpha    90
_cell_angle_beta     90
_cell_angle_gamma    90

_symmetry_space_group_name_H-M    "P 1"
_symmetry_int_tables_number       1

loop_
  _symmetry_equiv_pos_as_xyz
  'x, y, z'

loop_
  _atom_site_label
  _atom_site_occupancy
  _atom_site_fract_x
  _atom_site_fract_y
  _atom_site_fract_z
  _atom_site_thermal_displace_type
  _atom_site_B_iso_or_equiv
  _atom_site_type_symbol
  N1       1.0000 0.43520  0.34490  0.55970  Biso   1.000  N
  C1       1.0000 0.38760  0.60150  0.39080  Biso   1.000  C
  H1       1.0000 0.37690  0.48140  0.37920  Biso   1.000  H
  C2       1.0000 0.30050  0.85200  0.22390  Biso   1.000  C
  C3       1.0000 0.25380  0.85000  0.33180  Biso   1.000  C
  H2       1.0000 0.33470  0.92630  0.20610  Biso   1.000  H
  H3       1.0000 0.25580  0.91420  0.38970  Biso   1.000  H
  N2       1.0000 0.93520  0.84490  0.05970  Biso   1.000  N
  C4       1.0000 0.88760  0.10150  0.89080  Biso   1.000  C
  H4       1.0000 0.87690  0.98140  0.87920  Biso   1.000  H
  C5       1.0000 0.80050  0.35200  0.72390  Biso   1.000  C
  C6       1.0000 0.75380  0.35000  0.83180  Biso   1.000  C
  H5       1.0000 0.83470  0.42630  0.70610  Biso   1.000  H
  H6       1.0000 0.75580  0.41420  0.88970  Biso   1.000  H
  N3       1.0000 0.56480  0.15510  0.55970  Biso   1.000  N
  C7       1.0000 0.61240  0.89850  0.39080  Biso   1.000  C
  H7       1.0000 0.62310  0.01860  0.37920  Biso   1.000  H
  C8       1.0000 0.69950  0.64800  0.22390  Biso   1.000  C
  C9       1.0000 0.74620  0.65000  0.33180  Biso   1.000  C
  H8       1.0000 0.66530  0.57370  0.20610  Biso   1.000  H
  H9       1.0000 0.74420  0.58580  0.38970  Biso   1.000  H
  N4       1.0000 0.06480  0.65510  0.05970  Biso   1.000  N
  C10      1.0000 0.11240  0.39850  0.89080  Biso   1.000  C
  H10      1.0000 0.12310  0.51860  0.87920  Biso   1.000  H
  C11      1.0000 0.19950  0.14800  0.72390  Biso   1.000  C
  C12      1.0000 0.24620  0.15000  0.83180  Biso   1.000  C
  H11      1.0000 0.16530  0.07370  0.70610  Biso   1.000  H
  H12      1.0000 0.24420  0.08580  0.88970  Biso   1.000  H
  N5       1.0000 0.56480  0.84490  0.44030  Biso   1.000  N
  C13      1.0000 0.61240  0.10150  0.60920  Biso   1.000  C
  H13      1.0000 0.62310  0.98140  0.62080  Biso   1.000  H
  C14      1.0000 0.69950  0.35200  0.77610  Biso   1.000  C
  C15      1.0000 0.74620  0.35000  0.66820  Biso   1.000  C
  H14      1.0000 0.66530  0.42630  0.79390  Biso   1.000  H
  H15      1.0000 0.74420  0.41420  0.61030  Biso   1.000  H
  N6       1.0000 0.06480  0.34490  0.94030  Biso   1.000  N
  C16      1.0000 0.11240  0.60150  0.10920  Biso   1.000  C
  H16      1.0000 0.12310  0.48140  0.12080  Biso   1.000  H
  C17      1.0000 0.19950  0.85200  0.27610  Biso   1.000  C
  C18      1.0000 0.24620  0.85000  0.16820  Biso   1.000  C
  H17      1.0000 0.16530  0.92630  0.29390  Biso   1.000  H
  H18      1.0000 0.24420  0.91420  0.11030  Biso   1.000  H
  N7       1.0000 0.43520  0.65510  0.44030  Biso   1.000  N
  C19      1.0000 0.38760  0.39850  0.60920  Biso   1.000  C
  H19      1.0000 0.37690  0.51860  0.62080  Biso   1.000  H
  C20      1.0000 0.30050  0.14800  0.77610  Biso   1.000  C
  C21      1.0000 0.25380  0.15000  0.66820  Biso   1.000  C
  H20      1.0000 0.33470  0.07370  0.79390  Biso   1.000  H
  H21      1.0000 0.25580  0.08580  0.61030  Biso   1.000  H
  N8       1.0000 0.93520  0.15510  0.94030  Biso   1.000  N
  C22      1.0000 0.88760  0.89850  0.10920  Biso   1.000  C
  H22      1.0000 0.87690  0.01860  0.12080  Biso   1.000  H
  C23      1.0000 0.80050  0.64800  0.27610  Biso   1.000  C
  C24      1.0000 0.75380  0.65000  0.16820  Biso   1.000  C
  H23      1.0000 0.83470  0.57370  0.29390  Biso   1.000  H
  H24      1.0000 0.75580  0.58580  0.11030  Biso   1.000  H
  N9       1.0000 0.56480  0.65510  0.44030  Biso   1.000  N
  C25      1.0000 0.61240  0.39850  0.60920  Biso   1.000  C
  H25      1.0000 0.62310  0.51860  0.62080  Biso   1.000  H
  C26      1.0000 0.69950  0.14800  0.77610  Biso   1.000  C
  C27      1.0000 0.74620  0.15000  0.66820  Biso   1.000  C
  H26      1.0000 0.66530  0.07370  0.79390  Biso   1.000  H
  H27      1.0000 0.74420  0.08580  0.61030  Biso   1.000  H
  N10      1.0000 0.06480  0.15510  0.94030  Biso   1.000  N
  C28      1.0000 0.11240  0.89850  0.10920  Biso   1.000  C
  H28      1.0000 0.12310  0.01860  0.12080  Biso   1.000  H
  C29      1.0000 0.19950  0.64800  0.27610  Biso   1.000  C
  C30      1.0000 0.24620  0.65000  0.16820  Biso   1.000  C
  H29      1.0000 0.16530  0.57370  0.29390  Biso   1.000  H
  H30      1.0000 0.24420  0.58580  0.11030  Biso   1.000  H
  N11      1.0000 0.43520  0.84490  0.44030  Biso   1.000  N
  C31      1.0000 0.38760  0.10150  0.60920  Biso   1.000  C
  H31      1.0000 0.37690  0.98140  0.62080  Biso   1.000  H
  C32      1.0000 0.30050  0.35200  0.77610  Biso   1.000  C
  C33      1.0000 0.25380  0.35000  0.66820  Biso   1.000  C
  H32      1.0000 0.33470  0.42630  0.79390  Biso   1.000  H
  H33      1.0000 0.25580  0.41420  0.61030  Biso   1.000  H
  N12      1.0000 0.93520  0.34490  0.94030  Biso   1.000  N
  C34      1.0000 0.88760  0.60150  0.10920  Biso   1.000  C
  H34      1.0000 0.87690  0.48140  0.12080  Biso   1.000  H
  C35      1.0000 0.80050  0.85200  0.27610  Biso   1.000  C
  C36      1.0000 0.75380  0.85000  0.16820  Biso   1.000  C
  H35      1.0000 0.83470  0.92630  0.29390  Biso   1.000  H
  H36      1.0000 0.75580  0.91420  0.11030  Biso   1.000  H
  N13      1.0000 0.43520  0.15510  0.55970  Biso   1.000  N
  C37      1.0000 0.38760  0.89850  0.39080  Biso   1.000  C
  H37      1.0000 0.37690  0.01860  0.37920  Biso   1.000  H
  C38      1.0000 0.30050  0.64800  0.22390  Biso   1.000  C
  C39      1.0000 0.25380  0.65000  0.33180  Biso   1.000  C
  H38      1.0000 0.33470  0.57370  0.20610  Biso   1.000  H
  H39      1.0000 0.25580  0.58580  0.38970  Biso   1.000  H
  N14      1.0000 0.93520  0.65510  0.05970  Biso   1.000  N
  C40      1.0000 0.88760  0.39850  0.89080  Biso   1.000  C
  H40      1.0000 0.87690  0.51860  0.87920  Biso   1.000  H
  C41      1.0000 0.80050  0.14800  0.72390  Biso   1.000  C
  C42      1.0000 0.75380  0.15000  0.83180  Biso   1.000  C
  H41      1.0000 0.83470  0.07370  0.70610  Biso   1.000  H
  H42      1.0000 0.75580  0.08580  0.88970  Biso   1.000  H
  N15      1.0000 0.56480  0.34490  0.55970  Biso   1.000  N
  C43      1.0000 0.61240  0.60150  0.39080  Biso   1.000  C
  H43      1.0000 0.62310  0.48140  0.37920  Biso   1.000  H
  C44      1.0000 0.69950  0.85200  0.22390  Biso   1.000  C
  C45      1.0000 0.74620  0.85000  0.33180  Biso   1.000  C
  H44      1.0000 0.66530  0.92630  0.20610  Biso   1.000  H
  H45      1.0000 0.74420  0.91420  0.38970  Biso   1.000  H
  N16      1.0000 0.06480  0.84490  0.05970  Biso   1.000  N
  C46      1.0000 0.11240  0.10150  0.89080  Biso   1.000  C
  H46      1.0000 0.12310  0.98140  0.87920  Biso   1.000  H
  C47      1.0000 0.19950  0.35200  0.72390  Biso   1.000  C
  C48      1.0000 0.24620  0.35000  0.83180  Biso   1.000  C
  H47      1.0000 0.16530  0.42630  0.70610  Biso   1.000  H
  H48      1.0000 0.24420  0.41420  0.88970  Biso   1.000  H
  Cu1      1.0000 0.50000  0.50000  0.50000  Biso   1.000  Cu
  Cu2      1.0000 0.00000  0.00000  0.00000  Biso   1.000  Cu
  Cu3      1.0000 0.50000  0.00000  0.50000  Biso   1.000  Cu
  Cu4      1.0000 0.00000  0.50000  0.00000  Biso   1.000  Cu
  N17      1.0000 0.35660  0.75000  0.35920  Biso   1.000  N
  C49      1.0000 0.30200  0.75000  0.30290  Biso   1.000  C
  N18      1.0000 0.85660  0.25000  0.85920  Biso   1.000  N
  C50      1.0000 0.80200  0.25000  0.80290  Biso   1.000  C
  N19      1.0000 0.64340  0.75000  0.35920  Biso   1.000  N
  C51      1.0000 0.69800  0.75000  0.30290  Biso   1.000  C
  N20      1.0000 0.14340  0.25000  0.85920  Biso   1.000  N
  C52      1.0000 0.19800  0.25000  0.80290  Biso   1.000  C
  N21      1.0000 0.64340  0.25000  0.64080  Biso   1.000  N
  C53      1.0000 0.69800  0.25000  0.69710  Biso   1.000  C
  N22      1.0000 0.14340  0.75000  0.14080  Biso   1.000  N
  C54      1.0000 0.19800  0.75000  0.19710  Biso   1.000  C
  N23      1.0000 0.35660  0.25000  0.64080  Biso   1.000  N
  C55      1.0000 0.30200  0.25000  0.69710  Biso   1.000  C
  N24      1.0000 0.85660  0.75000  0.14080  Biso   1.000  N
  C56      1.0000 0.80200  0.75000  0.19710  Biso   1.000  C
