data_image0
_cell_length_a       20.773
_cell_length_b       7.3137
_cell_length_c       15.793
_cell_angle_alpha    90
_cell_angle_beta     90
_cell_angle_gamma    90

_symmetry_space_group_name_H-M    "P 1"
_symmetry_int_tables_number       1

loop_
  _symmetry_equiv_pos_as_xyz
  'x, y, z'

loop_
  _atom_site_label
  _atom_site_occupancy
  _atom_site_fract_x
  _atom_site_fract_y
  _atom_site_fract_z
  _atom_site_thermal_displace_type
  _atom_site_B_iso_or_equiv
  _atom_site_type_symbol
  N1       1.0000 0.43210  0.34230  0.55730  Biso   1.000  N
  C1       1.0000 0.38540  0.60260  0.39500  Biso   1.000  C
  H1       1.0000 0.37480  0.48110  0.38460  Biso   1.000  H
  C2       1.0000 0.29920  0.88400  0.24200  Biso   1.000  C
  C3       1.0000 0.25730  0.88700  0.32000  Biso   1.000  C
  H2       1.0000 0.33010  0.98200  0.24210  Biso   1.000  H
  H3       1.0000 0.26080  0.97220  0.36610  Biso   1.000  H
  N2       1.0000 0.93210  0.84230  0.05730  Biso   1.000  N
  C4       1.0000 0.88540  0.10260  0.89500  Biso   1.000  C
  H4       1.0000 0.87480  0.98110  0.88460  Biso   1.000  H
  C5       1.0000 0.79920  0.38400  0.74200  Biso   1.000  C
  C6       1.0000 0.75730  0.38700  0.82000  Biso   1.000  C
  H5       1.0000 0.83010  0.48200  0.74210  Biso   1.000  H
  H6       1.0000 0.76080  0.47220  0.86610  Biso   1.000  H
  N3       1.0000 0.56790  0.15770  0.55730  Biso   1.000  N
  C7       1.0000 0.61460  0.89740  0.39500  Biso   1.000  C
  H7       1.0000 0.62520  0.01890  0.38460  Biso   1.000  H
  C8       1.0000 0.70080  0.61600  0.24200  Biso   1.000  C
  C9       1.0000 0.74270  0.61300  0.32000  Biso   1.000  C
  H8       1.0000 0.66990  0.51800  0.24210  Biso   1.000  H
  H9       1.0000 0.73920  0.52780  0.36610  Biso   1.000  H
  N4       1.0000 0.06790  0.65770  0.05730  Biso   1.000  N
  C10      1.0000 0.11460  0.39740  0.89500  Biso   1.000  C
  H10      1.0000 0.12520  0.51890  0.88460  Biso   1.000  H
  C11      1.0000 0.20080  0.11600  0.74200  Biso   1.000  C
  C12      1.0000 0.24270  0.11300  0.82000  Biso   1.000  C
  H11      1.0000 0.16990  0.01800  0.74210  Biso   1.000  H
  H12      1.0000 0.23920  0.02780  0.86610  Biso   1.000  H
  N5       1.0000 0.56790  0.84230  0.44270  Biso   1.000  N
  C13      1.0000 0.61460  0.10260  0.60500  Biso   1.000  C
  H13      1.0000 0.62520  0.98110  0.61540  Biso   1.000  H
  C14      1.0000 0.70080  0.38400  0.75800  Biso   1.000  C
  C15      1.0000 0.74270  0.38700  0.68000  Biso   1.000  C
  H14      1.0000 0.66990  0.48200  0.75790  Biso   1.000  H
  H15      1.0000 0.73920  0.47220  0.63390  Biso   1.000  H
  N6       1.0000 0.06790  0.34230  0.94270  Biso   1.000  N
  C16      1.0000 0.11460  0.60260  0.10500  Biso   1.000  C
  H16      1.0000 0.12520  0.48110  0.11540  Biso   1.000  H
  C17      1.0000 0.20080  0.88400  0.25800  Biso   1.000  C
  C18      1.0000 0.24270  0.88700  0.18000  Biso   1.000  C
  H17      1.0000 0.16990  0.98200  0.25790  Biso   1.000  H
  H18      1.0000 0.23920  0.97220  0.13390  Biso   1.000  H
  N7       1.0000 0.43210  0.65770  0.44270  Biso   1.000  N
  C19      1.0000 0.38540  0.39740  0.60500  Biso   1.000  C
  H19      1.0000 0.37480  0.51890  0.61540  Biso   1.000  H
  C20      1.0000 0.29920  0.11600  0.75800  Biso   1.000  C
  C21      1.0000 0.25730  0.11300  0.68000  Biso   1.000  C
  H20      1.0000 0.33010  0.01800  0.75790  Biso   1.000  H
  H21      1.0000 0.26080  0.02780  0.63390  Biso   1.000  H
  N8       1.0000 0.93210  0.15770  0.94270  Biso   1.000  N
  C22      1.0000 0.88540  0.89740  0.10500  Biso   1.000  C
  H22      1.0000 0.87480  0.01890  0.11540  Biso   1.000  H
  C23      1.0000 0.79920  0.61600  0.25800  Biso   1.000  C
  C24      1.0000 0.75730  0.61300  0.18000  Biso   1.000  C
  H23      1.0000 0.83010  0.51800  0.25790  Biso   1.000  H
  H24      1.0000 0.76080  0.52780  0.13390  Biso   1.000  H
  N9       1.0000 0.56790  0.65770  0.44270  Biso   1.000  N
  C25      1.0000 0.61460  0.39740  0.60500  Biso   1.000  C
  H25      1.0000 0.62520  0.51890  0.61540  Biso   1.000  H
  C26      1.0000 0.70080  0.11600  0.75800  Biso   1.000  C
  C27      1.0000 0.74270  0.11300  0.68000  Biso   1.000  C
  H26      1.0000 0.66990  0.01800  0.75790  Biso   1.000  H
  H27      1.0000 0.73920  0.02780  0.63390  Biso   1.000  H
  N10      1.0000 0.06790  0.15770  0.94270  Biso   1.000  N
  C28      1.0000 0.11460  0.89740  0.10500  Biso   1.000  C
  H28      1.0000 0.12520  0.01890  0.11540  Biso   1.000  H
  C29      1.0000 0.20080  0.61600  0.25800  Biso   1.000  C
  C30      1.0000 0.24270  0.61300  0.18000  Biso   1.000  C
  H29      1.0000 0.16990  0.51800  0.25790  Biso   1.000  H
  H30      1.0000 0.23920  0.52780  0.13390  Biso   1.000  H
  N11      1.0000 0.43210  0.84230  0.44270  Biso   1.000  N
  C31      1.0000 0.38540  0.10260  0.60500  Biso   1.000  C
  H31      1.0000 0.37480  0.98110  0.61540  Biso   1.000  H
  C32      1.0000 0.29920  0.38400  0.75800  Biso   1.000  C
  C33      1.0000 0.25730  0.38700  0.68000  Biso   1.000  C
  H32      1.0000 0.33010  0.48200  0.75790  Biso   1.000  H
  H33      1.0000 0.26080  0.47220  0.63390  Biso   1.000  H
  N12      1.0000 0.93210  0.34230  0.94270  Biso   1.000  N
  C34      1.0000 0.88540  0.60260  0.10500  Biso   1.000  C
  H34      1.0000 0.87480  0.48110  0.11540  Biso   1.000  H
  C35      1.0000 0.79920  0.88400  0.25800  Biso   1.000  C
  C36      1.0000 0.75730  0.88700  0.18000  Biso   1.000  C
  H35      1.0000 0.83010  0.98200  0.25790  Biso   1.000  H
  H36      1.0000 0.76080  0.97220  0.13390  Biso   1.000  H
  N13      1.0000 0.43210  0.15770  0.55730  Biso   1.000  N
  C37      1.0000 0.38540  0.89740  0.39500  Biso   1.000  C
  H37      1.0000 0.37480  0.01890  0.38460  Biso   1.000  H
  C38      1.0000 0.29920  0.61600  0.24200  Biso   1.000  C
  C39      1.0000 0.25730  0.61300  0.32000  Biso   1.000  C
  H38      1.0000 0.33010  0.51800  0.24210  Biso   1.000  H
  H39      1.0000 0.26080  0.52780  0.36610  Biso   1.000  H
  N14      1.0000 0.93210  0.65770  0.05730  Biso   1.000  N
  C40      1.0000 0.88540  0.39740  0.89500  Biso   1.000  C
  H40      1.0000 0.87480  0.51890  0.88460  Biso   1.000  H
  C41      1.0000 0.79920  0.11600  0.74200  Biso   1.000  C
  C42      1.0000 0.75730  0.11300  0.82000  Biso   1.000  C
  H41      1.0000 0.83010  0.01800  0.74210  Biso   1.000  H
  H42      1.0000 0.76080  0.02780  0.86610  Biso   1.000  H
  N15      1.0000 0.56790  0.34230  0.55730  Biso   1.000  N
  C43      1.0000 0.61460  0.60260  0.39500  Biso   1.000  C
  H43      1.0000 0.62520  0.48110  0.38460  Biso   1.000  H
  C44      1.0000 0.70080  0.88400  0.24200  Biso   1.000  C
  C45      1.0000 0.74270  0.88700  0.32000  Biso   1.000  C
  H44      1.0000 0.66990  0.98200  0.24210  Biso   1.000  H
  H45      1.0000 0.73920  0.97220  0.36610  Biso   1.000  H
  N16      1.0000 0.06790  0.84230  0.05730  Biso   1.000  N
  C46      1.0000 0.11460  0.10260  0.89500  Biso   1.000  C
  H46      1.0000 0.12520  0.98110  0.88460  Biso   1.000  H
  C47      1.0000 0.20080  0.38400  0.74200  Biso   1.000  C
  C48      1.0000 0.24270  0.38700  0.82000  Biso   1.000  C
  H47      1.0000 0.16990  0.48200  0.74210  Biso   1.000  H
  H48      1.0000 0.23920  0.47220  0.86610  Biso   1.000  H
  Br1      1.0000 0.50000  0.25000  0.36410  Biso   1.000  Br
  Br2      1.0000 0.00000  0.75000  0.86410  Biso   1.000  Br
  Br3      1.0000 0.50000  0.75000  0.63590  Biso   1.000  Br
  Br4      1.0000 0.00000  0.25000  0.13590  Biso   1.000  Br
  Cu1      1.0000 0.50000  0.50000  0.50000  Biso   1.000  Cu
  Cu2      1.0000 0.00000  0.00000  0.00000  Biso   1.000  Cu
  Cu3      1.0000 0.50000  0.00000  0.50000  Biso   1.000  Cu
  Cu4      1.0000 0.00000  0.50000  0.00000  Biso   1.000  Cu
  N17      1.0000 0.35440  0.75000  0.36230  Biso   1.000  N
  C49      1.0000 0.30190  0.75000  0.30560  Biso   1.000  C
  N18      1.0000 0.85440  0.25000  0.86230  Biso   1.000  N
  C50      1.0000 0.80190  0.25000  0.80560  Biso   1.000  C
  N19      1.0000 0.64560  0.75000  0.36230  Biso   1.000  N
  C51      1.0000 0.69810  0.75000  0.30560  Biso   1.000  C
  N20      1.0000 0.14560  0.25000  0.86230  Biso   1.000  N
  C52      1.0000 0.19810  0.25000  0.80560  Biso   1.000  C
  N21      1.0000 0.64560  0.25000  0.63770  Biso   1.000  N
  C53      1.0000 0.69810  0.25000  0.69440  Biso   1.000  C
  N22      1.0000 0.14560  0.75000  0.13770  Biso   1.000  N
  C54      1.0000 0.19810  0.75000  0.19440  Biso   1.000  C
  N23      1.0000 0.35440  0.25000  0.63770  Biso   1.000  N
  C55      1.0000 0.30190  0.25000  0.69440  Biso   1.000  C
  N24      1.0000 0.85440  0.75000  0.13770  Biso   1.000  N
  C56      1.0000 0.80190  0.75000  0.19440  Biso   1.000  C
