data_image0
_cell_length_a       20.656
_cell_length_b       7.259
_cell_length_c       15.55
_cell_angle_alpha    90
_cell_angle_beta     90
_cell_angle_gamma    90

_symmetry_space_group_name_H-M    "P 1"
_symmetry_int_tables_number       1

loop_
  _symmetry_equiv_pos_as_xyz
  'x, y, z'

loop_
  _atom_site_label
  _atom_site_occupancy
  _atom_site_fract_x
  _atom_site_fract_y
  _atom_site_fract_z
  _atom_site_thermal_displace_type
  _atom_site_B_iso_or_equiv
  _atom_site_type_symbol
  N1       1.0000 0.43120  0.34610  0.44460  Biso   1.000  N
  C1       1.0000 0.38590  0.59360  0.60800  Biso   1.000  C
  H1       1.0000 0.37540  0.47160  0.61930  Biso   1.000  H
  C2       1.0000 0.25500  0.61500  0.68900  Biso   1.000  C
  C3       1.0000 0.29600  0.62200  0.75700  Biso   1.000  C
  H2       1.0000 0.26890  0.50330  0.66170  Biso   1.000  H
  H3       1.0000 0.33130  0.54100  0.77170  Biso   1.000  H
  N2       1.0000 0.93120  0.84610  0.94460  Biso   1.000  N
  C4       1.0000 0.88590  0.09360  0.10800  Biso   1.000  C
  H4       1.0000 0.87540  0.97160  0.11930  Biso   1.000  H
  C5       1.0000 0.75500  0.11500  0.18900  Biso   1.000  C
  C6       1.0000 0.79600  0.12200  0.25700  Biso   1.000  C
  H5       1.0000 0.76890  0.00330  0.16170  Biso   1.000  H
  H6       1.0000 0.83130  0.04100  0.27170  Biso   1.000  H
  N3       1.0000 0.56880  0.15390  0.44460  Biso   1.000  N
  C7       1.0000 0.61410  0.90640  0.60800  Biso   1.000  C
  H7       1.0000 0.62460  0.02840  0.61930  Biso   1.000  H
  C8       1.0000 0.74500  0.88500  0.68900  Biso   1.000  C
  C9       1.0000 0.70400  0.87800  0.75700  Biso   1.000  C
  H8       1.0000 0.73110  0.99670  0.66170  Biso   1.000  H
  H9       1.0000 0.66870  0.95900  0.77170  Biso   1.000  H
  N4       1.0000 0.06880  0.65390  0.94460  Biso   1.000  N
  C10      1.0000 0.11410  0.40640  0.10800  Biso   1.000  C
  H10      1.0000 0.12460  0.52840  0.11930  Biso   1.000  H
  C11      1.0000 0.24500  0.38500  0.18900  Biso   1.000  C
  C12      1.0000 0.20400  0.37800  0.25700  Biso   1.000  C
  H11      1.0000 0.23110  0.49670  0.16170  Biso   1.000  H
  H12      1.0000 0.16870  0.45900  0.27170  Biso   1.000  H
  N5       1.0000 0.56880  0.84610  0.55540  Biso   1.000  N
  C13      1.0000 0.61410  0.09360  0.39200  Biso   1.000  C
  H13      1.0000 0.62460  0.97160  0.38070  Biso   1.000  H
  C14      1.0000 0.74500  0.11500  0.31100  Biso   1.000  C
  C15      1.0000 0.70400  0.12200  0.24300  Biso   1.000  C
  H14      1.0000 0.73110  0.00330  0.33830  Biso   1.000  H
  H15      1.0000 0.66870  0.04100  0.22830  Biso   1.000  H
  N6       1.0000 0.06880  0.34610  0.05540  Biso   1.000  N
  C16      1.0000 0.11410  0.59360  0.89200  Biso   1.000  C
  H16      1.0000 0.12460  0.47160  0.88070  Biso   1.000  H
  C17      1.0000 0.24500  0.61500  0.81100  Biso   1.000  C
  C18      1.0000 0.20400  0.62200  0.74300  Biso   1.000  C
  H17      1.0000 0.23110  0.50330  0.83830  Biso   1.000  H
  H18      1.0000 0.16870  0.54100  0.72830  Biso   1.000  H
  N7       1.0000 0.43120  0.65390  0.55540  Biso   1.000  N
  C19      1.0000 0.38590  0.40640  0.39200  Biso   1.000  C
  H19      1.0000 0.37540  0.52840  0.38070  Biso   1.000  H
  C20      1.0000 0.25500  0.38500  0.31100  Biso   1.000  C
  C21      1.0000 0.29600  0.37800  0.24300  Biso   1.000  C
  H20      1.0000 0.26890  0.49670  0.33830  Biso   1.000  H
  H21      1.0000 0.33130  0.45900  0.22830  Biso   1.000  H
  N8       1.0000 0.93120  0.15390  0.05540  Biso   1.000  N
  C22      1.0000 0.88590  0.90640  0.89200  Biso   1.000  C
  H22      1.0000 0.87540  0.02840  0.88070  Biso   1.000  H
  C23      1.0000 0.75500  0.88500  0.81100  Biso   1.000  C
  C24      1.0000 0.79600  0.87800  0.74300  Biso   1.000  C
  H23      1.0000 0.76890  0.99670  0.83830  Biso   1.000  H
  H24      1.0000 0.83130  0.95900  0.72830  Biso   1.000  H
  N9       1.0000 0.56880  0.65390  0.55540  Biso   1.000  N
  C25      1.0000 0.61410  0.40640  0.39200  Biso   1.000  C
  H25      1.0000 0.62460  0.52840  0.38070  Biso   1.000  H
  C26      1.0000 0.74500  0.38500  0.31100  Biso   1.000  C
  C27      1.0000 0.70400  0.37800  0.24300  Biso   1.000  C
  H26      1.0000 0.73110  0.49670  0.33830  Biso   1.000  H
  H27      1.0000 0.66870  0.45900  0.22830  Biso   1.000  H
  N10      1.0000 0.06880  0.15390  0.05540  Biso   1.000  N
  C28      1.0000 0.11410  0.90640  0.89200  Biso   1.000  C
  H28      1.0000 0.12460  0.02840  0.88070  Biso   1.000  H
  C29      1.0000 0.24500  0.88500  0.81100  Biso   1.000  C
  C30      1.0000 0.20400  0.87800  0.74300  Biso   1.000  C
  H29      1.0000 0.23110  0.99670  0.83830  Biso   1.000  H
  H30      1.0000 0.16870  0.95900  0.72830  Biso   1.000  H
  N11      1.0000 0.43120  0.84610  0.55540  Biso   1.000  N
  C31      1.0000 0.38590  0.09360  0.39200  Biso   1.000  C
  H31      1.0000 0.37540  0.97160  0.38070  Biso   1.000  H
  C32      1.0000 0.25500  0.11500  0.31100  Biso   1.000  C
  C33      1.0000 0.29600  0.12200  0.24300  Biso   1.000  C
  H32      1.0000 0.26890  0.00330  0.33830  Biso   1.000  H
  H33      1.0000 0.33130  0.04100  0.22830  Biso   1.000  H
  N12      1.0000 0.93120  0.34610  0.05540  Biso   1.000  N
  C34      1.0000 0.88590  0.59360  0.89200  Biso   1.000  C
  H34      1.0000 0.87540  0.47160  0.88070  Biso   1.000  H
  C35      1.0000 0.75500  0.61500  0.81100  Biso   1.000  C
  C36      1.0000 0.79600  0.62200  0.74300  Biso   1.000  C
  H35      1.0000 0.76890  0.50330  0.83830  Biso   1.000  H
  H36      1.0000 0.83130  0.54100  0.72830  Biso   1.000  H
  N13      1.0000 0.43120  0.15390  0.44460  Biso   1.000  N
  C37      1.0000 0.38590  0.90640  0.60800  Biso   1.000  C
  H37      1.0000 0.37540  0.02840  0.61930  Biso   1.000  H
  C38      1.0000 0.25500  0.88500  0.68900  Biso   1.000  C
  C39      1.0000 0.29600  0.87800  0.75700  Biso   1.000  C
  H38      1.0000 0.26890  0.99670  0.66170  Biso   1.000  H
  H39      1.0000 0.33130  0.95900  0.77170  Biso   1.000  H
  N14      1.0000 0.93120  0.65390  0.94460  Biso   1.000  N
  C40      1.0000 0.88590  0.40640  0.10800  Biso   1.000  C
  H40      1.0000 0.87540  0.52840  0.11930  Biso   1.000  H
  C41      1.0000 0.75500  0.38500  0.18900  Biso   1.000  C
  C42      1.0000 0.79600  0.37800  0.25700  Biso   1.000  C
  H41      1.0000 0.76890  0.49670  0.16170  Biso   1.000  H
  H42      1.0000 0.83130  0.45900  0.27170  Biso   1.000  H
  N15      1.0000 0.56880  0.34610  0.44460  Biso   1.000  N
  C43      1.0000 0.61410  0.59360  0.60800  Biso   1.000  C
  H43      1.0000 0.62460  0.47160  0.61930  Biso   1.000  H
  C44      1.0000 0.74500  0.61500  0.68900  Biso   1.000  C
  C45      1.0000 0.70400  0.62200  0.75700  Biso   1.000  C
  H44      1.0000 0.73110  0.50330  0.66170  Biso   1.000  H
  H45      1.0000 0.66870  0.54100  0.77170  Biso   1.000  H
  N16      1.0000 0.06880  0.84610  0.94460  Biso   1.000  N
  C46      1.0000 0.11410  0.09360  0.10800  Biso   1.000  C
  H46      1.0000 0.12460  0.97160  0.11930  Biso   1.000  H
  C47      1.0000 0.24500  0.11500  0.18900  Biso   1.000  C
  C48      1.0000 0.20400  0.12200  0.25700  Biso   1.000  C
  H47      1.0000 0.23110  0.00330  0.16170  Biso   1.000  H
  H48      1.0000 0.16870  0.04100  0.27170  Biso   1.000  H
  Br1      1.0000 0.50000  0.25000  0.63830  Biso   1.000  Br
  Br2      1.0000 0.00000  0.75000  0.13830  Biso   1.000  Br
  Br3      1.0000 0.50000  0.75000  0.36170  Biso   1.000  Br
  Br4      1.0000 0.00000  0.25000  0.86170  Biso   1.000  Br
  Cu1      1.0000 0.50000  0.50000  0.50000  Biso   1.000  Cu
  Cu2      1.0000 0.00000  0.00000  0.00000  Biso   1.000  Cu
  Cu3      1.0000 0.50000  0.00000  0.50000  Biso   1.000  Cu
  Cu4      1.0000 0.00000  0.50000  0.00000  Biso   1.000  Cu
  N17      1.0000 0.35710  0.75000  0.64200  Biso   1.000  N
  C49      1.0000 0.30460  0.75000  0.70700  Biso   1.000  C
  N18      1.0000 0.85710  0.25000  0.14200  Biso   1.000  N
  C50      1.0000 0.80460  0.25000  0.20700  Biso   1.000  C
  N19      1.0000 0.64290  0.75000  0.64200  Biso   1.000  N
  C51      1.0000 0.69540  0.75000  0.70700  Biso   1.000  C
  N20      1.0000 0.14290  0.25000  0.14200  Biso   1.000  N
  C52      1.0000 0.19540  0.25000  0.20700  Biso   1.000  C
  N21      1.0000 0.64290  0.25000  0.35800  Biso   1.000  N
  C53      1.0000 0.69540  0.25000  0.29300  Biso   1.000  C
  N22      1.0000 0.14290  0.75000  0.85800  Biso   1.000  N
  C54      1.0000 0.19540  0.75000  0.79300  Biso   1.000  C
  N23      1.0000 0.35710  0.25000  0.35800  Biso   1.000  N
  C55      1.0000 0.30460  0.25000  0.29300  Biso   1.000  C
  N24      1.0000 0.85710  0.75000  0.85800  Biso   1.000  N
  C56      1.0000 0.80460  0.75000  0.79300  Biso   1.000  C
