data_image0
_cell_length_a       21.902
_cell_length_b       7.3471
_cell_length_c       14.142
_cell_angle_alpha    90
_cell_angle_beta     90
_cell_angle_gamma    90

_symmetry_space_group_name_H-M    "P 1"
_symmetry_int_tables_number       1

loop_
  _symmetry_equiv_pos_as_xyz
  'x, y, z'

loop_
  _atom_site_label
  _atom_site_occupancy
  _atom_site_fract_x
  _atom_site_fract_y
  _atom_site_fract_z
  _atom_site_thermal_displace_type
  _atom_site_B_iso_or_equiv
  _atom_site_type_symbol
  N1       1.0000 0.43550  0.15550  0.43890  Biso   1.000  N
  C1       1.0000 0.38800  0.10270  0.39000  Biso   1.000  C
  H1       1.0000 0.37710  0.98210  0.37920  Biso   1.000  H
  C2       1.0000 0.30070  0.14700  0.22000  Biso   1.000  C
  H2       1.0000 0.33050  0.05370  0.20870  Biso   1.000  H
  C3       1.0000 0.24630  0.14300  0.16690  Biso   1.000  C
  H3       1.0000 0.24230  0.07040  0.11080  Biso   1.000  H
  N2       1.0000 0.93550  0.65550  0.93890  Biso   1.000  N
  C4       1.0000 0.88800  0.60270  0.89000  Biso   1.000  C
  H4       1.0000 0.87710  0.48210  0.87920  Biso   1.000  H
  C5       1.0000 0.80070  0.64700  0.72000  Biso   1.000  C
  H5       1.0000 0.83050  0.55370  0.70870  Biso   1.000  H
  C6       1.0000 0.74630  0.64300  0.66690  Biso   1.000  C
  H6       1.0000 0.74230  0.57040  0.61080  Biso   1.000  H
  N3       1.0000 0.56450  0.34450  0.43890  Biso   1.000  N
  C7       1.0000 0.61200  0.39730  0.39000  Biso   1.000  C
  H7       1.0000 0.62290  0.51790  0.37920  Biso   1.000  H
  C8       1.0000 0.69930  0.35300  0.22000  Biso   1.000  C
  H8       1.0000 0.66950  0.44630  0.20870  Biso   1.000  H
  C9       1.0000 0.75370  0.35700  0.16690  Biso   1.000  C
  H9       1.0000 0.75770  0.42960  0.11080  Biso   1.000  H
  N4       1.0000 0.06450  0.84450  0.93890  Biso   1.000  N
  C10      1.0000 0.11200  0.89730  0.89000  Biso   1.000  C
  H10      1.0000 0.12290  0.01790  0.87920  Biso   1.000  H
  C11      1.0000 0.19930  0.85300  0.72000  Biso   1.000  C
  H11      1.0000 0.16950  0.94630  0.70870  Biso   1.000  H
  C12      1.0000 0.25370  0.85700  0.66690  Biso   1.000  C
  H12      1.0000 0.25770  0.92960  0.61080  Biso   1.000  H
  N5       1.0000 0.56450  0.65550  0.56110  Biso   1.000  N
  C13      1.0000 0.61200  0.60270  0.61000  Biso   1.000  C
  H13      1.0000 0.62290  0.48210  0.62080  Biso   1.000  H
  C14      1.0000 0.69930  0.64700  0.78000  Biso   1.000  C
  H14      1.0000 0.66950  0.55370  0.79130  Biso   1.000  H
  C15      1.0000 0.75370  0.64300  0.83310  Biso   1.000  C
  H15      1.0000 0.75770  0.57040  0.88920  Biso   1.000  H
  N6       1.0000 0.06450  0.15550  0.06110  Biso   1.000  N
  C16      1.0000 0.11200  0.10270  0.11000  Biso   1.000  C
  H16      1.0000 0.12290  0.98210  0.12080  Biso   1.000  H
  C17      1.0000 0.19930  0.14700  0.28000  Biso   1.000  C
  H17      1.0000 0.16950  0.05370  0.29130  Biso   1.000  H
  C18      1.0000 0.25370  0.14300  0.33310  Biso   1.000  C
  H18      1.0000 0.25770  0.07040  0.38920  Biso   1.000  H
  N7       1.0000 0.43550  0.84450  0.56110  Biso   1.000  N
  C19      1.0000 0.38800  0.89730  0.61000  Biso   1.000  C
  H19      1.0000 0.37710  0.01790  0.62080  Biso   1.000  H
  C20      1.0000 0.30070  0.85300  0.78000  Biso   1.000  C
  H20      1.0000 0.33050  0.94630  0.79130  Biso   1.000  H
  C21      1.0000 0.24630  0.85700  0.83310  Biso   1.000  C
  H21      1.0000 0.24230  0.92960  0.88920  Biso   1.000  H
  N8       1.0000 0.93550  0.34450  0.06110  Biso   1.000  N
  C22      1.0000 0.88800  0.39730  0.11000  Biso   1.000  C
  H22      1.0000 0.87710  0.51790  0.12080  Biso   1.000  H
  C23      1.0000 0.80070  0.35300  0.28000  Biso   1.000  C
  H23      1.0000 0.83050  0.44630  0.29130  Biso   1.000  H
  C24      1.0000 0.74630  0.35700  0.33310  Biso   1.000  C
  H24      1.0000 0.74230  0.42960  0.38920  Biso   1.000  H
  N9       1.0000 0.56450  0.84450  0.56110  Biso   1.000  N
  C25      1.0000 0.61200  0.89730  0.61000  Biso   1.000  C
  H25      1.0000 0.62290  0.01790  0.62080  Biso   1.000  H
  C26      1.0000 0.69930  0.85300  0.78000  Biso   1.000  C
  H26      1.0000 0.66950  0.94630  0.79130  Biso   1.000  H
  C27      1.0000 0.75370  0.85700  0.83310  Biso   1.000  C
  H27      1.0000 0.75770  0.92960  0.88920  Biso   1.000  H
  N10      1.0000 0.06450  0.34450  0.06110  Biso   1.000  N
  C28      1.0000 0.11200  0.39730  0.11000  Biso   1.000  C
  H28      1.0000 0.12290  0.51790  0.12080  Biso   1.000  H
  C29      1.0000 0.19930  0.35300  0.28000  Biso   1.000  C
  H29      1.0000 0.16950  0.44630  0.29130  Biso   1.000  H
  C30      1.0000 0.25370  0.35700  0.33310  Biso   1.000  C
  H30      1.0000 0.25770  0.42960  0.38920  Biso   1.000  H
  N11      1.0000 0.43550  0.65550  0.56110  Biso   1.000  N
  C31      1.0000 0.38800  0.60270  0.61000  Biso   1.000  C
  H31      1.0000 0.37710  0.48210  0.62080  Biso   1.000  H
  C32      1.0000 0.30070  0.64700  0.78000  Biso   1.000  C
  H32      1.0000 0.33050  0.55370  0.79130  Biso   1.000  H
  C33      1.0000 0.24630  0.64300  0.83310  Biso   1.000  C
  H33      1.0000 0.24230  0.57040  0.88920  Biso   1.000  H
  N12      1.0000 0.93550  0.15550  0.06110  Biso   1.000  N
  C34      1.0000 0.88800  0.10270  0.11000  Biso   1.000  C
  H34      1.0000 0.87710  0.98210  0.12080  Biso   1.000  H
  C35      1.0000 0.80070  0.14700  0.28000  Biso   1.000  C
  H35      1.0000 0.83050  0.05370  0.29130  Biso   1.000  H
  C36      1.0000 0.74630  0.14300  0.33310  Biso   1.000  C
  H36      1.0000 0.74230  0.07040  0.38920  Biso   1.000  H
  N13      1.0000 0.43550  0.34450  0.43890  Biso   1.000  N
  C37      1.0000 0.38800  0.39730  0.39000  Biso   1.000  C
  H37      1.0000 0.37710  0.51790  0.37920  Biso   1.000  H
  C38      1.0000 0.30070  0.35300  0.22000  Biso   1.000  C
  H38      1.0000 0.33050  0.44630  0.20870  Biso   1.000  H
  C39      1.0000 0.24630  0.35700  0.16690  Biso   1.000  C
  H39      1.0000 0.24230  0.42960  0.11080  Biso   1.000  H
  N14      1.0000 0.93550  0.84450  0.93890  Biso   1.000  N
  C40      1.0000 0.88800  0.89730  0.89000  Biso   1.000  C
  H40      1.0000 0.87710  0.01790  0.87920  Biso   1.000  H
  C41      1.0000 0.80070  0.85300  0.72000  Biso   1.000  C
  H41      1.0000 0.83050  0.94630  0.70870  Biso   1.000  H
  C42      1.0000 0.74630  0.85700  0.66690  Biso   1.000  C
  H42      1.0000 0.74230  0.92960  0.61080  Biso   1.000  H
  N15      1.0000 0.56450  0.15550  0.43890  Biso   1.000  N
  C43      1.0000 0.61200  0.10270  0.39000  Biso   1.000  C
  H43      1.0000 0.62290  0.98210  0.37920  Biso   1.000  H
  C44      1.0000 0.69930  0.14700  0.22000  Biso   1.000  C
  H44      1.0000 0.66950  0.05370  0.20870  Biso   1.000  H
  C45      1.0000 0.75370  0.14300  0.16690  Biso   1.000  C
  H45      1.0000 0.75770  0.07040  0.11080  Biso   1.000  H
  N16      1.0000 0.06450  0.65550  0.93890  Biso   1.000  N
  C46      1.0000 0.11200  0.60270  0.89000  Biso   1.000  C
  H46      1.0000 0.12290  0.48210  0.87920  Biso   1.000  H
  C47      1.0000 0.19930  0.64700  0.72000  Biso   1.000  C
  H47      1.0000 0.16950  0.55370  0.70870  Biso   1.000  H
  C48      1.0000 0.25370  0.64300  0.66690  Biso   1.000  C
  H48      1.0000 0.25770  0.57040  0.61080  Biso   1.000  H
  Br1      1.0000 0.50000  0.25000  0.65104  Biso   1.000  Br
  Br2      1.0000 0.00000  0.75000  0.15104  Biso   1.000  Br
  Br3      1.0000 0.50000  0.75000  0.34896  Biso   1.000  Br
  Br4      1.0000 0.00000  0.25000  0.84896  Biso   1.000  Br
  Cu1      1.0000 0.50000  0.00000  0.50000  Biso   1.000  Cu
  Cu2      1.0000 0.00000  0.50000  0.00000  Biso   1.000  Cu
  Cu3      1.0000 0.50000  0.50000  0.50000  Biso   1.000  Cu
  Cu4      1.0000 0.00000  0.00000  0.00000  Biso   1.000  Cu
  N17      1.0000 0.35710  0.25000  0.35720  Biso   1.000  N
  C49      1.0000 0.30220  0.25000  0.30370  Biso   1.000  C
  N18      1.0000 0.85710  0.75000  0.85720  Biso   1.000  N
  C50      1.0000 0.80220  0.75000  0.80370  Biso   1.000  C
  N19      1.0000 0.64290  0.25000  0.35720  Biso   1.000  N
  C51      1.0000 0.69780  0.25000  0.30370  Biso   1.000  C
  N20      1.0000 0.14290  0.75000  0.85720  Biso   1.000  N
  C52      1.0000 0.19780  0.75000  0.80370  Biso   1.000  C
  N21      1.0000 0.64290  0.75000  0.64280  Biso   1.000  N
  C53      1.0000 0.69780  0.75000  0.69630  Biso   1.000  C
  N22      1.0000 0.14290  0.25000  0.14280  Biso   1.000  N
  C54      1.0000 0.19780  0.25000  0.19630  Biso   1.000  C
  N23      1.0000 0.35710  0.75000  0.64280  Biso   1.000  N
  C55      1.0000 0.30220  0.75000  0.69630  Biso   1.000  C
  N24      1.0000 0.85710  0.25000  0.14280  Biso   1.000  N
  C56      1.0000 0.80220  0.25000  0.19630  Biso   1.000  C
