data_image0
_cell_length_a       22.1238
_cell_length_b       7.2671
_cell_length_c       13.8675
_cell_angle_alpha    90
_cell_angle_beta     90
_cell_angle_gamma    90

_symmetry_space_group_name_H-M    "P 1"
_symmetry_int_tables_number       1

loop_
  _symmetry_equiv_pos_as_xyz
  'x, y, z'

loop_
  _atom_site_label
  _atom_site_occupancy
  _atom_site_fract_x
  _atom_site_fract_y
  _atom_site_fract_z
  _atom_site_thermal_displace_type
  _atom_site_B_iso_or_equiv
  _atom_site_type_symbol
  N1       1.0000 0.56381  0.34460  0.56420  Biso   1.000  N
  C1       1.0000 0.61106  0.60110  0.38730  Biso   1.000  C
  H1       1.0000 0.62180  0.47920  0.37610  Biso   1.000  H
  C2       1.0000 0.69980  0.64540  0.21850  Biso   1.000  C
  C3       1.0000 0.74470  0.65030  0.33580  Biso   1.000  C
  H2       1.0000 0.66600  0.57050  0.19970  Biso   1.000  H
  H3       1.0000 0.74190  0.58950  0.39710  Biso   1.000  H
  N2       1.0000 0.06381  0.84460  0.06420  Biso   1.000  N
  C4       1.0000 0.11106  0.10110  0.88730  Biso   1.000  C
  H4       1.0000 0.12180  0.97920  0.87610  Biso   1.000  H
  C5       1.0000 0.19980  0.14540  0.71850  Biso   1.000  C
  C6       1.0000 0.24470  0.15030  0.83580  Biso   1.000  C
  H5       1.0000 0.16600  0.07050  0.69970  Biso   1.000  H
  H6       1.0000 0.24190  0.08950  0.89710  Biso   1.000  H
  N3       1.0000 0.43619  0.15540  0.56420  Biso   1.000  N
  C7       1.0000 0.38894  0.89890  0.38730  Biso   1.000  C
  H7       1.0000 0.37820  0.02080  0.37610  Biso   1.000  H
  C8       1.0000 0.30020  0.85460  0.21850  Biso   1.000  C
  C9       1.0000 0.25530  0.84970  0.33580  Biso   1.000  C
  H8       1.0000 0.33400  0.92950  0.19970  Biso   1.000  H
  H9       1.0000 0.25810  0.91050  0.39710  Biso   1.000  H
  N4       1.0000 0.93619  0.65540  0.06420  Biso   1.000  N
  C10      1.0000 0.88894  0.39890  0.88730  Biso   1.000  C
  H10      1.0000 0.87820  0.52080  0.87610  Biso   1.000  H
  C11      1.0000 0.80020  0.35460  0.71850  Biso   1.000  C
  C12      1.0000 0.75530  0.34970  0.83580  Biso   1.000  C
  H11      1.0000 0.83400  0.42950  0.69970  Biso   1.000  H
  H12      1.0000 0.75810  0.41050  0.89710  Biso   1.000  H
  N5       1.0000 0.43619  0.84460  0.43580  Biso   1.000  N
  C13      1.0000 0.38894  0.10110  0.61270  Biso   1.000  C
  H13      1.0000 0.37820  0.97920  0.62390  Biso   1.000  H
  C14      1.0000 0.30020  0.14540  0.78150  Biso   1.000  C
  C15      1.0000 0.25530  0.15030  0.66420  Biso   1.000  C
  H14      1.0000 0.33400  0.07050  0.80030  Biso   1.000  H
  H15      1.0000 0.25810  0.08950  0.60290  Biso   1.000  H
  N6       1.0000 0.93619  0.34460  0.93580  Biso   1.000  N
  C16      1.0000 0.88894  0.60110  0.11270  Biso   1.000  C
  H16      1.0000 0.87820  0.47920  0.12390  Biso   1.000  H
  C17      1.0000 0.80020  0.64540  0.28150  Biso   1.000  C
  C18      1.0000 0.75530  0.65030  0.16420  Biso   1.000  C
  H17      1.0000 0.83400  0.57050  0.30030  Biso   1.000  H
  H18      1.0000 0.75810  0.58950  0.10290  Biso   1.000  H
  N7       1.0000 0.56381  0.65540  0.43580  Biso   1.000  N
  C19      1.0000 0.61106  0.39890  0.61270  Biso   1.000  C
  H19      1.0000 0.62180  0.52080  0.62390  Biso   1.000  H
  C20      1.0000 0.69980  0.35460  0.78150  Biso   1.000  C
  C21      1.0000 0.74470  0.34970  0.66420  Biso   1.000  C
  H20      1.0000 0.66600  0.42950  0.80030  Biso   1.000  H
  H21      1.0000 0.74190  0.41050  0.60290  Biso   1.000  H
  N8       1.0000 0.06381  0.15540  0.93580  Biso   1.000  N
  C22      1.0000 0.11106  0.89890  0.11270  Biso   1.000  C
  H22      1.0000 0.12180  0.02080  0.12390  Biso   1.000  H
  C23      1.0000 0.19980  0.85460  0.28150  Biso   1.000  C
  C24      1.0000 0.24470  0.84970  0.16420  Biso   1.000  C
  H23      1.0000 0.16600  0.92950  0.30030  Biso   1.000  H
  H24      1.0000 0.24190  0.91050  0.10290  Biso   1.000  H
  N9       1.0000 0.43619  0.65540  0.43580  Biso   1.000  N
  C25      1.0000 0.38894  0.39890  0.61270  Biso   1.000  C
  H25      1.0000 0.37820  0.52080  0.62390  Biso   1.000  H
  C26      1.0000 0.30020  0.35460  0.78150  Biso   1.000  C
  C27      1.0000 0.25530  0.34970  0.66420  Biso   1.000  C
  H26      1.0000 0.33400  0.42950  0.80030  Biso   1.000  H
  H27      1.0000 0.25810  0.41050  0.60290  Biso   1.000  H
  N10      1.0000 0.93619  0.15540  0.93580  Biso   1.000  N
  C28      1.0000 0.88894  0.89890  0.11270  Biso   1.000  C
  H28      1.0000 0.87820  0.02080  0.12390  Biso   1.000  H
  C29      1.0000 0.80020  0.85460  0.28150  Biso   1.000  C
  C30      1.0000 0.75530  0.84970  0.16420  Biso   1.000  C
  H29      1.0000 0.83400  0.92950  0.30030  Biso   1.000  H
  H30      1.0000 0.75810  0.91050  0.10290  Biso   1.000  H
  N11      1.0000 0.56381  0.84460  0.43580  Biso   1.000  N
  C31      1.0000 0.61106  0.10110  0.61270  Biso   1.000  C
  H31      1.0000 0.62180  0.97920  0.62390  Biso   1.000  H
  C32      1.0000 0.69980  0.14540  0.78150  Biso   1.000  C
  C33      1.0000 0.74470  0.15030  0.66420  Biso   1.000  C
  H32      1.0000 0.66600  0.07050  0.80030  Biso   1.000  H
  H33      1.0000 0.74190  0.08950  0.60290  Biso   1.000  H
  N12      1.0000 0.06381  0.34460  0.93580  Biso   1.000  N
  C34      1.0000 0.11106  0.60110  0.11270  Biso   1.000  C
  H34      1.0000 0.12180  0.47920  0.12390  Biso   1.000  H
  C35      1.0000 0.19980  0.64540  0.28150  Biso   1.000  C
  C36      1.0000 0.24470  0.65030  0.16420  Biso   1.000  C
  H35      1.0000 0.16600  0.57050  0.30030  Biso   1.000  H
  H36      1.0000 0.24190  0.58950  0.10290  Biso   1.000  H
  N13      1.0000 0.56381  0.15540  0.56420  Biso   1.000  N
  C37      1.0000 0.61106  0.89890  0.38730  Biso   1.000  C
  H37      1.0000 0.62180  0.02080  0.37610  Biso   1.000  H
  C38      1.0000 0.69980  0.85460  0.21850  Biso   1.000  C
  C39      1.0000 0.74470  0.84970  0.33580  Biso   1.000  C
  H38      1.0000 0.66600  0.92950  0.19970  Biso   1.000  H
  H39      1.0000 0.74190  0.91050  0.39710  Biso   1.000  H
  N14      1.0000 0.06381  0.65540  0.06420  Biso   1.000  N
  C40      1.0000 0.11106  0.39890  0.88730  Biso   1.000  C
  H40      1.0000 0.12180  0.52080  0.87610  Biso   1.000  H
  C41      1.0000 0.19980  0.35460  0.71850  Biso   1.000  C
  C42      1.0000 0.24470  0.34970  0.83580  Biso   1.000  C
  H41      1.0000 0.16600  0.42950  0.69970  Biso   1.000  H
  H42      1.0000 0.24190  0.41050  0.89710  Biso   1.000  H
  N15      1.0000 0.43619  0.34460  0.56420  Biso   1.000  N
  C43      1.0000 0.38894  0.60110  0.38730  Biso   1.000  C
  H43      1.0000 0.37820  0.47920  0.37610  Biso   1.000  H
  C44      1.0000 0.30020  0.64540  0.21850  Biso   1.000  C
  C45      1.0000 0.25530  0.65030  0.33580  Biso   1.000  C
  H44      1.0000 0.33400  0.57050  0.19970  Biso   1.000  H
  H45      1.0000 0.25810  0.58950  0.39710  Biso   1.000  H
  N16      1.0000 0.93619  0.84460  0.06420  Biso   1.000  N
  C46      1.0000 0.88894  0.10110  0.88730  Biso   1.000  C
  H46      1.0000 0.87820  0.97920  0.87610  Biso   1.000  H
  C47      1.0000 0.80020  0.14540  0.71850  Biso   1.000  C
  C48      1.0000 0.75530  0.15030  0.83580  Biso   1.000  C
  H47      1.0000 0.83400  0.07050  0.69970  Biso   1.000  H
  H48      1.0000 0.75810  0.08950  0.89710  Biso   1.000  H
  Cu1      1.0000 0.50000  0.50000  0.50000  Biso   1.000  Cu
  Cu2      1.0000 0.00000  0.00000  0.00000  Biso   1.000  Cu
  Cu3      1.0000 0.50000  0.00000  0.50000  Biso   1.000  Cu
  Cu4      1.0000 0.00000  0.50000  0.00000  Biso   1.000  Cu
  N17      1.0000 0.64210  0.75000  0.35570  Biso   1.000  N
  C49      1.0000 0.69830  0.75000  0.30320  Biso   1.000  C
  N18      1.0000 0.14210  0.25000  0.85570  Biso   1.000  N
  C50      1.0000 0.19830  0.25000  0.80320  Biso   1.000  C
  N19      1.0000 0.35790  0.75000  0.35570  Biso   1.000  N
  C51      1.0000 0.30170  0.75000  0.30320  Biso   1.000  C
  N20      1.0000 0.85790  0.25000  0.85570  Biso   1.000  N
  C52      1.0000 0.80170  0.25000  0.80320  Biso   1.000  C
  N21      1.0000 0.35790  0.25000  0.64430  Biso   1.000  N
  C53      1.0000 0.30170  0.25000  0.69680  Biso   1.000  C
  N22      1.0000 0.85790  0.75000  0.14430  Biso   1.000  N
  C54      1.0000 0.80170  0.75000  0.19680  Biso   1.000  C
  N23      1.0000 0.64210  0.25000  0.64430  Biso   1.000  N
  C55      1.0000 0.69830  0.25000  0.69680  Biso   1.000  C
  N24      1.0000 0.14210  0.75000  0.14430  Biso   1.000  N
  C56      1.0000 0.19830  0.75000  0.19680  Biso   1.000  C
