data_image0
_cell_length_a       21.658
_cell_length_b       7.2622
_cell_length_c       14.7
_cell_angle_alpha    90
_cell_angle_beta     90
_cell_angle_gamma    90

_symmetry_space_group_name_H-M    "P 1"
_symmetry_int_tables_number       1

loop_
  _symmetry_equiv_pos_as_xyz
  'x, y, z'

loop_
  _atom_site_label
  _atom_site_occupancy
  _atom_site_fract_x
  _atom_site_fract_y
  _atom_site_fract_z
  _atom_site_thermal_displace_type
  _atom_site_B_iso_or_equiv
  _atom_site_type_symbol
  N1       1.0000 0.06500  0.15470  0.06160  Biso   1.000  N
  C1       1.0000 0.11140  0.10140  0.10990  Biso   1.000  C
  H1       1.0000 0.12160  0.97920  0.12120  Biso   1.000  H
  C2       1.0000 0.24690  0.35300  0.16670  Biso   1.000  C
  C3       1.0000 0.19860  0.14800  0.27530  Biso   1.000  C
  N2       1.0000 0.56500  0.65470  0.56160  Biso   1.000  N
  C4       1.0000 0.61140  0.60140  0.60990  Biso   1.000  C
  H2       1.0000 0.62160  0.47920  0.62120  Biso   1.000  H
  C5       1.0000 0.74690  0.85300  0.66670  Biso   1.000  C
  C6       1.0000 0.69860  0.64800  0.77530  Biso   1.000  C
  N3       1.0000 0.93500  0.34530  0.06160  Biso   1.000  N
  C7       1.0000 0.88860  0.39860  0.10990  Biso   1.000  C
  H3       1.0000 0.87840  0.52080  0.12120  Biso   1.000  H
  C8       1.0000 0.75310  0.14700  0.16670  Biso   1.000  C
  C9       1.0000 0.80140  0.35200  0.27530  Biso   1.000  C
  N4       1.0000 0.43500  0.84530  0.56160  Biso   1.000  N
  C10      1.0000 0.38860  0.89860  0.60990  Biso   1.000  C
  H4       1.0000 0.37840  0.02080  0.62120  Biso   1.000  H
  C11      1.0000 0.25310  0.64700  0.66670  Biso   1.000  C
  C12      1.0000 0.30140  0.85200  0.77530  Biso   1.000  C
  N5       1.0000 0.93500  0.65470  0.93840  Biso   1.000  N
  C13      1.0000 0.88860  0.60140  0.89010  Biso   1.000  C
  H5       1.0000 0.87840  0.47920  0.87880  Biso   1.000  H
  C14      1.0000 0.75310  0.85300  0.83330  Biso   1.000  C
  C15      1.0000 0.80140  0.64800  0.72470  Biso   1.000  C
  N6       1.0000 0.43500  0.15470  0.43840  Biso   1.000  N
  C16      1.0000 0.38860  0.10140  0.39010  Biso   1.000  C
  H6       1.0000 0.37840  0.97920  0.37880  Biso   1.000  H
  C17      1.0000 0.25310  0.35300  0.33330  Biso   1.000  C
  C18      1.0000 0.30140  0.14800  0.22470  Biso   1.000  C
  N7       1.0000 0.06500  0.84530  0.93840  Biso   1.000  N
  C19      1.0000 0.11140  0.89860  0.89010  Biso   1.000  C
  H7       1.0000 0.12160  0.02080  0.87880  Biso   1.000  H
  C20      1.0000 0.24690  0.64700  0.83330  Biso   1.000  C
  C21      1.0000 0.19860  0.85200  0.72470  Biso   1.000  C
  N8       1.0000 0.56500  0.34530  0.43840  Biso   1.000  N
  C22      1.0000 0.61140  0.39860  0.39010  Biso   1.000  C
  H8       1.0000 0.62160  0.52080  0.37880  Biso   1.000  H
  C23      1.0000 0.74690  0.14700  0.33330  Biso   1.000  C
  C24      1.0000 0.69860  0.35200  0.22470  Biso   1.000  C
  N9       1.0000 0.93500  0.84530  0.93840  Biso   1.000  N
  C25      1.0000 0.88860  0.89860  0.89010  Biso   1.000  C
  H9       1.0000 0.87840  0.02080  0.87880  Biso   1.000  H
  C26      1.0000 0.75310  0.64700  0.83330  Biso   1.000  C
  C27      1.0000 0.80140  0.85200  0.72470  Biso   1.000  C
  N10      1.0000 0.43500  0.34530  0.43840  Biso   1.000  N
  C28      1.0000 0.38860  0.39860  0.39010  Biso   1.000  C
  H10      1.0000 0.37840  0.52080  0.37880  Biso   1.000  H
  C29      1.0000 0.25310  0.14700  0.33330  Biso   1.000  C
  C30      1.0000 0.30140  0.35200  0.22470  Biso   1.000  C
  N11      1.0000 0.06500  0.65470  0.93840  Biso   1.000  N
  C31      1.0000 0.11140  0.60140  0.89010  Biso   1.000  C
  H11      1.0000 0.12160  0.47920  0.87880  Biso   1.000  H
  C32      1.0000 0.24690  0.85300  0.83330  Biso   1.000  C
  C33      1.0000 0.19860  0.64800  0.72470  Biso   1.000  C
  N12      1.0000 0.56500  0.15470  0.43840  Biso   1.000  N
  C34      1.0000 0.61140  0.10140  0.39010  Biso   1.000  C
  H12      1.0000 0.62160  0.97920  0.37880  Biso   1.000  H
  C35      1.0000 0.74690  0.35300  0.33330  Biso   1.000  C
  C36      1.0000 0.69860  0.14800  0.22470  Biso   1.000  C
  N13      1.0000 0.06500  0.34530  0.06160  Biso   1.000  N
  C37      1.0000 0.11140  0.39860  0.10990  Biso   1.000  C
  H13      1.0000 0.12160  0.52080  0.12120  Biso   1.000  H
  C38      1.0000 0.24690  0.14700  0.16670  Biso   1.000  C
  C39      1.0000 0.19860  0.35200  0.27530  Biso   1.000  C
  N14      1.0000 0.56500  0.84530  0.56160  Biso   1.000  N
  C40      1.0000 0.61140  0.89860  0.60990  Biso   1.000  C
  H14      1.0000 0.62160  0.02080  0.62120  Biso   1.000  H
  C41      1.0000 0.74690  0.64700  0.66670  Biso   1.000  C
  C42      1.0000 0.69860  0.85200  0.77530  Biso   1.000  C
  N15      1.0000 0.93500  0.15470  0.06160  Biso   1.000  N
  C43      1.0000 0.88860  0.10140  0.10990  Biso   1.000  C
  H15      1.0000 0.87840  0.97920  0.12120  Biso   1.000  H
  C44      1.0000 0.75310  0.35300  0.16670  Biso   1.000  C
  C45      1.0000 0.80140  0.14800  0.27530  Biso   1.000  C
  N16      1.0000 0.43500  0.65470  0.56160  Biso   1.000  N
  C46      1.0000 0.38860  0.60140  0.60990  Biso   1.000  C
  H16      1.0000 0.37840  0.47920  0.62120  Biso   1.000  H
  C47      1.0000 0.25310  0.85300  0.66670  Biso   1.000  C
  C48      1.0000 0.30140  0.64800  0.77530  Biso   1.000  C
  Cu1      1.0000 0.00000  0.00000  0.00000  Biso   1.000  Cu
  Cu2      1.0000 0.50000  0.50000  0.50000  Biso   1.000  Cu
  Cu3      1.0000 0.00000  0.50000  0.00000  Biso   1.000  Cu
  Cu4      1.0000 0.50000  0.00000  0.50000  Biso   1.000  Cu
  N17      1.0000 0.14340  0.25000  0.14190  Biso   1.000  N
  C49      1.0000 0.19730  0.25000  0.19810  Biso   1.000  C
  N18      1.0000 0.64340  0.75000  0.64190  Biso   1.000  N
  C50      1.0000 0.69730  0.75000  0.69810  Biso   1.000  C
  N19      1.0000 0.85660  0.25000  0.14190  Biso   1.000  N
  C51      1.0000 0.80270  0.25000  0.19810  Biso   1.000  C
  N20      1.0000 0.35660  0.75000  0.64190  Biso   1.000  N
  C52      1.0000 0.30270  0.75000  0.69810  Biso   1.000  C
  N21      1.0000 0.85660  0.75000  0.85810  Biso   1.000  N
  C53      1.0000 0.80270  0.75000  0.80190  Biso   1.000  C
  N22      1.0000 0.35660  0.25000  0.35810  Biso   1.000  N
  C54      1.0000 0.30270  0.25000  0.30190  Biso   1.000  C
  N23      1.0000 0.14340  0.75000  0.85810  Biso   1.000  N
  C55      1.0000 0.19730  0.75000  0.80190  Biso   1.000  C
  N24      1.0000 0.64340  0.25000  0.35810  Biso   1.000  N
  C56      1.0000 0.69730  0.25000  0.30190  Biso   1.000  C
