data_image0
_cell_length_a       21.367
_cell_length_b       7.118
_cell_length_c       15.134
_cell_angle_alpha    90
_cell_angle_beta     90
_cell_angle_gamma    90

_symmetry_space_group_name_H-M    "P 1"
_symmetry_int_tables_number       1

loop_
  _symmetry_equiv_pos_as_xyz
  'x, y, z'

loop_
  _atom_site_label
  _atom_site_occupancy
  _atom_site_fract_x
  _atom_site_fract_y
  _atom_site_fract_z
  _atom_site_thermal_displace_type
  _atom_site_B_iso_or_equiv
  _atom_site_type_symbol
  N1       1.0000 0.43370  0.15280  0.56140  Biso   1.000  N
  C1       1.0000 0.38780  0.09870  0.61020  Biso   1.000  C
  H1       1.0000 0.37730  0.97410  0.62110  Biso   1.000  H
  C2       1.0000 0.24090  0.11300  0.81330  Biso   1.000  C
  H2       1.0000 0.23320  0.01290  0.85470  Biso   1.000  H
  C3       1.0000 0.29560  0.11000  0.76270  Biso   1.000  C
  H3       1.0000 0.32770  0.01830  0.77230  Biso   1.000  H
  N2       1.0000 0.93370  0.65280  0.06140  Biso   1.000  N
  C4       1.0000 0.88780  0.59870  0.11020  Biso   1.000  C
  H4       1.0000 0.87730  0.47410  0.12110  Biso   1.000  H
  C5       1.0000 0.74090  0.61300  0.31330  Biso   1.000  C
  H5       1.0000 0.73320  0.51290  0.35470  Biso   1.000  H
  C6       1.0000 0.79560  0.61000  0.26270  Biso   1.000  C
  H6       1.0000 0.82770  0.51830  0.27230  Biso   1.000  H
  N3       1.0000 0.56630  0.34720  0.56140  Biso   1.000  N
  C7       1.0000 0.61220  0.40130  0.61020  Biso   1.000  C
  H7       1.0000 0.62270  0.52590  0.62110  Biso   1.000  H
  C8       1.0000 0.75910  0.38700  0.81330  Biso   1.000  C
  H8       1.0000 0.76680  0.48710  0.85470  Biso   1.000  H
  C9       1.0000 0.70440  0.39000  0.76270  Biso   1.000  C
  H9       1.0000 0.67230  0.48170  0.77230  Biso   1.000  H
  N4       1.0000 0.06630  0.84720  0.06140  Biso   1.000  N
  C10      1.0000 0.11220  0.90130  0.11020  Biso   1.000  C
  H10      1.0000 0.12270  0.02590  0.12110  Biso   1.000  H
  C11      1.0000 0.25910  0.88700  0.31330  Biso   1.000  C
  H11      1.0000 0.26680  0.98710  0.35470  Biso   1.000  H
  C12      1.0000 0.20440  0.89000  0.26270  Biso   1.000  C
  H12      1.0000 0.17230  0.98170  0.27230  Biso   1.000  H
  N5       1.0000 0.56630  0.65280  0.43860  Biso   1.000  N
  C13      1.0000 0.61220  0.59870  0.38980  Biso   1.000  C
  H13      1.0000 0.62270  0.47410  0.37890  Biso   1.000  H
  C14      1.0000 0.75910  0.61300  0.18670  Biso   1.000  C
  H14      1.0000 0.76680  0.51290  0.14530  Biso   1.000  H
  C15      1.0000 0.70440  0.61000  0.23730  Biso   1.000  C
  H15      1.0000 0.67230  0.51830  0.22770  Biso   1.000  H
  N6       1.0000 0.06630  0.15280  0.93860  Biso   1.000  N
  C16      1.0000 0.11220  0.09870  0.88980  Biso   1.000  C
  H16      1.0000 0.12270  0.97410  0.87890  Biso   1.000  H
  C17      1.0000 0.25910  0.11300  0.68670  Biso   1.000  C
  H17      1.0000 0.26680  0.01290  0.64530  Biso   1.000  H
  C18      1.0000 0.20440  0.11000  0.73730  Biso   1.000  C
  H18      1.0000 0.17230  0.01830  0.72770  Biso   1.000  H
  N7       1.0000 0.43370  0.84720  0.43860  Biso   1.000  N
  C19      1.0000 0.38780  0.90130  0.38980  Biso   1.000  C
  H19      1.0000 0.37730  0.02590  0.37890  Biso   1.000  H
  C20      1.0000 0.24090  0.88700  0.18670  Biso   1.000  C
  H20      1.0000 0.23320  0.98710  0.14530  Biso   1.000  H
  C21      1.0000 0.29560  0.89000  0.23730  Biso   1.000  C
  H21      1.0000 0.32770  0.98170  0.22770  Biso   1.000  H
  N8       1.0000 0.93370  0.34720  0.93860  Biso   1.000  N
  C22      1.0000 0.88780  0.40130  0.88980  Biso   1.000  C
  H22      1.0000 0.87730  0.52590  0.87890  Biso   1.000  H
  C23      1.0000 0.74090  0.38700  0.68670  Biso   1.000  C
  H23      1.0000 0.73320  0.48710  0.64530  Biso   1.000  H
  C24      1.0000 0.79560  0.39000  0.73730  Biso   1.000  C
  H24      1.0000 0.82770  0.48170  0.72770  Biso   1.000  H
  N9       1.0000 0.56630  0.84720  0.43860  Biso   1.000  N
  C25      1.0000 0.61220  0.90130  0.38980  Biso   1.000  C
  H25      1.0000 0.62270  0.02590  0.37890  Biso   1.000  H
  C26      1.0000 0.75910  0.88700  0.18670  Biso   1.000  C
  H26      1.0000 0.76680  0.98710  0.14530  Biso   1.000  H
  C27      1.0000 0.70440  0.89000  0.23730  Biso   1.000  C
  H27      1.0000 0.67230  0.98170  0.22770  Biso   1.000  H
  N10      1.0000 0.06630  0.34720  0.93860  Biso   1.000  N
  C28      1.0000 0.11220  0.40130  0.88980  Biso   1.000  C
  H28      1.0000 0.12270  0.52590  0.87890  Biso   1.000  H
  C29      1.0000 0.25910  0.38700  0.68670  Biso   1.000  C
  H29      1.0000 0.26680  0.48710  0.64530  Biso   1.000  H
  C30      1.0000 0.20440  0.39000  0.73730  Biso   1.000  C
  H30      1.0000 0.17230  0.48170  0.72770  Biso   1.000  H
  N11      1.0000 0.43370  0.65280  0.43860  Biso   1.000  N
  C31      1.0000 0.38780  0.59870  0.38980  Biso   1.000  C
  H31      1.0000 0.37730  0.47410  0.37890  Biso   1.000  H
  C32      1.0000 0.24090  0.61300  0.18670  Biso   1.000  C
  H32      1.0000 0.23320  0.51290  0.14530  Biso   1.000  H
  C33      1.0000 0.29560  0.61000  0.23730  Biso   1.000  C
  H33      1.0000 0.32770  0.51830  0.22770  Biso   1.000  H
  N12      1.0000 0.93370  0.15280  0.93860  Biso   1.000  N
  C34      1.0000 0.88780  0.09870  0.88980  Biso   1.000  C
  H34      1.0000 0.87730  0.97410  0.87890  Biso   1.000  H
  C35      1.0000 0.74090  0.11300  0.68670  Biso   1.000  C
  H35      1.0000 0.73320  0.01290  0.64530  Biso   1.000  H
  C36      1.0000 0.79560  0.11000  0.73730  Biso   1.000  C
  H36      1.0000 0.82770  0.01830  0.72770  Biso   1.000  H
  N13      1.0000 0.43370  0.34720  0.56140  Biso   1.000  N
  C37      1.0000 0.38780  0.40130  0.61020  Biso   1.000  C
  H37      1.0000 0.37730  0.52590  0.62110  Biso   1.000  H
  C38      1.0000 0.24090  0.38700  0.81330  Biso   1.000  C
  H38      1.0000 0.23320  0.48710  0.85470  Biso   1.000  H
  C39      1.0000 0.29560  0.39000  0.76270  Biso   1.000  C
  H39      1.0000 0.32770  0.48170  0.77230  Biso   1.000  H
  N14      1.0000 0.93370  0.84720  0.06140  Biso   1.000  N
  C40      1.0000 0.88780  0.90130  0.11020  Biso   1.000  C
  H40      1.0000 0.87730  0.02590  0.12110  Biso   1.000  H
  C41      1.0000 0.74090  0.88700  0.31330  Biso   1.000  C
  H41      1.0000 0.73320  0.98710  0.35470  Biso   1.000  H
  C42      1.0000 0.79560  0.89000  0.26270  Biso   1.000  C
  H42      1.0000 0.82770  0.98170  0.27230  Biso   1.000  H
  N15      1.0000 0.56630  0.15280  0.56140  Biso   1.000  N
  C43      1.0000 0.61220  0.09870  0.61020  Biso   1.000  C
  H43      1.0000 0.62270  0.97410  0.62110  Biso   1.000  H
  C44      1.0000 0.75910  0.11300  0.81330  Biso   1.000  C
  H44      1.0000 0.76680  0.01290  0.85470  Biso   1.000  H
  C45      1.0000 0.70440  0.11000  0.76270  Biso   1.000  C
  H45      1.0000 0.67230  0.01830  0.77230  Biso   1.000  H
  N16      1.0000 0.06630  0.65280  0.06140  Biso   1.000  N
  C46      1.0000 0.11220  0.59870  0.11020  Biso   1.000  C
  H46      1.0000 0.12270  0.47410  0.12110  Biso   1.000  H
  C47      1.0000 0.25910  0.61300  0.31330  Biso   1.000  C
  H47      1.0000 0.26680  0.51290  0.35470  Biso   1.000  H
  C48      1.0000 0.20440  0.61000  0.26270  Biso   1.000  C
  H48      1.0000 0.17230  0.51830  0.27230  Biso   1.000  H
  Cu1      1.0000 0.50000  0.00000  0.50000  Biso   1.000  Cu
  Cu2      1.0000 0.00000  0.50000  0.00000  Biso   1.000  Cu
  Cu3      1.0000 0.50000  0.50000  0.50000  Biso   1.000  Cu
  Cu4      1.0000 0.00000  0.00000  0.00000  Biso   1.000  Cu
  N17      1.0000 0.35690  0.25000  0.64340  Biso   1.000  N
  C49      1.0000 0.30210  0.25000  0.69620  Biso   1.000  C
  N18      1.0000 0.85690  0.75000  0.14340  Biso   1.000  N
  C50      1.0000 0.80210  0.75000  0.19620  Biso   1.000  C
  N19      1.0000 0.64310  0.25000  0.64340  Biso   1.000  N
  C51      1.0000 0.69790  0.25000  0.69620  Biso   1.000  C
  N20      1.0000 0.14310  0.75000  0.14340  Biso   1.000  N
  C52      1.0000 0.19790  0.75000  0.19620  Biso   1.000  C
  N21      1.0000 0.64310  0.75000  0.35660  Biso   1.000  N
  C53      1.0000 0.69790  0.75000  0.30380  Biso   1.000  C
  N22      1.0000 0.14310  0.25000  0.85660  Biso   1.000  N
  C54      1.0000 0.19790  0.25000  0.80380  Biso   1.000  C
  N23      1.0000 0.35690  0.75000  0.35660  Biso   1.000  N
  C55      1.0000 0.30210  0.75000  0.30380  Biso   1.000  C
  N24      1.0000 0.85690  0.25000  0.85660  Biso   1.000  N
  C56      1.0000 0.80210  0.25000  0.80380  Biso   1.000  C
