data_image0
_cell_length_a       21.248
_cell_length_b       7.1438
_cell_length_c       15.33
_cell_angle_alpha    90
_cell_angle_beta     90
_cell_angle_gamma    90

_symmetry_space_group_name_H-M    "P 1"
_symmetry_int_tables_number       1

loop_
  _symmetry_equiv_pos_as_xyz
  'x, y, z'

loop_
  _atom_site_label
  _atom_site_occupancy
  _atom_site_fract_x
  _atom_site_fract_y
  _atom_site_fract_z
  _atom_site_thermal_displace_type
  _atom_site_B_iso_or_equiv
  _atom_site_type_symbol
  N1       1.0000 0.43330  0.15300  0.43880  Biso   1.000  N
  C1       1.0000 0.38770  0.90120  0.60850  Biso   1.000  C
  H1       1.0000 0.37700  0.02570  0.61800  Biso   1.000  H
  C2       1.0000 0.25900  0.61400  0.68790  Biso   1.000  C
  C3       1.0000 0.29660  0.61000  0.76140  Biso   1.000  C
  H2       1.0000 0.26430  0.51980  0.64370  Biso   1.000  H
  H3       1.0000 0.32810  0.51510  0.76820  Biso   1.000  H
  N2       1.0000 0.93330  0.65300  0.93880  Biso   1.000  N
  C4       1.0000 0.88770  0.40120  0.10850  Biso   1.000  C
  H4       1.0000 0.87700  0.52570  0.11800  Biso   1.000  H
  C5       1.0000 0.75900  0.11400  0.18790  Biso   1.000  C
  C6       1.0000 0.79660  0.11000  0.26140  Biso   1.000  C
  H5       1.0000 0.76430  0.01980  0.14370  Biso   1.000  H
  H6       1.0000 0.82810  0.01510  0.26820  Biso   1.000  H
  N3       1.0000 0.56670  0.34700  0.43880  Biso   1.000  N
  C7       1.0000 0.61230  0.59880  0.60850  Biso   1.000  C
  H7       1.0000 0.62300  0.47430  0.61800  Biso   1.000  H
  C8       1.0000 0.74100  0.88600  0.68790  Biso   1.000  C
  C9       1.0000 0.70340  0.89000  0.76140  Biso   1.000  C
  H8       1.0000 0.73570  0.98020  0.64370  Biso   1.000  H
  H9       1.0000 0.67190  0.98490  0.76820  Biso   1.000  H
  N4       1.0000 0.06670  0.84700  0.93880  Biso   1.000  N
  C10      1.0000 0.11230  0.09880  0.10850  Biso   1.000  C
  H10      1.0000 0.12300  0.97430  0.11800  Biso   1.000  H
  C11      1.0000 0.24100  0.38600  0.18790  Biso   1.000  C
  C12      1.0000 0.20340  0.39000  0.26140  Biso   1.000  C
  H11      1.0000 0.23570  0.48020  0.14370  Biso   1.000  H
  H12      1.0000 0.17190  0.48490  0.26820  Biso   1.000  H
  N5       1.0000 0.56670  0.65300  0.56120  Biso   1.000  N
  C13      1.0000 0.61230  0.40120  0.39150  Biso   1.000  C
  H13      1.0000 0.62300  0.52570  0.38200  Biso   1.000  H
  C14      1.0000 0.74100  0.11400  0.31210  Biso   1.000  C
  C15      1.0000 0.70340  0.11000  0.23860  Biso   1.000  C
  H14      1.0000 0.73570  0.01980  0.35630  Biso   1.000  H
  H15      1.0000 0.67190  0.01510  0.23180  Biso   1.000  H
  N6       1.0000 0.06670  0.15300  0.06120  Biso   1.000  N
  C16      1.0000 0.11230  0.90120  0.89150  Biso   1.000  C
  H16      1.0000 0.12300  0.02570  0.88200  Biso   1.000  H
  C17      1.0000 0.24100  0.61400  0.81210  Biso   1.000  C
  C18      1.0000 0.20340  0.61000  0.73860  Biso   1.000  C
  H17      1.0000 0.23570  0.51980  0.85630  Biso   1.000  H
  H18      1.0000 0.17190  0.51510  0.73180  Biso   1.000  H
  N7       1.0000 0.43330  0.84700  0.56120  Biso   1.000  N
  C19      1.0000 0.38770  0.09880  0.39150  Biso   1.000  C
  H19      1.0000 0.37700  0.97430  0.38200  Biso   1.000  H
  C20      1.0000 0.25900  0.38600  0.31210  Biso   1.000  C
  C21      1.0000 0.29660  0.39000  0.23860  Biso   1.000  C
  H20      1.0000 0.26430  0.48020  0.35630  Biso   1.000  H
  H21      1.0000 0.32810  0.48490  0.23180  Biso   1.000  H
  N8       1.0000 0.93330  0.34700  0.06120  Biso   1.000  N
  C22      1.0000 0.88770  0.59880  0.89150  Biso   1.000  C
  H22      1.0000 0.87700  0.47430  0.88200  Biso   1.000  H
  C23      1.0000 0.75900  0.88600  0.81210  Biso   1.000  C
  C24      1.0000 0.79660  0.89000  0.73860  Biso   1.000  C
  H23      1.0000 0.76430  0.98020  0.85630  Biso   1.000  H
  H24      1.0000 0.82810  0.98490  0.73180  Biso   1.000  H
  N9       1.0000 0.56670  0.84700  0.56120  Biso   1.000  N
  C25      1.0000 0.61230  0.09880  0.39150  Biso   1.000  C
  H25      1.0000 0.62300  0.97430  0.38200  Biso   1.000  H
  C26      1.0000 0.74100  0.38600  0.31210  Biso   1.000  C
  C27      1.0000 0.70340  0.39000  0.23860  Biso   1.000  C
  H26      1.0000 0.73570  0.48020  0.35630  Biso   1.000  H
  H27      1.0000 0.67190  0.48490  0.23180  Biso   1.000  H
  N10      1.0000 0.06670  0.34700  0.06120  Biso   1.000  N
  C28      1.0000 0.11230  0.59880  0.89150  Biso   1.000  C
  H28      1.0000 0.12300  0.47430  0.88200  Biso   1.000  H
  C29      1.0000 0.24100  0.88600  0.81210  Biso   1.000  C
  C30      1.0000 0.20340  0.89000  0.73860  Biso   1.000  C
  H29      1.0000 0.23570  0.98020  0.85630  Biso   1.000  H
  H30      1.0000 0.17190  0.98490  0.73180  Biso   1.000  H
  N11      1.0000 0.43330  0.65300  0.56120  Biso   1.000  N
  C31      1.0000 0.38770  0.40120  0.39150  Biso   1.000  C
  H31      1.0000 0.37700  0.52570  0.38200  Biso   1.000  H
  C32      1.0000 0.25900  0.11400  0.31210  Biso   1.000  C
  C33      1.0000 0.29660  0.11000  0.23860  Biso   1.000  C
  H32      1.0000 0.26430  0.01980  0.35630  Biso   1.000  H
  H33      1.0000 0.32810  0.01510  0.23180  Biso   1.000  H
  N12      1.0000 0.93330  0.15300  0.06120  Biso   1.000  N
  C34      1.0000 0.88770  0.90120  0.89150  Biso   1.000  C
  H34      1.0000 0.87700  0.02570  0.88200  Biso   1.000  H
  C35      1.0000 0.75900  0.61400  0.81210  Biso   1.000  C
  C36      1.0000 0.79660  0.61000  0.73860  Biso   1.000  C
  H35      1.0000 0.76430  0.51980  0.85630  Biso   1.000  H
  H36      1.0000 0.82810  0.51510  0.73180  Biso   1.000  H
  N13      1.0000 0.43330  0.34700  0.43880  Biso   1.000  N
  C37      1.0000 0.38770  0.59880  0.60850  Biso   1.000  C
  H37      1.0000 0.37700  0.47430  0.61800  Biso   1.000  H
  C38      1.0000 0.25900  0.88600  0.68790  Biso   1.000  C
  C39      1.0000 0.29660  0.89000  0.76140  Biso   1.000  C
  H38      1.0000 0.26430  0.98020  0.64370  Biso   1.000  H
  H39      1.0000 0.32810  0.98490  0.76820  Biso   1.000  H
  N14      1.0000 0.93330  0.84700  0.93880  Biso   1.000  N
  C40      1.0000 0.88770  0.09880  0.10850  Biso   1.000  C
  H40      1.0000 0.87700  0.97430  0.11800  Biso   1.000  H
  C41      1.0000 0.75900  0.38600  0.18790  Biso   1.000  C
  C42      1.0000 0.79660  0.39000  0.26140  Biso   1.000  C
  H41      1.0000 0.76430  0.48020  0.14370  Biso   1.000  H
  H42      1.0000 0.82810  0.48490  0.26820  Biso   1.000  H
  N15      1.0000 0.56670  0.15300  0.43880  Biso   1.000  N
  C43      1.0000 0.61230  0.90120  0.60850  Biso   1.000  C
  H43      1.0000 0.62300  0.02570  0.61800  Biso   1.000  H
  C44      1.0000 0.74100  0.61400  0.68790  Biso   1.000  C
  C45      1.0000 0.70340  0.61000  0.76140  Biso   1.000  C
  H44      1.0000 0.73570  0.51980  0.64370  Biso   1.000  H
  H45      1.0000 0.67190  0.51510  0.76820  Biso   1.000  H
  N16      1.0000 0.06670  0.65300  0.93880  Biso   1.000  N
  C46      1.0000 0.11230  0.40120  0.10850  Biso   1.000  C
  H46      1.0000 0.12300  0.52570  0.11800  Biso   1.000  H
  C47      1.0000 0.24100  0.11400  0.18790  Biso   1.000  C
  C48      1.0000 0.20340  0.11000  0.26140  Biso   1.000  C
  H47      1.0000 0.23570  0.01980  0.14370  Biso   1.000  H
  H48      1.0000 0.17190  0.01510  0.26820  Biso   1.000  H
  Cu1      1.0000 0.50000  0.00000  0.50000  Biso   1.000  Cu
  Cu2      1.0000 0.00000  0.50000  0.00000  Biso   1.000  Cu
  Cu3      1.0000 0.50000  0.50000  0.50000  Biso   1.000  Cu
  Cu4      1.0000 0.00000  0.00000  0.00000  Biso   1.000  Cu
  N17      1.0000 0.35650  0.75000  0.64380  Biso   1.000  N
  C49      1.0000 0.30270  0.75000  0.69660  Biso   1.000  C
  N18      1.0000 0.85650  0.25000  0.14380  Biso   1.000  N
  C50      1.0000 0.80270  0.25000  0.19660  Biso   1.000  C
  N19      1.0000 0.64350  0.75000  0.64380  Biso   1.000  N
  C51      1.0000 0.69730  0.75000  0.69660  Biso   1.000  C
  N20      1.0000 0.14350  0.25000  0.14380  Biso   1.000  N
  C52      1.0000 0.19730  0.25000  0.19660  Biso   1.000  C
  N21      1.0000 0.64350  0.25000  0.35620  Biso   1.000  N
  C53      1.0000 0.69730  0.25000  0.30340  Biso   1.000  C
  N22      1.0000 0.14350  0.75000  0.85620  Biso   1.000  N
  C54      1.0000 0.19730  0.75000  0.80340  Biso   1.000  C
  N23      1.0000 0.35650  0.25000  0.35620  Biso   1.000  N
  C55      1.0000 0.30270  0.25000  0.30340  Biso   1.000  C
  N24      1.0000 0.85650  0.75000  0.85620  Biso   1.000  N
  C56      1.0000 0.80270  0.75000  0.80340  Biso   1.000  C
