data_image0
_cell_length_a       21.348
_cell_length_b       7.132
_cell_length_c       15.175
_cell_angle_alpha    90
_cell_angle_beta     90
_cell_angle_gamma    90

_symmetry_space_group_name_H-M    "P 1"
_symmetry_int_tables_number       1

loop_
  _symmetry_equiv_pos_as_xyz
  'x, y, z'

loop_
  _atom_site_label
  _atom_site_occupancy
  _atom_site_fract_x
  _atom_site_fract_y
  _atom_site_fract_z
  _atom_site_thermal_displace_type
  _atom_site_B_iso_or_equiv
  _atom_site_type_symbol
  N1       1.0000 0.43360  0.15250  0.43820  Biso   1.000  N
  C1       1.0000 0.38740  0.90130  0.60960  Biso   1.000  C
  H1       1.0000 0.37640  0.02560  0.61990  Biso   1.000  H
  C2       1.0000 0.25730  0.61140  0.68430  Biso   1.000  C
  C3       1.0000 0.29510  0.61150  0.75910  Biso   1.000  C
  H2       1.0000 0.26200  0.51970  0.63850  Biso   1.000  H
  H3       1.0000 0.32660  0.51630  0.76510  Biso   1.000  H
  N2       1.0000 0.93360  0.65250  0.93820  Biso   1.000  N
  C4       1.0000 0.88740  0.40130  0.10960  Biso   1.000  C
  H4       1.0000 0.87640  0.52560  0.11990  Biso   1.000  H
  C5       1.0000 0.75730  0.11140  0.18430  Biso   1.000  C
  C6       1.0000 0.79510  0.11150  0.25910  Biso   1.000  C
  H5       1.0000 0.76200  0.01970  0.13850  Biso   1.000  H
  H6       1.0000 0.82660  0.01630  0.26510  Biso   1.000  H
  N3       1.0000 0.56640  0.34750  0.43820  Biso   1.000  N
  C7       1.0000 0.61260  0.59870  0.60960  Biso   1.000  C
  H7       1.0000 0.62360  0.47440  0.61990  Biso   1.000  H
  C8       1.0000 0.74270  0.88860  0.68430  Biso   1.000  C
  C9       1.0000 0.70490  0.88850  0.75910  Biso   1.000  C
  H8       1.0000 0.73800  0.98030  0.63850  Biso   1.000  H
  H9       1.0000 0.67340  0.98370  0.76510  Biso   1.000  H
  N4       1.0000 0.06640  0.84750  0.93820  Biso   1.000  N
  C10      1.0000 0.11260  0.09870  0.10960  Biso   1.000  C
  H10      1.0000 0.12360  0.97440  0.11990  Biso   1.000  H
  C11      1.0000 0.24270  0.38860  0.18430  Biso   1.000  C
  C12      1.0000 0.20490  0.38850  0.25910  Biso   1.000  C
  H11      1.0000 0.23800  0.48030  0.13850  Biso   1.000  H
  H12      1.0000 0.17340  0.48370  0.26510  Biso   1.000  H
  N5       1.0000 0.56640  0.65250  0.56180  Biso   1.000  N
  C13      1.0000 0.61260  0.40130  0.39040  Biso   1.000  C
  H13      1.0000 0.62360  0.52560  0.38010  Biso   1.000  H
  C14      1.0000 0.74270  0.11140  0.31570  Biso   1.000  C
  C15      1.0000 0.70490  0.11150  0.24090  Biso   1.000  C
  H14      1.0000 0.73800  0.01970  0.36150  Biso   1.000  H
  H15      1.0000 0.67340  0.01630  0.23490  Biso   1.000  H
  N6       1.0000 0.06640  0.15250  0.06180  Biso   1.000  N
  C16      1.0000 0.11260  0.90130  0.89040  Biso   1.000  C
  H16      1.0000 0.12360  0.02560  0.88010  Biso   1.000  H
  C17      1.0000 0.24270  0.61140  0.81570  Biso   1.000  C
  C18      1.0000 0.20490  0.61150  0.74090  Biso   1.000  C
  H17      1.0000 0.23800  0.51970  0.86150  Biso   1.000  H
  H18      1.0000 0.17340  0.51630  0.73490  Biso   1.000  H
  N7       1.0000 0.43360  0.84750  0.56180  Biso   1.000  N
  C19      1.0000 0.38740  0.09870  0.39040  Biso   1.000  C
  H19      1.0000 0.37640  0.97440  0.38010  Biso   1.000  H
  C20      1.0000 0.25730  0.38860  0.31570  Biso   1.000  C
  C21      1.0000 0.29510  0.38850  0.24090  Biso   1.000  C
  H20      1.0000 0.26200  0.48030  0.36150  Biso   1.000  H
  H21      1.0000 0.32660  0.48370  0.23490  Biso   1.000  H
  N8       1.0000 0.93360  0.34750  0.06180  Biso   1.000  N
  C22      1.0000 0.88740  0.59870  0.89040  Biso   1.000  C
  H22      1.0000 0.87640  0.47440  0.88010  Biso   1.000  H
  C23      1.0000 0.75730  0.88860  0.81570  Biso   1.000  C
  C24      1.0000 0.79510  0.88850  0.74090  Biso   1.000  C
  H23      1.0000 0.76200  0.98030  0.86150  Biso   1.000  H
  H24      1.0000 0.82660  0.98370  0.73490  Biso   1.000  H
  N9       1.0000 0.56640  0.84750  0.56180  Biso   1.000  N
  C25      1.0000 0.61260  0.09870  0.39040  Biso   1.000  C
  H25      1.0000 0.62360  0.97440  0.38010  Biso   1.000  H
  C26      1.0000 0.74270  0.38860  0.31570  Biso   1.000  C
  C27      1.0000 0.70490  0.38850  0.24090  Biso   1.000  C
  H26      1.0000 0.73800  0.48030  0.36150  Biso   1.000  H
  H27      1.0000 0.67340  0.48370  0.23490  Biso   1.000  H
  N10      1.0000 0.06640  0.34750  0.06180  Biso   1.000  N
  C28      1.0000 0.11260  0.59870  0.89040  Biso   1.000  C
  H28      1.0000 0.12360  0.47440  0.88010  Biso   1.000  H
  C29      1.0000 0.24270  0.88860  0.81570  Biso   1.000  C
  C30      1.0000 0.20490  0.88850  0.74090  Biso   1.000  C
  H29      1.0000 0.23800  0.98030  0.86150  Biso   1.000  H
  H30      1.0000 0.17340  0.98370  0.73490  Biso   1.000  H
  N11      1.0000 0.43360  0.65250  0.56180  Biso   1.000  N
  C31      1.0000 0.38740  0.40130  0.39040  Biso   1.000  C
  H31      1.0000 0.37640  0.52560  0.38010  Biso   1.000  H
  C32      1.0000 0.25730  0.11140  0.31570  Biso   1.000  C
  C33      1.0000 0.29510  0.11150  0.24090  Biso   1.000  C
  H32      1.0000 0.26200  0.01970  0.36150  Biso   1.000  H
  H33      1.0000 0.32660  0.01630  0.23490  Biso   1.000  H
  N12      1.0000 0.93360  0.15250  0.06180  Biso   1.000  N
  C34      1.0000 0.88740  0.90130  0.89040  Biso   1.000  C
  H34      1.0000 0.87640  0.02560  0.88010  Biso   1.000  H
  C35      1.0000 0.75730  0.61140  0.81570  Biso   1.000  C
  C36      1.0000 0.79510  0.61150  0.74090  Biso   1.000  C
  H35      1.0000 0.76200  0.51970  0.86150  Biso   1.000  H
  H36      1.0000 0.82660  0.51630  0.73490  Biso   1.000  H
  N13      1.0000 0.43360  0.34750  0.43820  Biso   1.000  N
  C37      1.0000 0.38740  0.59870  0.60960  Biso   1.000  C
  H37      1.0000 0.37640  0.47440  0.61990  Biso   1.000  H
  C38      1.0000 0.25730  0.88860  0.68430  Biso   1.000  C
  C39      1.0000 0.29510  0.88850  0.75910  Biso   1.000  C
  H38      1.0000 0.26200  0.98030  0.63850  Biso   1.000  H
  H39      1.0000 0.32660  0.98370  0.76510  Biso   1.000  H
  N14      1.0000 0.93360  0.84750  0.93820  Biso   1.000  N
  C40      1.0000 0.88740  0.09870  0.10960  Biso   1.000  C
  H40      1.0000 0.87640  0.97440  0.11990  Biso   1.000  H
  C41      1.0000 0.75730  0.38860  0.18430  Biso   1.000  C
  C42      1.0000 0.79510  0.38850  0.25910  Biso   1.000  C
  H41      1.0000 0.76200  0.48030  0.13850  Biso   1.000  H
  H42      1.0000 0.82660  0.48370  0.26510  Biso   1.000  H
  N15      1.0000 0.56640  0.15250  0.43820  Biso   1.000  N
  C43      1.0000 0.61260  0.90130  0.60960  Biso   1.000  C
  H43      1.0000 0.62360  0.02560  0.61990  Biso   1.000  H
  C44      1.0000 0.74270  0.61140  0.68430  Biso   1.000  C
  C45      1.0000 0.70490  0.61150  0.75910  Biso   1.000  C
  H44      1.0000 0.73800  0.51970  0.63850  Biso   1.000  H
  H45      1.0000 0.67340  0.51630  0.76510  Biso   1.000  H
  N16      1.0000 0.06640  0.65250  0.93820  Biso   1.000  N
  C46      1.0000 0.11260  0.40130  0.10960  Biso   1.000  C
  H46      1.0000 0.12360  0.52560  0.11990  Biso   1.000  H
  C47      1.0000 0.24270  0.11140  0.18430  Biso   1.000  C
  C48      1.0000 0.20490  0.11150  0.25910  Biso   1.000  C
  H47      1.0000 0.23800  0.01970  0.13850  Biso   1.000  H
  H48      1.0000 0.17340  0.01630  0.26510  Biso   1.000  H
  Cu1      1.0000 0.50000  0.00000  0.50000  Biso   1.000  Cu
  Cu2      1.0000 0.00000  0.50000  0.00000  Biso   1.000  Cu
  Cu3      1.0000 0.50000  0.50000  0.50000  Biso   1.000  Cu
  Cu4      1.0000 0.00000  0.00000  0.00000  Biso   1.000  Cu
  N17      1.0000 0.35710  0.75000  0.64350  Biso   1.000  N
  C49      1.0000 0.30170  0.75000  0.69670  Biso   1.000  C
  N18      1.0000 0.85710  0.25000  0.14350  Biso   1.000  N
  C50      1.0000 0.80170  0.25000  0.19670  Biso   1.000  C
  N19      1.0000 0.64290  0.75000  0.64350  Biso   1.000  N
  C51      1.0000 0.69830  0.75000  0.69670  Biso   1.000  C
  N20      1.0000 0.14290  0.25000  0.14350  Biso   1.000  N
  C52      1.0000 0.19830  0.25000  0.19670  Biso   1.000  C
  N21      1.0000 0.64290  0.25000  0.35650  Biso   1.000  N
  C53      1.0000 0.69830  0.25000  0.30330  Biso   1.000  C
  N22      1.0000 0.14290  0.75000  0.85650  Biso   1.000  N
  C54      1.0000 0.19830  0.75000  0.80330  Biso   1.000  C
  N23      1.0000 0.35710  0.25000  0.35650  Biso   1.000  N
  C55      1.0000 0.30170  0.25000  0.30330  Biso   1.000  C
  N24      1.0000 0.85710  0.75000  0.85650  Biso   1.000  N
  C56      1.0000 0.80170  0.75000  0.80330  Biso   1.000  C
