data_image0
_cell_length_a       21.2401
_cell_length_b       7.2164
_cell_length_c       15.2493
_cell_angle_alpha    90
_cell_angle_beta     90
_cell_angle_gamma    90

_symmetry_space_group_name_H-M    "P 1"
_symmetry_int_tables_number       1

loop_
  _symmetry_equiv_pos_as_xyz
  'x, y, z'

loop_
  _atom_site_label
  _atom_site_occupancy
  _atom_site_fract_x
  _atom_site_fract_y
  _atom_site_fract_z
  _atom_site_thermal_displace_type
  _atom_site_B_iso_or_equiv
  _atom_site_type_symbol
  N1       1.0000 0.06639  0.15490  0.56002  Biso   1.000  N
  C1       1.0000 0.11341  0.89980  0.39095  Biso   1.000  C
  H1       1.0000 0.12400  0.02250  0.37960  Biso   1.000  H
  C2       1.0000 0.24760  0.63820  0.32310  Biso   1.000  C
  C3       1.0000 0.19950  0.63600  0.23210  Biso   1.000  C
  H2       1.0000 0.24450  0.55590  0.37240  Biso   1.000  H
  H3       1.0000 0.16370  0.56020  0.21850  Biso   1.000  H
  N2       1.0000 0.56639  0.65490  0.06002  Biso   1.000  N
  C4       1.0000 0.61341  0.39980  0.89095  Biso   1.000  C
  H4       1.0000 0.62400  0.52250  0.87960  Biso   1.000  H
  C5       1.0000 0.74760  0.13820  0.82310  Biso   1.000  C
  C6       1.0000 0.69950  0.13600  0.73210  Biso   1.000  C
  H5       1.0000 0.74450  0.05590  0.87240  Biso   1.000  H
  H6       1.0000 0.66370  0.06020  0.71850  Biso   1.000  H
  N3       1.0000 0.93361  0.34510  0.56002  Biso   1.000  N
  C7       1.0000 0.88659  0.60020  0.39095  Biso   1.000  C
  H7       1.0000 0.87600  0.47750  0.37960  Biso   1.000  H
  C8       1.0000 0.75240  0.86180  0.32310  Biso   1.000  C
  C9       1.0000 0.80050  0.86400  0.23210  Biso   1.000  C
  H8       1.0000 0.75550  0.94410  0.37240  Biso   1.000  H
  H9       1.0000 0.83630  0.93980  0.21850  Biso   1.000  H
  N4       1.0000 0.43361  0.84510  0.06002  Biso   1.000  N
  C10      1.0000 0.38659  0.10020  0.89095  Biso   1.000  C
  H10      1.0000 0.37600  0.97750  0.87960  Biso   1.000  H
  C11      1.0000 0.25240  0.36180  0.82310  Biso   1.000  C
  C12      1.0000 0.30050  0.36400  0.73210  Biso   1.000  C
  H11      1.0000 0.25550  0.44410  0.87240  Biso   1.000  H
  H12      1.0000 0.33630  0.43980  0.71850  Biso   1.000  H
  N5       1.0000 0.93361  0.65490  0.43998  Biso   1.000  N
  C13      1.0000 0.88659  0.39980  0.60905  Biso   1.000  C
  H13      1.0000 0.87600  0.52250  0.62040  Biso   1.000  H
  C14      1.0000 0.75240  0.13820  0.67690  Biso   1.000  C
  C15      1.0000 0.80050  0.13600  0.76790  Biso   1.000  C
  H14      1.0000 0.75550  0.05590  0.62760  Biso   1.000  H
  H15      1.0000 0.83630  0.06020  0.78150  Biso   1.000  H
  N6       1.0000 0.43361  0.15490  0.93998  Biso   1.000  N
  C16      1.0000 0.38659  0.89980  0.10905  Biso   1.000  C
  H16      1.0000 0.37600  0.02250  0.12040  Biso   1.000  H
  C17      1.0000 0.25240  0.63820  0.17690  Biso   1.000  C
  C18      1.0000 0.30050  0.63600  0.26790  Biso   1.000  C
  H17      1.0000 0.25550  0.55590  0.12760  Biso   1.000  H
  H18      1.0000 0.33630  0.56020  0.28150  Biso   1.000  H
  N7       1.0000 0.06639  0.84510  0.43998  Biso   1.000  N
  C19      1.0000 0.11341  0.10020  0.60905  Biso   1.000  C
  H19      1.0000 0.12400  0.97750  0.62040  Biso   1.000  H
  C20      1.0000 0.24760  0.36180  0.67690  Biso   1.000  C
  C21      1.0000 0.19950  0.36400  0.76790  Biso   1.000  C
  H20      1.0000 0.24450  0.44410  0.62760  Biso   1.000  H
  H21      1.0000 0.16370  0.43980  0.78150  Biso   1.000  H
  N8       1.0000 0.56639  0.34510  0.93998  Biso   1.000  N
  C22      1.0000 0.61341  0.60020  0.10905  Biso   1.000  C
  H22      1.0000 0.62400  0.47750  0.12040  Biso   1.000  H
  C23      1.0000 0.74760  0.86180  0.17690  Biso   1.000  C
  C24      1.0000 0.69950  0.86400  0.26790  Biso   1.000  C
  H23      1.0000 0.74450  0.94410  0.12760  Biso   1.000  H
  H24      1.0000 0.66370  0.93980  0.28150  Biso   1.000  H
  N9       1.0000 0.93361  0.84510  0.43998  Biso   1.000  N
  C25      1.0000 0.88659  0.10020  0.60905  Biso   1.000  C
  H25      1.0000 0.87600  0.97750  0.62040  Biso   1.000  H
  C26      1.0000 0.75240  0.36180  0.67690  Biso   1.000  C
  C27      1.0000 0.80050  0.36400  0.76790  Biso   1.000  C
  H26      1.0000 0.75550  0.44410  0.62760  Biso   1.000  H
  H27      1.0000 0.83630  0.43980  0.78150  Biso   1.000  H
  N10      1.0000 0.43361  0.34510  0.93998  Biso   1.000  N
  C28      1.0000 0.38659  0.60020  0.10905  Biso   1.000  C
  H28      1.0000 0.37600  0.47750  0.12040  Biso   1.000  H
  C29      1.0000 0.25240  0.86180  0.17690  Biso   1.000  C
  C30      1.0000 0.30050  0.86400  0.26790  Biso   1.000  C
  H29      1.0000 0.25550  0.94410  0.12760  Biso   1.000  H
  H30      1.0000 0.33630  0.93980  0.28150  Biso   1.000  H
  N11      1.0000 0.06639  0.65490  0.43998  Biso   1.000  N
  C31      1.0000 0.11341  0.39980  0.60905  Biso   1.000  C
  H31      1.0000 0.12400  0.52250  0.62040  Biso   1.000  H
  C32      1.0000 0.24760  0.13820  0.67690  Biso   1.000  C
  C33      1.0000 0.19950  0.13600  0.76790  Biso   1.000  C
  H32      1.0000 0.24450  0.05590  0.62760  Biso   1.000  H
  H33      1.0000 0.16370  0.06020  0.78150  Biso   1.000  H
  N12      1.0000 0.56639  0.15490  0.93998  Biso   1.000  N
  C34      1.0000 0.61341  0.89980  0.10905  Biso   1.000  C
  H34      1.0000 0.62400  0.02250  0.12040  Biso   1.000  H
  C35      1.0000 0.74760  0.63820  0.17690  Biso   1.000  C
  C36      1.0000 0.69950  0.63600  0.26790  Biso   1.000  C
  H35      1.0000 0.74450  0.55590  0.12760  Biso   1.000  H
  H36      1.0000 0.66370  0.56020  0.28150  Biso   1.000  H
  N13      1.0000 0.06639  0.34510  0.56002  Biso   1.000  N
  C37      1.0000 0.11341  0.60020  0.39095  Biso   1.000  C
  H37      1.0000 0.12400  0.47750  0.37960  Biso   1.000  H
  C38      1.0000 0.24760  0.86180  0.32310  Biso   1.000  C
  C39      1.0000 0.19950  0.86400  0.23210  Biso   1.000  C
  H38      1.0000 0.24450  0.94410  0.37240  Biso   1.000  H
  H39      1.0000 0.16370  0.93980  0.21850  Biso   1.000  H
  N14      1.0000 0.56639  0.84510  0.06002  Biso   1.000  N
  C40      1.0000 0.61341  0.10020  0.89095  Biso   1.000  C
  H40      1.0000 0.62400  0.97750  0.87960  Biso   1.000  H
  C41      1.0000 0.74760  0.36180  0.82310  Biso   1.000  C
  C42      1.0000 0.69950  0.36400  0.73210  Biso   1.000  C
  H41      1.0000 0.74450  0.44410  0.87240  Biso   1.000  H
  H42      1.0000 0.66370  0.43980  0.71850  Biso   1.000  H
  N15      1.0000 0.93361  0.15490  0.56002  Biso   1.000  N
  C43      1.0000 0.88659  0.89980  0.39095  Biso   1.000  C
  H43      1.0000 0.87600  0.02250  0.37960  Biso   1.000  H
  C44      1.0000 0.75240  0.63820  0.32310  Biso   1.000  C
  C45      1.0000 0.80050  0.63600  0.23210  Biso   1.000  C
  H44      1.0000 0.75550  0.55590  0.37240  Biso   1.000  H
  H45      1.0000 0.83630  0.56020  0.21850  Biso   1.000  H
  N16      1.0000 0.43361  0.65490  0.06002  Biso   1.000  N
  C46      1.0000 0.38659  0.39980  0.89095  Biso   1.000  C
  H46      1.0000 0.37600  0.52250  0.87960  Biso   1.000  H
  C47      1.0000 0.25240  0.13820  0.82310  Biso   1.000  C
  C48      1.0000 0.30050  0.13600  0.73210  Biso   1.000  C
  H47      1.0000 0.25550  0.05590  0.87240  Biso   1.000  H
  H48      1.0000 0.33630  0.06020  0.71850  Biso   1.000  H
  Cu1      1.0000 0.00000  0.00000  0.50000  Biso   1.000  Cu
  Cu2      1.0000 0.50000  0.50000  0.00000  Biso   1.000  Cu
  Cu3      1.0000 0.00000  0.50000  0.50000  Biso   1.000  Cu
  Cu4      1.0000 0.50000  0.00000  0.00000  Biso   1.000  Cu
  N17      1.0000 0.14410  0.75000  0.35950  Biso   1.000  N
  C49      1.0000 0.19893  0.75000  0.30260  Biso   1.000  C
  N18      1.0000 0.64410  0.25000  0.85950  Biso   1.000  N
  C50      1.0000 0.69893  0.25000  0.80260  Biso   1.000  C
  N19      1.0000 0.85590  0.75000  0.35950  Biso   1.000  N
  C51      1.0000 0.80107  0.75000  0.30260  Biso   1.000  C
  N20      1.0000 0.35590  0.25000  0.85950  Biso   1.000  N
  C52      1.0000 0.30107  0.25000  0.80260  Biso   1.000  C
  N21      1.0000 0.85590  0.25000  0.64050  Biso   1.000  N
  C53      1.0000 0.80107  0.25000  0.69740  Biso   1.000  C
  N22      1.0000 0.35590  0.75000  0.14050  Biso   1.000  N
  C54      1.0000 0.30107  0.75000  0.19740  Biso   1.000  C
  N23      1.0000 0.14410  0.25000  0.64050  Biso   1.000  N
  C55      1.0000 0.19893  0.25000  0.69740  Biso   1.000  C
  N24      1.0000 0.64410  0.75000  0.14050  Biso   1.000  N
  C56      1.0000 0.69893  0.75000  0.19740  Biso   1.000  C
