data_image0
_cell_length_a       22.1266
_cell_length_b       7.2566
_cell_length_c       13.8663
_cell_angle_alpha    90
_cell_angle_beta     90
_cell_angle_gamma    90

_symmetry_space_group_name_H-M    "P 1"
_symmetry_int_tables_number       1

loop_
  _symmetry_equiv_pos_as_xyz
  'x, y, z'

loop_
  _atom_site_label
  _atom_site_occupancy
  _atom_site_fract_x
  _atom_site_fract_y
  _atom_site_fract_z
  _atom_site_thermal_displace_type
  _atom_site_B_iso_or_equiv
  _atom_site_type_symbol
  N1       1.0000 0.56389  0.34500  0.93550  Biso   1.000  N
  C1       1.0000 0.61088  0.60050  0.11240  Biso   1.000  C
  H1       1.0000 0.62160  0.47830  0.12310  Biso   1.000  H
  C2       1.0000 0.69990  0.64610  0.28120  Biso   1.000  C
  C3       1.0000 0.74470  0.64770  0.16460  Biso   1.000  C
  H2       1.0000 0.66630  0.57010  0.29970  Biso   1.000  H
  H3       1.0000 0.74180  0.58580  0.10350  Biso   1.000  H
  N2       1.0000 0.06389  0.84500  0.43550  Biso   1.000  N
  C4       1.0000 0.11088  0.10050  0.61240  Biso   1.000  C
  H4       1.0000 0.12160  0.97830  0.62310  Biso   1.000  H
  C5       1.0000 0.19990  0.14610  0.78120  Biso   1.000  C
  C6       1.0000 0.24470  0.14770  0.66460  Biso   1.000  C
  H5       1.0000 0.16630  0.07010  0.79970  Biso   1.000  H
  H6       1.0000 0.24180  0.08580  0.60350  Biso   1.000  H
  N3       1.0000 0.43611  0.15500  0.93550  Biso   1.000  N
  C7       1.0000 0.38912  0.89950  0.11240  Biso   1.000  C
  H7       1.0000 0.37840  0.02170  0.12310  Biso   1.000  H
  C8       1.0000 0.30010  0.85390  0.28120  Biso   1.000  C
  C9       1.0000 0.25530  0.85230  0.16460  Biso   1.000  C
  H8       1.0000 0.33370  0.92990  0.29970  Biso   1.000  H
  H9       1.0000 0.25820  0.91420  0.10350  Biso   1.000  H
  N4       1.0000 0.93611  0.65500  0.43550  Biso   1.000  N
  C10      1.0000 0.88912  0.39950  0.61240  Biso   1.000  C
  H10      1.0000 0.87840  0.52170  0.62310  Biso   1.000  H
  C11      1.0000 0.80010  0.35390  0.78120  Biso   1.000  C
  C12      1.0000 0.75530  0.35230  0.66460  Biso   1.000  C
  H11      1.0000 0.83370  0.42990  0.79970  Biso   1.000  H
  H12      1.0000 0.75820  0.41420  0.60350  Biso   1.000  H
  N5       1.0000 0.43611  0.84500  0.06450  Biso   1.000  N
  C13      1.0000 0.38912  0.10050  0.88760  Biso   1.000  C
  H13      1.0000 0.37840  0.97830  0.87690  Biso   1.000  H
  C14      1.0000 0.30010  0.14610  0.71880  Biso   1.000  C
  C15      1.0000 0.25530  0.14770  0.83540  Biso   1.000  C
  H14      1.0000 0.33370  0.07010  0.70030  Biso   1.000  H
  H15      1.0000 0.25820  0.08580  0.89650  Biso   1.000  H
  N6       1.0000 0.93611  0.34500  0.56450  Biso   1.000  N
  C16      1.0000 0.88912  0.60050  0.38760  Biso   1.000  C
  H16      1.0000 0.87840  0.47830  0.37690  Biso   1.000  H
  C17      1.0000 0.80010  0.64610  0.21880  Biso   1.000  C
  C18      1.0000 0.75530  0.64770  0.33540  Biso   1.000  C
  H17      1.0000 0.83370  0.57010  0.20030  Biso   1.000  H
  H18      1.0000 0.75820  0.58580  0.39650  Biso   1.000  H
  N7       1.0000 0.56389  0.65500  0.06450  Biso   1.000  N
  C19      1.0000 0.61088  0.39950  0.88760  Biso   1.000  C
  H19      1.0000 0.62160  0.52170  0.87690  Biso   1.000  H
  C20      1.0000 0.69990  0.35390  0.71880  Biso   1.000  C
  C21      1.0000 0.74470  0.35230  0.83540  Biso   1.000  C
  H20      1.0000 0.66630  0.42990  0.70030  Biso   1.000  H
  H21      1.0000 0.74180  0.41420  0.89650  Biso   1.000  H
  N8       1.0000 0.06389  0.15500  0.56450  Biso   1.000  N
  C22      1.0000 0.11088  0.89950  0.38760  Biso   1.000  C
  H22      1.0000 0.12160  0.02170  0.37690  Biso   1.000  H
  C23      1.0000 0.19990  0.85390  0.21880  Biso   1.000  C
  C24      1.0000 0.24470  0.85230  0.33540  Biso   1.000  C
  H23      1.0000 0.16630  0.92990  0.20030  Biso   1.000  H
  H24      1.0000 0.24180  0.91420  0.39650  Biso   1.000  H
  N9       1.0000 0.43611  0.65500  0.06450  Biso   1.000  N
  C25      1.0000 0.38912  0.39950  0.88760  Biso   1.000  C
  H25      1.0000 0.37840  0.52170  0.87690  Biso   1.000  H
  C26      1.0000 0.30010  0.35390  0.71880  Biso   1.000  C
  C27      1.0000 0.25530  0.35230  0.83540  Biso   1.000  C
  H26      1.0000 0.33370  0.42990  0.70030  Biso   1.000  H
  H27      1.0000 0.25820  0.41420  0.89650  Biso   1.000  H
  N10      1.0000 0.93611  0.15500  0.56450  Biso   1.000  N
  C28      1.0000 0.88912  0.89950  0.38760  Biso   1.000  C
  H28      1.0000 0.87840  0.02170  0.37690  Biso   1.000  H
  C29      1.0000 0.80010  0.85390  0.21880  Biso   1.000  C
  C30      1.0000 0.75530  0.85230  0.33540  Biso   1.000  C
  H29      1.0000 0.83370  0.92990  0.20030  Biso   1.000  H
  H30      1.0000 0.75820  0.91420  0.39650  Biso   1.000  H
  N11      1.0000 0.56389  0.84500  0.06450  Biso   1.000  N
  C31      1.0000 0.61088  0.10050  0.88760  Biso   1.000  C
  H31      1.0000 0.62160  0.97830  0.87690  Biso   1.000  H
  C32      1.0000 0.69990  0.14610  0.71880  Biso   1.000  C
  C33      1.0000 0.74470  0.14770  0.83540  Biso   1.000  C
  H32      1.0000 0.66630  0.07010  0.70030  Biso   1.000  H
  H33      1.0000 0.74180  0.08580  0.89650  Biso   1.000  H
  N12      1.0000 0.06389  0.34500  0.56450  Biso   1.000  N
  C34      1.0000 0.11088  0.60050  0.38760  Biso   1.000  C
  H34      1.0000 0.12160  0.47830  0.37690  Biso   1.000  H
  C35      1.0000 0.19990  0.64610  0.21880  Biso   1.000  C
  C36      1.0000 0.24470  0.64770  0.33540  Biso   1.000  C
  H35      1.0000 0.16630  0.57010  0.20030  Biso   1.000  H
  H36      1.0000 0.24180  0.58580  0.39650  Biso   1.000  H
  N13      1.0000 0.56389  0.15500  0.93550  Biso   1.000  N
  C37      1.0000 0.61088  0.89950  0.11240  Biso   1.000  C
  H37      1.0000 0.62160  0.02170  0.12310  Biso   1.000  H
  C38      1.0000 0.69990  0.85390  0.28120  Biso   1.000  C
  C39      1.0000 0.74470  0.85230  0.16460  Biso   1.000  C
  H38      1.0000 0.66630  0.92990  0.29970  Biso   1.000  H
  H39      1.0000 0.74180  0.91420  0.10350  Biso   1.000  H
  N14      1.0000 0.06389  0.65500  0.43550  Biso   1.000  N
  C40      1.0000 0.11088  0.39950  0.61240  Biso   1.000  C
  H40      1.0000 0.12160  0.52170  0.62310  Biso   1.000  H
  C41      1.0000 0.19990  0.35390  0.78120  Biso   1.000  C
  C42      1.0000 0.24470  0.35230  0.66460  Biso   1.000  C
  H41      1.0000 0.16630  0.42990  0.79970  Biso   1.000  H
  H42      1.0000 0.24180  0.41420  0.60350  Biso   1.000  H
  N15      1.0000 0.43611  0.34500  0.93550  Biso   1.000  N
  C43      1.0000 0.38912  0.60050  0.11240  Biso   1.000  C
  H43      1.0000 0.37840  0.47830  0.12310  Biso   1.000  H
  C44      1.0000 0.30010  0.64610  0.28120  Biso   1.000  C
  C45      1.0000 0.25530  0.64770  0.16460  Biso   1.000  C
  H44      1.0000 0.33370  0.57010  0.29970  Biso   1.000  H
  H45      1.0000 0.25820  0.58580  0.10350  Biso   1.000  H
  N16      1.0000 0.93611  0.84500  0.43550  Biso   1.000  N
  C46      1.0000 0.88912  0.10050  0.61240  Biso   1.000  C
  H46      1.0000 0.87840  0.97830  0.62310  Biso   1.000  H
  C47      1.0000 0.80010  0.14610  0.78120  Biso   1.000  C
  C48      1.0000 0.75530  0.14770  0.66460  Biso   1.000  C
  H47      1.0000 0.83370  0.07010  0.79970  Biso   1.000  H
  H48      1.0000 0.75820  0.08580  0.60350  Biso   1.000  H
  Cu1      1.0000 0.50000  0.50000  0.00000  Biso   1.000  Cu
  Cu2      1.0000 0.00000  0.00000  0.50000  Biso   1.000  Cu
  Cu3      1.0000 0.50000  0.00000  0.00000  Biso   1.000  Cu
  Cu4      1.0000 0.00000  0.50000  0.50000  Biso   1.000  Cu
  N17      1.0000 0.64220  0.75000  0.14450  Biso   1.000  N
  C49      1.0000 0.69770  0.75000  0.19810  Biso   1.000  C
  N18      1.0000 0.14220  0.25000  0.64450  Biso   1.000  N
  C50      1.0000 0.19770  0.25000  0.69810  Biso   1.000  C
  N19      1.0000 0.35780  0.75000  0.14450  Biso   1.000  N
  C51      1.0000 0.30230  0.75000  0.19810  Biso   1.000  C
  N20      1.0000 0.85780  0.25000  0.64450  Biso   1.000  N
  C52      1.0000 0.80230  0.25000  0.69810  Biso   1.000  C
  N21      1.0000 0.35780  0.25000  0.85550  Biso   1.000  N
  C53      1.0000 0.30230  0.25000  0.80190  Biso   1.000  C
  N22      1.0000 0.85780  0.75000  0.35550  Biso   1.000  N
  C54      1.0000 0.80230  0.75000  0.30190  Biso   1.000  C
  N23      1.0000 0.64220  0.25000  0.85550  Biso   1.000  N
  C55      1.0000 0.69770  0.25000  0.80190  Biso   1.000  C
  N24      1.0000 0.14220  0.75000  0.35550  Biso   1.000  N
  C56      1.0000 0.19770  0.75000  0.30190  Biso   1.000  C
