data_image0
_cell_length_a       21.294
_cell_length_b       7.1789
_cell_length_c       15.256
_cell_angle_alpha    90
_cell_angle_beta     90
_cell_angle_gamma    90

_symmetry_space_group_name_H-M    "P 1"
_symmetry_int_tables_number       1

loop_
  _symmetry_equiv_pos_as_xyz
  'x, y, z'

loop_
  _atom_site_label
  _atom_site_occupancy
  _atom_site_fract_x
  _atom_site_fract_y
  _atom_site_fract_z
  _atom_site_thermal_displace_type
  _atom_site_B_iso_or_equiv
  _atom_site_type_symbol
  N1       1.0000 0.56640  0.34640  0.06080  Biso   1.000  N
  C1       1.0000 0.61260  0.59940  0.89150  Biso   1.000  C
  H1       1.0000 0.62330  0.47590  0.88080  Biso   1.000  H
  C2       1.0000 0.74240  0.62200  0.82190  Biso   1.000  C
  C3       1.0000 0.70370  0.61900  0.73680  Biso   1.000  C
  H2       1.0000 0.73720  0.53080  0.86720  Biso   1.000  H
  H3       1.0000 0.67230  0.52380  0.73100  Biso   1.000  H
  N2       1.0000 0.06640  0.84640  0.56080  Biso   1.000  N
  C4       1.0000 0.11260  0.09940  0.39150  Biso   1.000  C
  H4       1.0000 0.12330  0.97590  0.38080  Biso   1.000  H
  C5       1.0000 0.24240  0.12200  0.32190  Biso   1.000  C
  C6       1.0000 0.20370  0.11900  0.23680  Biso   1.000  C
  H5       1.0000 0.23720  0.03080  0.36720  Biso   1.000  H
  H6       1.0000 0.17230  0.02380  0.23100  Biso   1.000  H
  N3       1.0000 0.43360  0.15360  0.06080  Biso   1.000  N
  C7       1.0000 0.38740  0.90060  0.89150  Biso   1.000  C
  H7       1.0000 0.37670  0.02410  0.88080  Biso   1.000  H
  C8       1.0000 0.25760  0.87800  0.82190  Biso   1.000  C
  C9       1.0000 0.29630  0.88100  0.73680  Biso   1.000  C
  H8       1.0000 0.26280  0.96920  0.86720  Biso   1.000  H
  H9       1.0000 0.32770  0.97620  0.73100  Biso   1.000  H
  N4       1.0000 0.93360  0.65360  0.56080  Biso   1.000  N
  C10      1.0000 0.88740  0.40060  0.39150  Biso   1.000  C
  H10      1.0000 0.87670  0.52410  0.38080  Biso   1.000  H
  C11      1.0000 0.75760  0.37800  0.32190  Biso   1.000  C
  C12      1.0000 0.79630  0.38100  0.23680  Biso   1.000  C
  H11      1.0000 0.76280  0.46920  0.36720  Biso   1.000  H
  H12      1.0000 0.82770  0.47620  0.23100  Biso   1.000  H
  N5       1.0000 0.43360  0.84640  0.93920  Biso   1.000  N
  C13      1.0000 0.38740  0.09940  0.10850  Biso   1.000  C
  H13      1.0000 0.37670  0.97590  0.11920  Biso   1.000  H
  C14      1.0000 0.25760  0.12200  0.17810  Biso   1.000  C
  C15      1.0000 0.29630  0.11900  0.26320  Biso   1.000  C
  H14      1.0000 0.26280  0.03080  0.13280  Biso   1.000  H
  H15      1.0000 0.32770  0.02380  0.26900  Biso   1.000  H
  N6       1.0000 0.93360  0.34640  0.43920  Biso   1.000  N
  C16      1.0000 0.88740  0.59940  0.60850  Biso   1.000  C
  H16      1.0000 0.87670  0.47590  0.61920  Biso   1.000  H
  C17      1.0000 0.75760  0.62200  0.67810  Biso   1.000  C
  C18      1.0000 0.79630  0.61900  0.76320  Biso   1.000  C
  H17      1.0000 0.76280  0.53080  0.63280  Biso   1.000  H
  H18      1.0000 0.82770  0.52380  0.76900  Biso   1.000  H
  N7       1.0000 0.56640  0.65360  0.93920  Biso   1.000  N
  C19      1.0000 0.61260  0.40060  0.10850  Biso   1.000  C
  H19      1.0000 0.62330  0.52410  0.11920  Biso   1.000  H
  C20      1.0000 0.74240  0.37800  0.17810  Biso   1.000  C
  C21      1.0000 0.70370  0.38100  0.26320  Biso   1.000  C
  H20      1.0000 0.73720  0.46920  0.13280  Biso   1.000  H
  H21      1.0000 0.67230  0.47620  0.26900  Biso   1.000  H
  N8       1.0000 0.06640  0.15360  0.43920  Biso   1.000  N
  C22      1.0000 0.11260  0.90060  0.60850  Biso   1.000  C
  H22      1.0000 0.12330  0.02410  0.61920  Biso   1.000  H
  C23      1.0000 0.24240  0.87800  0.67810  Biso   1.000  C
  C24      1.0000 0.20370  0.88100  0.76320  Biso   1.000  C
  H23      1.0000 0.23720  0.96920  0.63280  Biso   1.000  H
  H24      1.0000 0.17230  0.97620  0.76900  Biso   1.000  H
  N9       1.0000 0.43360  0.65360  0.93920  Biso   1.000  N
  C25      1.0000 0.38740  0.40060  0.10850  Biso   1.000  C
  H25      1.0000 0.37670  0.52410  0.11920  Biso   1.000  H
  C26      1.0000 0.25760  0.37800  0.17810  Biso   1.000  C
  C27      1.0000 0.29630  0.38100  0.26320  Biso   1.000  C
  H26      1.0000 0.26280  0.46920  0.13280  Biso   1.000  H
  H27      1.0000 0.32770  0.47620  0.26900  Biso   1.000  H
  N10      1.0000 0.93360  0.15360  0.43920  Biso   1.000  N
  C28      1.0000 0.88740  0.90060  0.60850  Biso   1.000  C
  H28      1.0000 0.87670  0.02410  0.61920  Biso   1.000  H
  C29      1.0000 0.75760  0.87800  0.67810  Biso   1.000  C
  C30      1.0000 0.79630  0.88100  0.76320  Biso   1.000  C
  H29      1.0000 0.76280  0.96920  0.63280  Biso   1.000  H
  H30      1.0000 0.82770  0.97620  0.76900  Biso   1.000  H
  N11      1.0000 0.56640  0.84640  0.93920  Biso   1.000  N
  C31      1.0000 0.61260  0.09940  0.10850  Biso   1.000  C
  H31      1.0000 0.62330  0.97590  0.11920  Biso   1.000  H
  C32      1.0000 0.74240  0.12200  0.17810  Biso   1.000  C
  C33      1.0000 0.70370  0.11900  0.26320  Biso   1.000  C
  H32      1.0000 0.73720  0.03080  0.13280  Biso   1.000  H
  H33      1.0000 0.67230  0.02380  0.26900  Biso   1.000  H
  N12      1.0000 0.06640  0.34640  0.43920  Biso   1.000  N
  C34      1.0000 0.11260  0.59940  0.60850  Biso   1.000  C
  H34      1.0000 0.12330  0.47590  0.61920  Biso   1.000  H
  C35      1.0000 0.24240  0.62200  0.67810  Biso   1.000  C
  C36      1.0000 0.20370  0.61900  0.76320  Biso   1.000  C
  H35      1.0000 0.23720  0.53080  0.63280  Biso   1.000  H
  H36      1.0000 0.17230  0.52380  0.76900  Biso   1.000  H
  N13      1.0000 0.56640  0.15360  0.06080  Biso   1.000  N
  C37      1.0000 0.61260  0.90060  0.89150  Biso   1.000  C
  H37      1.0000 0.62330  0.02410  0.88080  Biso   1.000  H
  C38      1.0000 0.74240  0.87800  0.82190  Biso   1.000  C
  C39      1.0000 0.70370  0.88100  0.73680  Biso   1.000  C
  H38      1.0000 0.73720  0.96920  0.86720  Biso   1.000  H
  H39      1.0000 0.67230  0.97620  0.73100  Biso   1.000  H
  N14      1.0000 0.06640  0.65360  0.56080  Biso   1.000  N
  C40      1.0000 0.11260  0.40060  0.39150  Biso   1.000  C
  H40      1.0000 0.12330  0.52410  0.38080  Biso   1.000  H
  C41      1.0000 0.24240  0.37800  0.32190  Biso   1.000  C
  C42      1.0000 0.20370  0.38100  0.23680  Biso   1.000  C
  H41      1.0000 0.23720  0.46920  0.36720  Biso   1.000  H
  H42      1.0000 0.17230  0.47620  0.23100  Biso   1.000  H
  N15      1.0000 0.43360  0.34640  0.06080  Biso   1.000  N
  C43      1.0000 0.38740  0.59940  0.89150  Biso   1.000  C
  H43      1.0000 0.37670  0.47590  0.88080  Biso   1.000  H
  C44      1.0000 0.25760  0.62200  0.82190  Biso   1.000  C
  C45      1.0000 0.29630  0.61900  0.73680  Biso   1.000  C
  H44      1.0000 0.26280  0.53080  0.86720  Biso   1.000  H
  H45      1.0000 0.32770  0.52380  0.73100  Biso   1.000  H
  N16      1.0000 0.93360  0.84640  0.56080  Biso   1.000  N
  C46      1.0000 0.88740  0.09940  0.39150  Biso   1.000  C
  H46      1.0000 0.87670  0.97590  0.38080  Biso   1.000  H
  C47      1.0000 0.75760  0.12200  0.32190  Biso   1.000  C
  C48      1.0000 0.79630  0.11900  0.23680  Biso   1.000  C
  H47      1.0000 0.76280  0.03080  0.36720  Biso   1.000  H
  H48      1.0000 0.82770  0.02380  0.23100  Biso   1.000  H
  Cu1      1.0000 0.50000  0.50000  0.00000  Biso   1.000  Cu
  Cu2      1.0000 0.00000  0.00000  0.50000  Biso   1.000  Cu
  Cu3      1.0000 0.50000  0.00000  0.00000  Biso   1.000  Cu
  Cu4      1.0000 0.00000  0.50000  0.50000  Biso   1.000  Cu
  N17      1.0000 0.64350  0.75000  0.85870  Biso   1.000  N
  C49      1.0000 0.69740  0.75000  0.80470  Biso   1.000  C
  N18      1.0000 0.14350  0.25000  0.35870  Biso   1.000  N
  C50      1.0000 0.19740  0.25000  0.30470  Biso   1.000  C
  N19      1.0000 0.35650  0.75000  0.85870  Biso   1.000  N
  C51      1.0000 0.30260  0.75000  0.80470  Biso   1.000  C
  N20      1.0000 0.85650  0.25000  0.35870  Biso   1.000  N
  C52      1.0000 0.80260  0.25000  0.30470  Biso   1.000  C
  N21      1.0000 0.35650  0.25000  0.14130  Biso   1.000  N
  C53      1.0000 0.30260  0.25000  0.19530  Biso   1.000  C
  N22      1.0000 0.85650  0.75000  0.64130  Biso   1.000  N
  C54      1.0000 0.80260  0.75000  0.69530  Biso   1.000  C
  N23      1.0000 0.64350  0.25000  0.14130  Biso   1.000  N
  C55      1.0000 0.69740  0.25000  0.19530  Biso   1.000  C
  N24      1.0000 0.14350  0.75000  0.64130  Biso   1.000  N
  C56      1.0000 0.19740  0.75000  0.69530  Biso   1.000  C
