data_image0
_cell_length_a       21.323
_cell_length_b       7.14
_cell_length_c       15.23
_cell_angle_alpha    90
_cell_angle_beta     90
_cell_angle_gamma    90

_symmetry_space_group_name_H-M    "P 1"
_symmetry_int_tables_number       1

loop_
  _symmetry_equiv_pos_as_xyz
  'x, y, z'

loop_
  _atom_site_label
  _atom_site_occupancy
  _atom_site_fract_x
  _atom_site_fract_y
  _atom_site_fract_z
  _atom_site_thermal_displace_type
  _atom_site_B_iso_or_equiv
  _atom_site_type_symbol
  N1       1.0000 0.56640  0.15310  0.06110  Biso   1.000  N
  C1       1.0000 0.61260  0.90100  0.89090  Biso   1.000  C
  H1       1.0000 0.62360  0.02530  0.88110  Biso   1.000  H
  C2       1.0000 0.70340  0.88700  0.73810  Biso   1.000  C
  C3       1.0000 0.73980  0.88800  0.80960  Biso   1.000  C
  H2       1.0000 0.67090  0.97770  0.72890  Biso   1.000  H
  H3       1.0000 0.73370  0.98250  0.85340  Biso   1.000  H
  N2       1.0000 0.06640  0.65310  0.56110  Biso   1.000  N
  C4       1.0000 0.11260  0.40100  0.39090  Biso   1.000  C
  H4       1.0000 0.12360  0.52530  0.38110  Biso   1.000  H
  C5       1.0000 0.20340  0.38700  0.23810  Biso   1.000  C
  C6       1.0000 0.23980  0.38800  0.30960  Biso   1.000  C
  H5       1.0000 0.17090  0.47770  0.22890  Biso   1.000  H
  H6       1.0000 0.23370  0.48250  0.35340  Biso   1.000  H
  N3       1.0000 0.43360  0.34690  0.06110  Biso   1.000  N
  C7       1.0000 0.38740  0.59900  0.89090  Biso   1.000  C
  H7       1.0000 0.37640  0.47470  0.88110  Biso   1.000  H
  C8       1.0000 0.29660  0.61300  0.73810  Biso   1.000  C
  C9       1.0000 0.26020  0.61200  0.80960  Biso   1.000  C
  H8       1.0000 0.32910  0.52230  0.72890  Biso   1.000  H
  H9       1.0000 0.26630  0.51750  0.85340  Biso   1.000  H
  N4       1.0000 0.93360  0.84690  0.56110  Biso   1.000  N
  C10      1.0000 0.88740  0.09900  0.39090  Biso   1.000  C
  H10      1.0000 0.87640  0.97470  0.38110  Biso   1.000  H
  C11      1.0000 0.79660  0.11300  0.23810  Biso   1.000  C
  C12      1.0000 0.76020  0.11200  0.30960  Biso   1.000  C
  H11      1.0000 0.82910  0.02230  0.22890  Biso   1.000  H
  H12      1.0000 0.76630  0.01750  0.35340  Biso   1.000  H
  N5       1.0000 0.43360  0.65310  0.93890  Biso   1.000  N
  C13      1.0000 0.38740  0.40100  0.10910  Biso   1.000  C
  H13      1.0000 0.37640  0.52530  0.11890  Biso   1.000  H
  C14      1.0000 0.29660  0.38700  0.26190  Biso   1.000  C
  C15      1.0000 0.26020  0.38800  0.19040  Biso   1.000  C
  H14      1.0000 0.32910  0.47770  0.27110  Biso   1.000  H
  H15      1.0000 0.26630  0.48250  0.14660  Biso   1.000  H
  N6       1.0000 0.93360  0.15310  0.43890  Biso   1.000  N
  C16      1.0000 0.88740  0.90100  0.60910  Biso   1.000  C
  H16      1.0000 0.87640  0.02530  0.61890  Biso   1.000  H
  C17      1.0000 0.79660  0.88700  0.76190  Biso   1.000  C
  C18      1.0000 0.76020  0.88800  0.69040  Biso   1.000  C
  H17      1.0000 0.82910  0.97770  0.77110  Biso   1.000  H
  H18      1.0000 0.76630  0.98250  0.64660  Biso   1.000  H
  N7       1.0000 0.56640  0.84690  0.93890  Biso   1.000  N
  C19      1.0000 0.61260  0.09900  0.10910  Biso   1.000  C
  H19      1.0000 0.62360  0.97470  0.11890  Biso   1.000  H
  C20      1.0000 0.70340  0.11300  0.26190  Biso   1.000  C
  C21      1.0000 0.73980  0.11200  0.19040  Biso   1.000  C
  H20      1.0000 0.67090  0.02230  0.27110  Biso   1.000  H
  H21      1.0000 0.73370  0.01750  0.14660  Biso   1.000  H
  N8       1.0000 0.06640  0.34690  0.43890  Biso   1.000  N
  C22      1.0000 0.11260  0.59900  0.60910  Biso   1.000  C
  H22      1.0000 0.12360  0.47470  0.61890  Biso   1.000  H
  C23      1.0000 0.20340  0.61300  0.76190  Biso   1.000  C
  C24      1.0000 0.23980  0.61200  0.69040  Biso   1.000  C
  H23      1.0000 0.17090  0.52230  0.77110  Biso   1.000  H
  H24      1.0000 0.23370  0.51750  0.64660  Biso   1.000  H
  N9       1.0000 0.43360  0.84690  0.93890  Biso   1.000  N
  C25      1.0000 0.38740  0.09900  0.10910  Biso   1.000  C
  H25      1.0000 0.37640  0.97470  0.11890  Biso   1.000  H
  C26      1.0000 0.29660  0.11300  0.26190  Biso   1.000  C
  C27      1.0000 0.26020  0.11200  0.19040  Biso   1.000  C
  H26      1.0000 0.32910  0.02230  0.27110  Biso   1.000  H
  H27      1.0000 0.26630  0.01750  0.14660  Biso   1.000  H
  N10      1.0000 0.93360  0.34690  0.43890  Biso   1.000  N
  C28      1.0000 0.88740  0.59900  0.60910  Biso   1.000  C
  H28      1.0000 0.87640  0.47470  0.61890  Biso   1.000  H
  C29      1.0000 0.79660  0.61300  0.76190  Biso   1.000  C
  C30      1.0000 0.76020  0.61200  0.69040  Biso   1.000  C
  H29      1.0000 0.82910  0.52230  0.77110  Biso   1.000  H
  H30      1.0000 0.76630  0.51750  0.64660  Biso   1.000  H
  N11      1.0000 0.56640  0.65310  0.93890  Biso   1.000  N
  C31      1.0000 0.61260  0.40100  0.10910  Biso   1.000  C
  H31      1.0000 0.62360  0.52530  0.11890  Biso   1.000  H
  C32      1.0000 0.70340  0.38700  0.26190  Biso   1.000  C
  C33      1.0000 0.73980  0.38800  0.19040  Biso   1.000  C
  H32      1.0000 0.67090  0.47770  0.27110  Biso   1.000  H
  H33      1.0000 0.73370  0.48250  0.14660  Biso   1.000  H
  N12      1.0000 0.06640  0.15310  0.43890  Biso   1.000  N
  C34      1.0000 0.11260  0.90100  0.60910  Biso   1.000  C
  H34      1.0000 0.12360  0.02530  0.61890  Biso   1.000  H
  C35      1.0000 0.20340  0.88700  0.76190  Biso   1.000  C
  C36      1.0000 0.23980  0.88800  0.69040  Biso   1.000  C
  H35      1.0000 0.17090  0.97770  0.77110  Biso   1.000  H
  H36      1.0000 0.23370  0.98250  0.64660  Biso   1.000  H
  N13      1.0000 0.56640  0.34690  0.06110  Biso   1.000  N
  C37      1.0000 0.61260  0.59900  0.89090  Biso   1.000  C
  H37      1.0000 0.62360  0.47470  0.88110  Biso   1.000  H
  C38      1.0000 0.70340  0.61300  0.73810  Biso   1.000  C
  C39      1.0000 0.73980  0.61200  0.80960  Biso   1.000  C
  H38      1.0000 0.67090  0.52230  0.72890  Biso   1.000  H
  H39      1.0000 0.73370  0.51750  0.85340  Biso   1.000  H
  N14      1.0000 0.06640  0.84690  0.56110  Biso   1.000  N
  C40      1.0000 0.11260  0.09900  0.39090  Biso   1.000  C
  H40      1.0000 0.12360  0.97470  0.38110  Biso   1.000  H
  C41      1.0000 0.20340  0.11300  0.23810  Biso   1.000  C
  C42      1.0000 0.23980  0.11200  0.30960  Biso   1.000  C
  H41      1.0000 0.17090  0.02230  0.22890  Biso   1.000  H
  H42      1.0000 0.23370  0.01750  0.35340  Biso   1.000  H
  N15      1.0000 0.43360  0.15310  0.06110  Biso   1.000  N
  C43      1.0000 0.38740  0.90100  0.89090  Biso   1.000  C
  H43      1.0000 0.37640  0.02530  0.88110  Biso   1.000  H
  C44      1.0000 0.29660  0.88700  0.73810  Biso   1.000  C
  C45      1.0000 0.26020  0.88800  0.80960  Biso   1.000  C
  H44      1.0000 0.32910  0.97770  0.72890  Biso   1.000  H
  H45      1.0000 0.26630  0.98250  0.85340  Biso   1.000  H
  N16      1.0000 0.93360  0.65310  0.56110  Biso   1.000  N
  C46      1.0000 0.88740  0.40100  0.39090  Biso   1.000  C
  H46      1.0000 0.87640  0.52530  0.38110  Biso   1.000  H
  C47      1.0000 0.79660  0.38700  0.23810  Biso   1.000  C
  C48      1.0000 0.76020  0.38800  0.30960  Biso   1.000  C
  H47      1.0000 0.82910  0.47770  0.22890  Biso   1.000  H
  H48      1.0000 0.76630  0.48250  0.35340  Biso   1.000  H
  Cu1      1.0000 0.50000  0.00000  0.00000  Biso   1.000  Cu
  Cu2      1.0000 0.00000  0.50000  0.50000  Biso   1.000  Cu
  Cu3      1.0000 0.50000  0.50000  0.00000  Biso   1.000  Cu
  Cu4      1.0000 0.00000  0.00000  0.50000  Biso   1.000  Cu
  N17      1.0000 0.64320  0.75000  0.85650  Biso   1.000  N
  C49      1.0000 0.69800  0.75000  0.80370  Biso   1.000  C
  N18      1.0000 0.14320  0.25000  0.35650  Biso   1.000  N
  C50      1.0000 0.19800  0.25000  0.30370  Biso   1.000  C
  N19      1.0000 0.35680  0.75000  0.85650  Biso   1.000  N
  C51      1.0000 0.30200  0.75000  0.80370  Biso   1.000  C
  N20      1.0000 0.85680  0.25000  0.35650  Biso   1.000  N
  C52      1.0000 0.80200  0.25000  0.30370  Biso   1.000  C
  N21      1.0000 0.35680  0.25000  0.14350  Biso   1.000  N
  C53      1.0000 0.30200  0.25000  0.19630  Biso   1.000  C
  N22      1.0000 0.85680  0.75000  0.64350  Biso   1.000  N
  C54      1.0000 0.80200  0.75000  0.69630  Biso   1.000  C
  N23      1.0000 0.64320  0.25000  0.14350  Biso   1.000  N
  C55      1.0000 0.69800  0.25000  0.19630  Biso   1.000  C
  N24      1.0000 0.14320  0.75000  0.64350  Biso   1.000  N
  C56      1.0000 0.19800  0.75000  0.69630  Biso   1.000  C
