data_image0
_cell_length_a       12.4042
_cell_length_b       18.9257
_cell_length_c       21.6698
_cell_angle_alpha    67.155
_cell_angle_beta     86.944
_cell_angle_gamma    84.896

_symmetry_space_group_name_H-M    "P 1"
_symmetry_int_tables_number       1

loop_
  _symmetry_equiv_pos_as_xyz
  'x, y, z'

loop_
  _atom_site_label
  _atom_site_occupancy
  _atom_site_fract_x
  _atom_site_fract_y
  _atom_site_fract_z
  _atom_site_thermal_displace_type
  _atom_site_B_iso_or_equiv
  _atom_site_type_symbol
  Nd1      1.0000 0.26036  0.20340  0.26819  Biso   1.000  Nd
  Nd2      1.0000 0.25934  0.30456  0.76803  Biso   1.000  Nd
  O1       1.0000 0.41310  0.26220  0.20180  Biso   1.000  O
  O2       1.0000 0.17340  0.30370  0.17168  Biso   1.000  O
  O3       1.0000 0.28540  0.13320  0.19505  Biso   1.000  O
  O4       1.0000 0.07930  0.30840  0.81510  Biso   1.000  O
  O5       1.0000 0.31030  0.34180  0.85587  Biso   1.000  O
  O6       1.0000 0.27770  0.18300  0.86538  Biso   1.000  O
  N1       1.0000 0.13460  0.26030  0.34460  Biso   1.000  N
  N2       1.0000 0.04960  0.23650  0.38770  Biso   1.000  N
  N3       1.0000 0.03300  0.28140  0.42100  Biso   1.000  N
  N4       1.0000 0.10700  0.33490  0.40190  Biso   1.000  N
  N5       1.0000 0.30930  0.33110  0.27540  Biso   1.000  N
  N6       1.0000 0.17370  0.07230  0.34610  Biso   1.000  N
  N7       1.0000 0.20810  0.00140  0.39220  Biso   1.000  N
  N8       1.0000 0.12350  0.95920  0.41000  Biso   1.000  N
  N9       1.0000 0.03430  0.99790  0.37740  Biso   1.000  N
  N10      1.0000 0.05870  0.18800  0.25140  Biso   1.000  N
  N11      1.0000 0.36440  0.16970  0.38100  Biso   1.000  N
  N12      1.0000 0.35890  0.19620  0.43030  Biso   1.000  N
  N13      1.0000 0.43700  0.15980  0.47330  Biso   1.000  N
  N14      1.0000 0.49600  0.10880  0.45200  Biso   1.000  N
  N15      1.0000 0.41580  0.09260  0.30040  Biso   1.000  N
  N16      1.0000 0.35890  0.42280  0.68510  Biso   1.000  N
  N17      1.0000 0.45660  0.43360  0.65130  Biso   1.000  N
  N18      1.0000 0.47120  0.50850  0.62280  Biso   1.000  N
  N19      1.0000 0.38250  0.54850  0.63740  Biso   1.000  N
  N20      1.0000 0.16540  0.44070  0.74110  Biso   1.000  N
  N21      1.0000 0.39170  0.25170  0.69210  Biso   1.000  N
  N22      1.0000 0.38590  0.22980  0.63930  Biso   1.000  N
  N23      1.0000 0.48330  0.21090  0.62220  Biso   1.000  N
  N24      1.0000 0.55700  0.22010  0.66160  Biso   1.000  N
  N25      1.0000 0.46400  0.28650  0.79240  Biso   1.000  N
  N26      1.0000 0.14370  0.33080  0.65990  Biso   1.000  N
  N27      1.0000 0.11420  0.39240  0.60310  Biso   1.000  N
  N28      1.0000 0.06910  0.36580  0.56290  Biso   1.000  N
  N29      1.0000 0.06870  0.28700  0.59260  Biso   1.000  N
  N30      1.0000 0.18280  0.18800  0.75640  Biso   1.000  N
  C1       1.0000 0.16520  0.32010  0.35470  Biso   1.000  C
  C2       1.0000 0.25470  0.36140  0.31550  Biso   1.000  C
  C3       1.0000 0.28580  0.43180  0.31750  Biso   1.000  C
  H1       1.0000 0.24940  0.45260  0.34700  Biso   1.000  H
  C4       1.0000 0.36670  0.46780  0.27730  Biso   1.000  C
  H2       1.0000 0.38480  0.51570  0.27690  Biso   1.000  H
  C5       1.0000 0.42460  0.43650  0.23620  Biso   1.000  C
  C6       1.0000 0.51270  0.46920  0.19570  Biso   1.000  C
  H3       1.0000 0.53730  0.51540  0.19560  Biso   1.000  H
  C7       1.0000 0.56360  0.43430  0.15610  Biso   1.000  C
  H4       1.0000 0.62240  0.45770  0.12790  Biso   1.000  H
  C8       1.0000 0.53170  0.36570  0.15600  Biso   1.000  C
  H5       1.0000 0.56870  0.34390  0.12730  Biso   1.000  H
  C9       1.0000 0.44640  0.32810  0.19700  Biso   1.000  C
  C10      1.0000 0.39330  0.36700  0.23670  Biso   1.000  C
  C11      1.0000 0.06740  0.06770  0.33780  Biso   1.000  C
  C12      1.0000 0.00260  0.13100  0.29050  Biso   1.000  C
  C13      1.0000 0.89060  0.13070  0.28860  Biso   1.000  C
  H6       1.0000 0.85390  0.08770  0.31770  Biso   1.000  H
  C14      1.0000 0.83540  0.19290  0.24440  Biso   1.000  C
  H7       1.0000 0.75890  0.19370  0.24300  Biso   1.000  H
  C15      1.0000 0.88840  0.25630  0.20050  Biso   1.000  C
  C16      1.0000 0.83970  0.32370  0.15370  Biso   1.000  C
  H8       1.0000 0.76320  0.32950  0.14950  Biso   1.000  H
  C17      1.0000 0.90130  0.38140  0.11380  Biso   1.000  C
  H9       1.0000 0.86620  0.42640  0.08180  Biso   1.000  H
  C18      1.0000 0.01340  0.37680  0.11800  Biso   1.000  C
  H10      1.0000 0.05310  0.41840  0.08960  Biso   1.000  H
  C19      1.0000 0.06740  0.31120  0.16390  Biso   1.000  C
  C20      1.0000 0.00340  0.25070  0.20610  Biso   1.000  C
  C21      1.0000 0.44890  0.11620  0.39650  Biso   1.000  C
  C22      1.0000 0.47930  0.07510  0.35270  Biso   1.000  C
  C23      1.0000 0.56300  0.01700  0.36720  Biso   1.000  C
  H11      1.0000 0.62340  0.01860  0.39530  Biso   1.000  H
  C24      1.0000 0.58350  0.97770  0.32530  Biso   1.000  C
  H12      1.0000 0.65600  0.94960  0.32630  Biso   1.000  H
  C25      1.0000 0.51680  0.99490  0.26960  Biso   1.000  C
  C26      1.0000 0.52750  0.95560  0.22600  Biso   1.000  C
  H13      1.0000 0.58170  0.91460  0.23270  Biso   1.000  H
  C27      1.0000 0.45800  0.97780  0.17360  Biso   1.000  C
  H14      1.0000 0.46560  0.95150  0.14400  Biso   1.000  H
  C28      1.0000 0.37730  0.03660  0.16170  Biso   1.000  C
  H15      1.0000 0.33190  0.05000  0.12430  Biso   1.000  H
  C29      1.0000 0.36220  0.07630  0.20400  Biso   1.000  C
  C30      1.0000 0.43340  0.05440  0.25820  Biso   1.000  C
  C31      1.0000 0.31630  0.49320  0.67490  Biso   1.000  C
  C32      1.0000 0.21210  0.50470  0.70580  Biso   1.000  C
  C33      1.0000 0.16410  0.57740  0.69920  Biso   1.000  C
  H16      1.0000 0.19970  0.62240  0.67390  Biso   1.000  H
  C34      1.0000 0.06770  0.58280  0.72880  Biso   1.000  C
  H17      1.0000 0.03540  0.63180  0.72460  Biso   1.000  H
  C35      1.0000 0.01450  0.51670  0.76590  Biso   1.000  C
  C36      1.0000 0.91500  0.51510  0.79930  Biso   1.000  C
  H18      1.0000 0.87790  0.56200  0.79750  Biso   1.000  H
  C37      1.0000 0.87000  0.44740  0.83450  Biso   1.000  C
  H19      1.0000 0.80130  0.44820  0.85590  Biso   1.000  H
  C38      1.0000 0.92350  0.37550  0.84000  Biso   1.000  C
  H20      1.0000 0.89040  0.32910  0.86470  Biso   1.000  H
  C39      1.0000 0.02320  0.37350  0.80950  Biso   1.000  C
  C40      1.0000 0.06840  0.44450  0.77080  Biso   1.000  C
  C41      1.0000 0.49890  0.24490  0.70280  Biso   1.000  C
  C42      1.0000 0.53970  0.26260  0.75720  Biso   1.000  C
  C43      1.0000 0.64910  0.25730  0.77010  Biso   1.000  C
  H21      1.0000 0.70130  0.24100  0.74380  Biso   1.000  H
  C44      1.0000 0.68150  0.27600  0.82160  Biso   1.000  C
  H22      1.0000 0.75600  0.27120  0.83160  Biso   1.000  H
  C45      1.0000 0.60400  0.30200  0.85890  Biso   1.000  C
  C46      1.0000 0.62910  0.32290  0.91280  Biso   1.000  C
  H23      1.0000 0.70200  0.31890  0.92590  Biso   1.000  H
  C47      1.0000 0.54860  0.34840  0.94510  Biso   1.000  C
  H24      1.0000 0.56620  0.36130  0.98140  Biso   1.000  H
  C48      1.0000 0.43980  0.35660  0.92710  Biso   1.000  C
  H25      1.0000 0.38580  0.37640  0.95020  Biso   1.000  H
  C49      1.0000 0.41090  0.33590  0.87570  Biso   1.000  C
  C50      1.0000 0.49540  0.30700  0.84230  Biso   1.000  C
  C51      1.0000 0.11420  0.26860  0.65200  Biso   1.000  C
  C52      1.0000 0.13410  0.19010  0.70330  Biso   1.000  C
  C53      1.0000 0.10610  0.12510  0.69410  Biso   1.000  C
  H26      1.0000 0.07130  0.13000  0.65450  Biso   1.000  H
  C54      1.0000 0.12930  0.05500  0.74250  Biso   1.000  C
  H27      1.0000 0.11210  0.01030  0.73630  Biso   1.000  H
  C55      1.0000 0.17890  0.04740  0.80210  Biso   1.000  C
  C56      1.0000 0.20410  0.97820  0.85620  Biso   1.000  C
  H28      1.0000 0.18660  0.93110  0.85450  Biso   1.000  H
  C57      1.0000 0.25340  0.97750  0.91120  Biso   1.000  C
  H29      1.0000 0.27130  0.92990  0.94700  Biso   1.000  H
  C58      1.0000 0.27790  0.04610  0.91560  Biso   1.000  C
  H30      1.0000 0.31120  0.04420  0.95470  Biso   1.000  H
  C59      1.0000 0.25480  0.11640  0.86450  Biso   1.000  C
  C60      1.0000 0.20320  0.11740  0.80680  Biso   1.000  C
  K1       1.0000 0.30643  0.25360  0.06544  Biso   1.000  K
  K2       1.0000 0.12530  0.18489  0.96863  Biso   1.000  K
  K3       1.0000 0.38755  0.88743  0.43567  Biso   1.000  K
  K4       1.0000 0.91448  0.20985  0.54283  Biso   1.000  K
  K5       1.0000 0.97537  0.44792  0.43381  Biso   1.000  K
  K6       1.0000 0.24770  0.22130  0.53510  Biso   1.000  K
  K7       1.0000 0.27640  0.27190  0.51080  Biso   1.000  K
  O7       1.0000 0.35760  0.16590  0.98330  Biso   1.000  O
  C61      1.0000 0.46790  0.13650  0.99220  Biso   1.000  C
  H31      1.0000 0.51300  0.17720  0.99060  Biso   1.000  H
  H32      1.0000 0.49110  0.11880  0.95630  Biso   1.000  H
  H33      1.0000 0.47550  0.09340  0.03560  Biso   1.000  H
  O8       1.0000 0.17120  0.32620  0.95490  Biso   1.000  O
  C62      1.0000 0.12060  0.39890  0.94850  Biso   1.000  C
  H34      1.0000 0.07550  0.41930  0.90870  Biso   1.000  H
  H35      1.0000 0.17610  0.43440  0.94410  Biso   1.000  H
  H36      1.0000 0.07520  0.39310  0.98840  Biso   1.000  H
  O9       1.0000 0.24330  0.80930  0.52900  Biso   1.000  O
  C63      1.0000 0.19290  0.84750  0.57070  Biso   1.000  C
  O10      1.0000 0.81820  0.36570  0.50780  Biso   1.000  O
  C64      1.0000 0.70800  0.35600  0.52180  Biso   1.000  C
  H37      1.0000 0.66840  0.40630  0.51130  Biso   1.000  H
  H38      1.0000 0.68090  0.33070  0.49460  Biso   1.000  H
  H39      1.0000 0.69750  0.32410  0.56940  Biso   1.000  H
  O11      1.0000 0.99200  0.06040  0.99520  Biso   1.000  O
  Nd3      1.0000 0.73964  0.79660  0.73181  Biso   1.000  Nd
  Nd4      1.0000 0.74066  0.69544  0.23197  Biso   1.000  Nd
  O12      1.0000 0.58690  0.73780  0.79820  Biso   1.000  O
  O13      1.0000 0.82660  0.69630  0.82832  Biso   1.000  O
  O14      1.0000 0.71460  0.86680  0.80495  Biso   1.000  O
  O15      1.0000 0.92070  0.69160  0.18490  Biso   1.000  O
  O16      1.0000 0.68970  0.65820  0.14413  Biso   1.000  O
  O17      1.0000 0.72230  0.81700  0.13462  Biso   1.000  O
  N31      1.0000 0.86540  0.73970  0.65540  Biso   1.000  N
  N32      1.0000 0.95040  0.76350  0.61230  Biso   1.000  N
  N33      1.0000 0.96700  0.71860  0.57900  Biso   1.000  N
  N34      1.0000 0.89300  0.66510  0.59810  Biso   1.000  N
  N35      1.0000 0.69070  0.66890  0.72460  Biso   1.000  N
  N36      1.0000 0.82630  0.92770  0.65390  Biso   1.000  N
  N37      1.0000 0.79190  0.99860  0.60780  Biso   1.000  N
  N38      1.0000 0.87650  0.04080  0.59000  Biso   1.000  N
  N39      1.0000 0.96570  0.00210  0.62260  Biso   1.000  N
  N40      1.0000 0.94130  0.81200  0.74860  Biso   1.000  N
  N41      1.0000 0.63560  0.83030  0.61900  Biso   1.000  N
  N42      1.0000 0.64110  0.80380  0.56970  Biso   1.000  N
  N43      1.0000 0.56300  0.84020  0.52670  Biso   1.000  N
  N44      1.0000 0.50400  0.89120  0.54800  Biso   1.000  N
  N45      1.0000 0.58420  0.90740  0.69960  Biso   1.000  N
  N46      1.0000 0.64110  0.57720  0.31490  Biso   1.000  N
  N47      1.0000 0.54340  0.56640  0.34870  Biso   1.000  N
  N48      1.0000 0.52880  0.49150  0.37720  Biso   1.000  N
  N49      1.0000 0.61750  0.45150  0.36260  Biso   1.000  N
  N50      1.0000 0.83460  0.55930  0.25890  Biso   1.000  N
  N51      1.0000 0.60830  0.74830  0.30790  Biso   1.000  N
  N52      1.0000 0.61410  0.77020  0.36070  Biso   1.000  N
  N53      1.0000 0.51670  0.78910  0.37780  Biso   1.000  N
  N54      1.0000 0.44300  0.77990  0.33840  Biso   1.000  N
  N55      1.0000 0.53600  0.71350  0.20760  Biso   1.000  N
  N56      1.0000 0.85630  0.66920  0.34010  Biso   1.000  N
  N57      1.0000 0.88580  0.60760  0.39690  Biso   1.000  N
  N58      1.0000 0.93090  0.63420  0.43710  Biso   1.000  N
  N59      1.0000 0.93130  0.71300  0.40740  Biso   1.000  N
  N60      1.0000 0.81720  0.81200  0.24360  Biso   1.000  N
  C65      1.0000 0.83480  0.67990  0.64530  Biso   1.000  C
  C66      1.0000 0.74530  0.63860  0.68450  Biso   1.000  C
  C67      1.0000 0.71420  0.56820  0.68250  Biso   1.000  C
  H40      1.0000 0.75060  0.54740  0.65300  Biso   1.000  H
  C68      1.0000 0.63330  0.53220  0.72270  Biso   1.000  C
  H41      1.0000 0.61520  0.48430  0.72310  Biso   1.000  H
  C69      1.0000 0.57540  0.56350  0.76380  Biso   1.000  C
  C70      1.0000 0.48730  0.53080  0.80430  Biso   1.000  C
  H42      1.0000 0.46270  0.48460  0.80440  Biso   1.000  H
  C71      1.0000 0.43640  0.56570  0.84390  Biso   1.000  C
  H43      1.0000 0.37760  0.54230  0.87210  Biso   1.000  H
  C72      1.0000 0.46830  0.63430  0.84400  Biso   1.000  C
  H44      1.0000 0.43130  0.65610  0.87270  Biso   1.000  H
  C73      1.0000 0.55360  0.67190  0.80300  Biso   1.000  C
  C74      1.0000 0.60670  0.63300  0.76330  Biso   1.000  C
  C75      1.0000 0.93260  0.93230  0.66220  Biso   1.000  C
  C76      1.0000 0.99740  0.86900  0.70950  Biso   1.000  C
  C77      1.0000 0.10940  0.86930  0.71140  Biso   1.000  C
  H45      1.0000 0.14610  0.91230  0.68230  Biso   1.000  H
  C78      1.0000 0.16460  0.80710  0.75560  Biso   1.000  C
  H46      1.0000 0.24110  0.80630  0.75700  Biso   1.000  H
  C79      1.0000 0.11160  0.74370  0.79950  Biso   1.000  C
  C80      1.0000 0.16030  0.67630  0.84630  Biso   1.000  C
  H47      1.0000 0.23680  0.67050  0.85050  Biso   1.000  H
  C81      1.0000 0.09870  0.61860  0.88620  Biso   1.000  C
  H48      1.0000 0.13380  0.57360  0.91820  Biso   1.000  H
  C82      1.0000 0.98660  0.62320  0.88200  Biso   1.000  C
  H49      1.0000 0.94690  0.58160  0.91040  Biso   1.000  H
  C83      1.0000 0.93260  0.68880  0.83610  Biso   1.000  C
  C84      1.0000 0.99660  0.74930  0.79390  Biso   1.000  C
  C85      1.0000 0.55110  0.88380  0.60350  Biso   1.000  C
  C86      1.0000 0.52070  0.92490  0.64730  Biso   1.000  C
  C87      1.0000 0.43700  0.98300  0.63280  Biso   1.000  C
  H50      1.0000 0.37660  0.98140  0.60470  Biso   1.000  H
  C88      1.0000 0.41650  0.02230  0.67470  Biso   1.000  C
  H51      1.0000 0.34400  0.05040  0.67370  Biso   1.000  H
  C89      1.0000 0.48320  0.00510  0.73040  Biso   1.000  C
  C90      1.0000 0.47250  0.04440  0.77400  Biso   1.000  C
  H52      1.0000 0.41830  0.08540  0.76730  Biso   1.000  H
  C91      1.0000 0.54200  0.02220  0.82640  Biso   1.000  C
  H53      1.0000 0.53440  0.04850  0.85600  Biso   1.000  H
  C92      1.0000 0.62270  0.96340  0.83830  Biso   1.000  C
  H54      1.0000 0.66810  0.95000  0.87570  Biso   1.000  H
  C93      1.0000 0.63780  0.92370  0.79600  Biso   1.000  C
  C94      1.0000 0.56660  0.94560  0.74180  Biso   1.000  C
  C95      1.0000 0.68370  0.50680  0.32510  Biso   1.000  C
  C96      1.0000 0.78790  0.49530  0.29420  Biso   1.000  C
  C97      1.0000 0.83590  0.42260  0.30080  Biso   1.000  C
  H55      1.0000 0.80030  0.37760  0.32610  Biso   1.000  H
  C98      1.0000 0.93230  0.41720  0.27120  Biso   1.000  C
  H56      1.0000 0.96460  0.36820  0.27540  Biso   1.000  H
  C99      1.0000 0.98550  0.48330  0.23410  Biso   1.000  C
  C100     1.0000 0.08500  0.48490  0.20070  Biso   1.000  C
  H57      1.0000 0.12210  0.43800  0.20250  Biso   1.000  H
  C101     1.0000 0.13000  0.55260  0.16550  Biso   1.000  C
  H58      1.0000 0.19870  0.55180  0.14410  Biso   1.000  H
  C102     1.0000 0.07650  0.62450  0.16000  Biso   1.000  C
  H59      1.0000 0.10960  0.67090  0.13530  Biso   1.000  H
  C103     1.0000 0.97680  0.62650  0.19050  Biso   1.000  C
  C104     1.0000 0.93160  0.55550  0.22920  Biso   1.000  C
  C105     1.0000 0.50110  0.75510  0.29720  Biso   1.000  C
  C106     1.0000 0.46030  0.73740  0.24280  Biso   1.000  C
  C107     1.0000 0.35090  0.74270  0.22990  Biso   1.000  C
  H60      1.0000 0.29870  0.75900  0.25620  Biso   1.000  H
  C108     1.0000 0.31850  0.72400  0.17840  Biso   1.000  C
  H61      1.0000 0.24400  0.72880  0.16840  Biso   1.000  H
  C109     1.0000 0.39600  0.69800  0.14110  Biso   1.000  C
  C110     1.0000 0.37090  0.67710  0.08720  Biso   1.000  C
  H62      1.0000 0.29800  0.68110  0.07410  Biso   1.000  H
  C111     1.0000 0.45140  0.65160  0.05490  Biso   1.000  C
  H63      1.0000 0.43380  0.63870  0.01860  Biso   1.000  H
  C112     1.0000 0.56020  0.64340  0.07290  Biso   1.000  C
  H64      1.0000 0.61420  0.62360  0.04980  Biso   1.000  H
  C113     1.0000 0.58910  0.66410  0.12430  Biso   1.000  C
  C114     1.0000 0.50460  0.69300  0.15770  Biso   1.000  C
  C115     1.0000 0.88580  0.73140  0.34800  Biso   1.000  C
  C116     1.0000 0.86590  0.80990  0.29670  Biso   1.000  C
  C117     1.0000 0.89390  0.87490  0.30590  Biso   1.000  C
  H65      1.0000 0.92870  0.87000  0.34550  Biso   1.000  H
  C118     1.0000 0.87070  0.94500  0.25750  Biso   1.000  C
  H66      1.0000 0.88790  0.98970  0.26370  Biso   1.000  H
  C119     1.0000 0.82110  0.95260  0.19790  Biso   1.000  C
  C120     1.0000 0.79590  0.02180  0.14380  Biso   1.000  C
  H67      1.0000 0.81340  0.06890  0.14550  Biso   1.000  H
  C121     1.0000 0.74660  0.02250  0.08880  Biso   1.000  C
  H68      1.0000 0.72870  0.07010  0.05300  Biso   1.000  H
  C122     1.0000 0.72210  0.95390  0.08440  Biso   1.000  C
  H69      1.0000 0.68880  0.95580  0.04530  Biso   1.000  H
  C123     1.0000 0.74520  0.88360  0.13550  Biso   1.000  C
  C124     1.0000 0.79680  0.88260  0.19320  Biso   1.000  C
  K8       1.0000 0.69357  0.74640  0.93456  Biso   1.000  K
  K9       1.0000 0.87470  0.81511  0.03137  Biso   1.000  K
  K10      1.0000 0.61245  0.11257  0.56433  Biso   1.000  K
  K11      1.0000 0.08552  0.79015  0.45717  Biso   1.000  K
  K12      1.0000 0.02463  0.55208  0.56619  Biso   1.000  K
  K13      1.0000 0.75230  0.77870  0.46490  Biso   1.000  K
  K14      1.0000 0.72360  0.72810  0.48920  Biso   1.000  K
  O18      1.0000 0.64240  0.83410  0.01670  Biso   1.000  O
  C125     1.0000 0.53210  0.86350  0.00780  Biso   1.000  C
  H70      1.0000 0.48700  0.82280  0.00940  Biso   1.000  H
  H71      1.0000 0.50890  0.88120  0.04370  Biso   1.000  H
  H72      1.0000 0.52450  0.90660  0.96440  Biso   1.000  H
  O19      1.0000 0.82880  0.67380  0.04510  Biso   1.000  O
  C126     1.0000 0.87940  0.60110  0.05150  Biso   1.000  C
  H73      1.0000 0.92450  0.58070  0.09130  Biso   1.000  H
  H74      1.0000 0.82390  0.56560  0.05590  Biso   1.000  H
  H75      1.0000 0.92480  0.60690  0.01160  Biso   1.000  H
  O20      1.0000 0.75670  0.19070  0.47100  Biso   1.000  O
  C127     1.0000 0.80710  0.15250  0.42930  Biso   1.000  C
  O21      1.0000 0.18180  0.63430  0.49220  Biso   1.000  O
  C128     1.0000 0.29200  0.64400  0.47820  Biso   1.000  C
  H76      1.0000 0.33160  0.59370  0.48870  Biso   1.000  H
  H77      1.0000 0.31910  0.66930  0.50540  Biso   1.000  H
  H78      1.0000 0.30250  0.67590  0.43060  Biso   1.000  H
  O22      1.0000 0.00800  0.93960  0.00480  Biso   1.000  O
  C129     1.0000 0.00000  0.00000  0.00000  Biso   1.000  C
