data_image0
_cell_length_a       18.1226
_cell_length_b       18.1226
_cell_length_c       8.7244
_cell_angle_alpha    90
_cell_angle_beta     90
_cell_angle_gamma    120

_symmetry_space_group_name_H-M    "P 1"
_symmetry_int_tables_number       1

loop_
  _symmetry_equiv_pos_as_xyz
  'x, y, z'

loop_
  _atom_site_label
  _atom_site_occupancy
  _atom_site_fract_x
  _atom_site_fract_y
  _atom_site_fract_z
  _atom_site_thermal_displace_type
  _atom_site_B_iso_or_equiv
  _atom_site_type_symbol
  C1       1.0000 0.25100  0.99600  0.33500  Biso   1.000  C
  C2       1.0000 0.34100  0.03700  0.31700  Biso   1.000  C
  C3       1.0000 0.00400  0.25500  0.33500  Biso   1.000  C
  C4       1.0000 0.96300  0.30400  0.31700  Biso   1.000  C
  C5       1.0000 0.74500  0.74900  0.33500  Biso   1.000  C
  C6       1.0000 0.69600  0.65900  0.31700  Biso   1.000  C
  C7       1.0000 0.74900  0.00400  0.83500  Biso   1.000  C
  C8       1.0000 0.65900  0.96300  0.81700  Biso   1.000  C
  C9       1.0000 0.99600  0.74500  0.83500  Biso   1.000  C
  C10      1.0000 0.03700  0.69600  0.81700  Biso   1.000  C
  C11      1.0000 0.25500  0.25100  0.83500  Biso   1.000  C
  C12      1.0000 0.30400  0.34100  0.81700  Biso   1.000  C
  C13      1.0000 0.99600  0.25100  0.66500  Biso   1.000  C
  C14      1.0000 0.03700  0.34100  0.68300  Biso   1.000  C
  C15      1.0000 0.25500  0.00400  0.66500  Biso   1.000  C
  C16      1.0000 0.30400  0.96300  0.68300  Biso   1.000  C
  C17      1.0000 0.74900  0.74500  0.66500  Biso   1.000  C
  C18      1.0000 0.65900  0.69600  0.68300  Biso   1.000  C
  C19      1.0000 0.00400  0.74900  0.16500  Biso   1.000  C
  C20      1.0000 0.96300  0.65900  0.18300  Biso   1.000  C
  C21      1.0000 0.74500  0.99600  0.16500  Biso   1.000  C
  C22      1.0000 0.69600  0.03700  0.18300  Biso   1.000  C
  C23      1.0000 0.25100  0.25500  0.16500  Biso   1.000  C
  C24      1.0000 0.34100  0.30400  0.18300  Biso   1.000  C
  C25      1.0000 0.74900  0.00400  0.66500  Biso   1.000  C
  C26      1.0000 0.65900  0.96300  0.68300  Biso   1.000  C
  C27      1.0000 0.99600  0.74500  0.66500  Biso   1.000  C
  C28      1.0000 0.03700  0.69600  0.68300  Biso   1.000  C
  C29      1.0000 0.25500  0.25100  0.66500  Biso   1.000  C
  C30      1.0000 0.30400  0.34100  0.68300  Biso   1.000  C
  C31      1.0000 0.25100  0.99600  0.16500  Biso   1.000  C
  C32      1.0000 0.34100  0.03700  0.18300  Biso   1.000  C
  C33      1.0000 0.00400  0.25500  0.16500  Biso   1.000  C
  C34      1.0000 0.96300  0.30400  0.18300  Biso   1.000  C
  C35      1.0000 0.74500  0.74900  0.16500  Biso   1.000  C
  C36      1.0000 0.69600  0.65900  0.18300  Biso   1.000  C
  C37      1.0000 0.00400  0.74900  0.33500  Biso   1.000  C
  C38      1.0000 0.96300  0.65900  0.31700  Biso   1.000  C
  C39      1.0000 0.74500  0.99600  0.33500  Biso   1.000  C
  C40      1.0000 0.69600  0.03700  0.31700  Biso   1.000  C
  C41      1.0000 0.25100  0.25500  0.33500  Biso   1.000  C
  C42      1.0000 0.34100  0.30400  0.31700  Biso   1.000  C
  C43      1.0000 0.99600  0.25100  0.83500  Biso   1.000  C
  C44      1.0000 0.03700  0.34100  0.81700  Biso   1.000  C
  C45      1.0000 0.25500  0.00400  0.83500  Biso   1.000  C
  C46      1.0000 0.30400  0.96300  0.81700  Biso   1.000  C
  C47      1.0000 0.74900  0.74500  0.83500  Biso   1.000  C
  C48      1.0000 0.65900  0.69600  0.81700  Biso   1.000  C
  Cu1      1.0000 0.53639  0.07279  0.25000  Biso   1.000  Cu
  Cu2      1.0000 0.92721  0.46360  0.25000  Biso   1.000  Cu
  Cu3      1.0000 0.53639  0.46361  0.25000  Biso   1.000  Cu
  Cu4      1.0000 0.46361  0.92721  0.75000  Biso   1.000  Cu
  Cu5      1.0000 0.07279  0.53639  0.75000  Biso   1.000  Cu
  Cu6      1.0000 0.46360  0.53639  0.75000  Biso   1.000  Cu
  C49      1.0000 0.58800  0.25550  0.25000  Biso   1.000  C
  N1       1.0000 0.51440  0.17930  0.25000  Biso   1.000  N
  C50      1.0000 0.44430  0.18400  0.25000  Biso   1.000  C
  N2       1.0000 0.32230  0.03010  0.25000  Biso   1.000  N
  O1       1.0000 0.36290  0.12840  0.25000  Biso   1.000  O
  C51      1.0000 0.37120  0.09140  0.25000  Biso   1.000  C
  C52      1.0000 0.25200  0.98600  0.25000  Biso   1.000  C
  C53      1.0000 0.74450  0.33250  0.25000  Biso   1.000  C
  N3       1.0000 0.82070  0.33510  0.25000  Biso   1.000  N
  C54      1.0000 0.81600  0.26030  0.25000  Biso   1.000  C
  N4       1.0000 0.96990  0.29220  0.25000  Biso   1.000  N
  O2       1.0000 0.87160  0.23450  0.25000  Biso   1.000  O
  C55      1.0000 0.90860  0.27980  0.25000  Biso   1.000  C
  C56      1.0000 0.01400  0.26600  0.25000  Biso   1.000  C
  C57      1.0000 0.66750  0.41200  0.25000  Biso   1.000  C
  N5       1.0000 0.66490  0.48560  0.25000  Biso   1.000  N
  C58      1.0000 0.73970  0.55570  0.25000  Biso   1.000  C
  N6       1.0000 0.70780  0.67770  0.25000  Biso   1.000  N
  O3       1.0000 0.76550  0.63710  0.25000  Biso   1.000  O
  C59      1.0000 0.72020  0.62880  0.25000  Biso   1.000  C
  C60      1.0000 0.73400  0.74800  0.25000  Biso   1.000  C
  C61      1.0000 0.41200  0.74450  0.75000  Biso   1.000  C
  N7       1.0000 0.48560  0.82070  0.75000  Biso   1.000  N
  C62      1.0000 0.55570  0.81600  0.75000  Biso   1.000  C
  N8       1.0000 0.67770  0.96990  0.75000  Biso   1.000  N
  O4       1.0000 0.63710  0.87160  0.75000  Biso   1.000  O
  C63      1.0000 0.62880  0.90860  0.75000  Biso   1.000  C
  C64      1.0000 0.74800  0.01400  0.75000  Biso   1.000  C
  C65      1.0000 0.25550  0.66750  0.75000  Biso   1.000  C
  N9       1.0000 0.17930  0.66490  0.75000  Biso   1.000  N
  C66      1.0000 0.18400  0.73970  0.75000  Biso   1.000  C
  N10      1.0000 0.03010  0.70780  0.75000  Biso   1.000  N
  O5       1.0000 0.12840  0.76550  0.75000  Biso   1.000  O
  C67      1.0000 0.09140  0.72020  0.75000  Biso   1.000  C
  C68      1.0000 0.98600  0.73400  0.75000  Biso   1.000  C
  C69      1.0000 0.33250  0.58800  0.75000  Biso   1.000  C
  N11      1.0000 0.33510  0.51440  0.75000  Biso   1.000  N
  C70      1.0000 0.26030  0.44430  0.75000  Biso   1.000  C
  N12      1.0000 0.29220  0.32230  0.75000  Biso   1.000  N
  O6       1.0000 0.23450  0.36290  0.75000  Biso   1.000  O
  C71      1.0000 0.27980  0.37120  0.75000  Biso   1.000  C
  C72      1.0000 0.26600  0.25200  0.75000  Biso   1.000  C
  C73      1.0000 0.25550  0.58800  0.75000  Biso   1.000  C
  N13      1.0000 0.17930  0.51440  0.75000  Biso   1.000  N
  C74      1.0000 0.18400  0.44430  0.75000  Biso   1.000  C
  N14      1.0000 0.03010  0.32230  0.75000  Biso   1.000  N
  O7       1.0000 0.12840  0.36290  0.75000  Biso   1.000  O
  C75      1.0000 0.09140  0.37120  0.75000  Biso   1.000  C
  C76      1.0000 0.98600  0.25200  0.75000  Biso   1.000  C
  C77      1.0000 0.33250  0.74450  0.75000  Biso   1.000  C
  N15      1.0000 0.33510  0.82070  0.75000  Biso   1.000  N
  C78      1.0000 0.26030  0.81600  0.75000  Biso   1.000  C
  N16      1.0000 0.29220  0.96990  0.75000  Biso   1.000  N
  O8       1.0000 0.23450  0.87160  0.75000  Biso   1.000  O
  C79      1.0000 0.27980  0.90860  0.75000  Biso   1.000  C
  C80      1.0000 0.26600  0.01400  0.75000  Biso   1.000  C
  C81      1.0000 0.41200  0.66750  0.75000  Biso   1.000  C
  N17      1.0000 0.48560  0.66490  0.75000  Biso   1.000  N
  C82      1.0000 0.55570  0.73970  0.75000  Biso   1.000  C
  N18      1.0000 0.67770  0.70780  0.75000  Biso   1.000  N
  O9       1.0000 0.63710  0.76550  0.75000  Biso   1.000  O
  C83      1.0000 0.62880  0.72020  0.75000  Biso   1.000  C
  C84      1.0000 0.74800  0.73400  0.75000  Biso   1.000  C
  C85      1.0000 0.74450  0.41200  0.25000  Biso   1.000  C
  N19      1.0000 0.82070  0.48560  0.25000  Biso   1.000  N
  C86      1.0000 0.81600  0.55570  0.25000  Biso   1.000  C
  N20      1.0000 0.96990  0.67770  0.25000  Biso   1.000  N
  O10      1.0000 0.87160  0.63710  0.25000  Biso   1.000  O
  C87      1.0000 0.90860  0.62880  0.25000  Biso   1.000  C
  C88      1.0000 0.01400  0.74800  0.25000  Biso   1.000  C
  C89      1.0000 0.66750  0.25550  0.25000  Biso   1.000  C
  N21      1.0000 0.66490  0.17930  0.25000  Biso   1.000  N
  C90      1.0000 0.73970  0.18400  0.25000  Biso   1.000  C
  N22      1.0000 0.70780  0.03010  0.25000  Biso   1.000  N
  O11      1.0000 0.76550  0.12840  0.25000  Biso   1.000  O
  C91      1.0000 0.72020  0.09140  0.25000  Biso   1.000  C
  C92      1.0000 0.73400  0.98600  0.25000  Biso   1.000  C
  C93      1.0000 0.58800  0.33250  0.25000  Biso   1.000  C
  N23      1.0000 0.51440  0.33510  0.25000  Biso   1.000  N
  C94      1.0000 0.44430  0.26030  0.25000  Biso   1.000  C
  N24      1.0000 0.32230  0.29220  0.25000  Biso   1.000  N
  O12      1.0000 0.36290  0.23450  0.25000  Biso   1.000  O
  C95      1.0000 0.37120  0.27980  0.25000  Biso   1.000  C
  C96      1.0000 0.25200  0.26600  0.25000  Biso   1.000  C
  C97      1.0000 0.50895  0.01790  0.05880  Biso   1.000  C
  C98      1.0000 0.98210  0.49105  0.05880  Biso   1.000  C
  C99      1.0000 0.50895  0.49105  0.05880  Biso   1.000  C
  C100     1.0000 0.49105  0.98210  0.55880  Biso   1.000  C
  C101     1.0000 0.01790  0.50895  0.55880  Biso   1.000  C
  C102     1.0000 0.49105  0.50895  0.55880  Biso   1.000  C
  C103     1.0000 0.01790  0.50895  0.94120  Biso   1.000  C
  C104     1.0000 0.49105  0.98210  0.94120  Biso   1.000  C
  C105     1.0000 0.49105  0.50895  0.94120  Biso   1.000  C
  C106     1.0000 0.98210  0.49105  0.44120  Biso   1.000  C
  C107     1.0000 0.50895  0.01790  0.44120  Biso   1.000  C
  C108     1.0000 0.50895  0.49105  0.44120  Biso   1.000  C
