data_image0
_cell_length_a       18.421
_cell_length_b       18.421
_cell_length_c       8.537
_cell_angle_alpha    90
_cell_angle_beta     90
_cell_angle_gamma    120

_symmetry_space_group_name_H-M    "P 1"
_symmetry_int_tables_number       1

loop_
  _symmetry_equiv_pos_as_xyz
  'x, y, z'

loop_
  _atom_site_label
  _atom_site_occupancy
  _atom_site_fract_x
  _atom_site_fract_y
  _atom_site_fract_z
  _atom_site_thermal_displace_type
  _atom_site_B_iso_or_equiv
  _atom_site_type_symbol
  C1       1.0000 0.35460  0.03990  0.29000  Biso   1.000  C
  C2       1.0000 0.25700  0.99400  0.33900  Biso   1.000  C
  C3       1.0000 0.32200  0.03900  0.33300  Biso   1.000  C
  C4       1.0000 0.96010  0.31470  0.29000  Biso   1.000  C
  C5       1.0000 0.00600  0.26300  0.33900  Biso   1.000  C
  C6       1.0000 0.96100  0.28300  0.33300  Biso   1.000  C
  C7       1.0000 0.68530  0.64540  0.29000  Biso   1.000  C
  C8       1.0000 0.73700  0.74300  0.33900  Biso   1.000  C
  C9       1.0000 0.71700  0.67800  0.33300  Biso   1.000  C
  C10      1.0000 0.64540  0.96010  0.79000  Biso   1.000  C
  C11      1.0000 0.74300  0.00600  0.83900  Biso   1.000  C
  C12      1.0000 0.67800  0.96100  0.83300  Biso   1.000  C
  C13      1.0000 0.03990  0.68530  0.79000  Biso   1.000  C
  C14      1.0000 0.99400  0.73700  0.83900  Biso   1.000  C
  C15      1.0000 0.03900  0.71700  0.83300  Biso   1.000  C
  C16      1.0000 0.31470  0.35460  0.79000  Biso   1.000  C
  C17      1.0000 0.26300  0.25700  0.83900  Biso   1.000  C
  C18      1.0000 0.28300  0.32200  0.83300  Biso   1.000  C
  C19      1.0000 0.03990  0.35460  0.71000  Biso   1.000  C
  C20      1.0000 0.99400  0.25700  0.66100  Biso   1.000  C
  C21      1.0000 0.03900  0.32200  0.66700  Biso   1.000  C
  C22      1.0000 0.31470  0.96010  0.71000  Biso   1.000  C
  C23      1.0000 0.26300  0.00600  0.66100  Biso   1.000  C
  C24      1.0000 0.28300  0.96100  0.66700  Biso   1.000  C
  C25      1.0000 0.64540  0.68530  0.71000  Biso   1.000  C
  C26      1.0000 0.74300  0.73700  0.66100  Biso   1.000  C
  C27      1.0000 0.67800  0.71700  0.66700  Biso   1.000  C
  C28      1.0000 0.96010  0.64540  0.21000  Biso   1.000  C
  C29      1.0000 0.00600  0.74300  0.16100  Biso   1.000  C
  C30      1.0000 0.96100  0.67800  0.16700  Biso   1.000  C
  C31      1.0000 0.68530  0.03990  0.21000  Biso   1.000  C
  C32      1.0000 0.73700  0.99400  0.16100  Biso   1.000  C
  C33      1.0000 0.71700  0.03900  0.16700  Biso   1.000  C
  C34      1.0000 0.35460  0.31470  0.21000  Biso   1.000  C
  C35      1.0000 0.25700  0.26300  0.16100  Biso   1.000  C
  C36      1.0000 0.32200  0.28300  0.16700  Biso   1.000  C
  C37      1.0000 0.64540  0.96010  0.71000  Biso   1.000  C
  C38      1.0000 0.74300  0.00600  0.66100  Biso   1.000  C
  C39      1.0000 0.67800  0.96100  0.66700  Biso   1.000  C
  C40      1.0000 0.03990  0.68530  0.71000  Biso   1.000  C
  C41      1.0000 0.99400  0.73700  0.66100  Biso   1.000  C
  C42      1.0000 0.03900  0.71700  0.66700  Biso   1.000  C
  C43      1.0000 0.31470  0.35460  0.71000  Biso   1.000  C
  C44      1.0000 0.26300  0.25700  0.66100  Biso   1.000  C
  C45      1.0000 0.28300  0.32200  0.66700  Biso   1.000  C
  C46      1.0000 0.35460  0.03990  0.21000  Biso   1.000  C
  C47      1.0000 0.25700  0.99400  0.16100  Biso   1.000  C
  C48      1.0000 0.32200  0.03900  0.16700  Biso   1.000  C
  C49      1.0000 0.96010  0.31470  0.21000  Biso   1.000  C
  C50      1.0000 0.00600  0.26300  0.16100  Biso   1.000  C
  C51      1.0000 0.96100  0.28300  0.16700  Biso   1.000  C
  C52      1.0000 0.68530  0.64540  0.21000  Biso   1.000  C
  C53      1.0000 0.73700  0.74300  0.16100  Biso   1.000  C
  C54      1.0000 0.71700  0.67800  0.16700  Biso   1.000  C
  C55      1.0000 0.96010  0.64540  0.29000  Biso   1.000  C
  C56      1.0000 0.00600  0.74300  0.33900  Biso   1.000  C
  C57      1.0000 0.96100  0.67800  0.33300  Biso   1.000  C
  C58      1.0000 0.68530  0.03990  0.29000  Biso   1.000  C
  C59      1.0000 0.73700  0.99400  0.33900  Biso   1.000  C
  C60      1.0000 0.71700  0.03900  0.33300  Biso   1.000  C
  C61      1.0000 0.35460  0.31470  0.29000  Biso   1.000  C
  C62      1.0000 0.25700  0.26300  0.33900  Biso   1.000  C
  C63      1.0000 0.32200  0.28300  0.33300  Biso   1.000  C
  C64      1.0000 0.03990  0.35460  0.79000  Biso   1.000  C
  C65      1.0000 0.99400  0.25700  0.83900  Biso   1.000  C
  C66      1.0000 0.03900  0.32200  0.83300  Biso   1.000  C
  C67      1.0000 0.31470  0.96010  0.79000  Biso   1.000  C
  C68      1.0000 0.26300  0.00600  0.83900  Biso   1.000  C
  C69      1.0000 0.28300  0.96100  0.83300  Biso   1.000  C
  C70      1.0000 0.64540  0.68530  0.79000  Biso   1.000  C
  C71      1.0000 0.74300  0.73700  0.83900  Biso   1.000  C
  C72      1.0000 0.67800  0.71700  0.83300  Biso   1.000  C
  Cu1      1.0000 0.53885  0.07769  0.25000  Biso   1.000  Cu
  Cu2      1.0000 0.92231  0.46116  0.25000  Biso   1.000  Cu
  Cu3      1.0000 0.53884  0.46115  0.25000  Biso   1.000  Cu
  Cu4      1.0000 0.46115  0.92231  0.75000  Biso   1.000  Cu
  Cu5      1.0000 0.07769  0.53884  0.75000  Biso   1.000  Cu
  Cu6      1.0000 0.46116  0.53885  0.75000  Biso   1.000  Cu
  C73      1.0000 0.50975  0.01950  0.05740  Biso   1.000  C
  C74      1.0000 0.98050  0.49025  0.05740  Biso   1.000  C
  C75      1.0000 0.50975  0.49025  0.05740  Biso   1.000  C
  C76      1.0000 0.49025  0.98050  0.55740  Biso   1.000  C
  C77      1.0000 0.01950  0.50975  0.55740  Biso   1.000  C
  C78      1.0000 0.49025  0.50975  0.55740  Biso   1.000  C
  C79      1.0000 0.01950  0.50975  0.94260  Biso   1.000  C
  C80      1.0000 0.49025  0.98050  0.94260  Biso   1.000  C
  C81      1.0000 0.49025  0.50975  0.94260  Biso   1.000  C
  C82      1.0000 0.98050  0.49025  0.44260  Biso   1.000  C
  C83      1.0000 0.50975  0.01950  0.44260  Biso   1.000  C
  C84      1.0000 0.50975  0.49025  0.44260  Biso   1.000  C
  C85      1.0000 0.58940  0.25720  0.25000  Biso   1.000  C
  N1       1.0000 0.51740  0.18200  0.25000  Biso   1.000  N
  O1       1.0000 0.36830  0.12770  0.25000  Biso   1.000  O
  C86      1.0000 0.44780  0.18550  0.25000  Biso   1.000  C
  C87      1.0000 0.37500  0.09510  0.25000  Biso   1.000  C
  N2       1.0000 0.32140  0.03520  0.25000  Biso   1.000  N
  C88      1.0000 0.25700  0.98900  0.25000  Biso   1.000  C
  C89      1.0000 0.74280  0.33220  0.25000  Biso   1.000  C
  N3       1.0000 0.81800  0.33540  0.25000  Biso   1.000  N
  O2       1.0000 0.87230  0.24060  0.25000  Biso   1.000  O
  C90      1.0000 0.81450  0.26230  0.25000  Biso   1.000  C
  C91      1.0000 0.90490  0.27990  0.25000  Biso   1.000  C
  N4       1.0000 0.96480  0.28620  0.25000  Biso   1.000  N
  C92      1.0000 0.01100  0.26800  0.25000  Biso   1.000  C
  C93      1.0000 0.66780  0.41060  0.25000  Biso   1.000  C
  N5       1.0000 0.66460  0.48260  0.25000  Biso   1.000  N
  O3       1.0000 0.75940  0.63170  0.25000  Biso   1.000  O
  C94      1.0000 0.73770  0.55220  0.25000  Biso   1.000  C
  C95      1.0000 0.72010  0.62500  0.25000  Biso   1.000  C
  N6       1.0000 0.71380  0.67860  0.25000  Biso   1.000  N
  C96      1.0000 0.73200  0.74300  0.25000  Biso   1.000  C
  C97      1.0000 0.41060  0.74280  0.75000  Biso   1.000  C
  N7       1.0000 0.48260  0.81800  0.75000  Biso   1.000  N
  O4       1.0000 0.63170  0.87230  0.75000  Biso   1.000  O
  C98      1.0000 0.55220  0.81450  0.75000  Biso   1.000  C
  C99      1.0000 0.62500  0.90490  0.75000  Biso   1.000  C
  N8       1.0000 0.67860  0.96480  0.75000  Biso   1.000  N
  C100     1.0000 0.74300  0.01100  0.75000  Biso   1.000  C
  C101     1.0000 0.25720  0.66780  0.75000  Biso   1.000  C
  N9       1.0000 0.18200  0.66460  0.75000  Biso   1.000  N
  O5       1.0000 0.12770  0.75940  0.75000  Biso   1.000  O
  C102     1.0000 0.18550  0.73770  0.75000  Biso   1.000  C
  C103     1.0000 0.09510  0.72010  0.75000  Biso   1.000  C
  N10      1.0000 0.03520  0.71380  0.75000  Biso   1.000  N
  C104     1.0000 0.98900  0.73200  0.75000  Biso   1.000  C
  C105     1.0000 0.33220  0.58940  0.75000  Biso   1.000  C
  N11      1.0000 0.33540  0.51740  0.75000  Biso   1.000  N
  O6       1.0000 0.24060  0.36830  0.75000  Biso   1.000  O
  C106     1.0000 0.26230  0.44780  0.75000  Biso   1.000  C
  C107     1.0000 0.27990  0.37500  0.75000  Biso   1.000  C
  N12      1.0000 0.28620  0.32140  0.75000  Biso   1.000  N
  C108     1.0000 0.26800  0.25700  0.75000  Biso   1.000  C
  C109     1.0000 0.25720  0.58940  0.75000  Biso   1.000  C
  N13      1.0000 0.18200  0.51740  0.75000  Biso   1.000  N
  O7       1.0000 0.12770  0.36830  0.75000  Biso   1.000  O
  C110     1.0000 0.18550  0.44780  0.75000  Biso   1.000  C
  C111     1.0000 0.09510  0.37500  0.75000  Biso   1.000  C
  N14      1.0000 0.03520  0.32140  0.75000  Biso   1.000  N
  C112     1.0000 0.98900  0.25700  0.75000  Biso   1.000  C
  C113     1.0000 0.33220  0.74280  0.75000  Biso   1.000  C
  N15      1.0000 0.33540  0.81800  0.75000  Biso   1.000  N
  O8       1.0000 0.24060  0.87230  0.75000  Biso   1.000  O
  C114     1.0000 0.26230  0.81450  0.75000  Biso   1.000  C
  C115     1.0000 0.27990  0.90490  0.75000  Biso   1.000  C
  N16      1.0000 0.28620  0.96480  0.75000  Biso   1.000  N
  C116     1.0000 0.26800  0.01100  0.75000  Biso   1.000  C
  C117     1.0000 0.41060  0.66780  0.75000  Biso   1.000  C
  N17      1.0000 0.48260  0.66460  0.75000  Biso   1.000  N
  O9       1.0000 0.63170  0.75940  0.75000  Biso   1.000  O
  C118     1.0000 0.55220  0.73770  0.75000  Biso   1.000  C
  C119     1.0000 0.62500  0.72010  0.75000  Biso   1.000  C
  N18      1.0000 0.67860  0.71380  0.75000  Biso   1.000  N
  C120     1.0000 0.74300  0.73200  0.75000  Biso   1.000  C
  C121     1.0000 0.74280  0.41060  0.25000  Biso   1.000  C
  N19      1.0000 0.81800  0.48260  0.25000  Biso   1.000  N
  O10      1.0000 0.87230  0.63170  0.25000  Biso   1.000  O
  C122     1.0000 0.81450  0.55220  0.25000  Biso   1.000  C
  C123     1.0000 0.90490  0.62500  0.25000  Biso   1.000  C
  N20      1.0000 0.96480  0.67860  0.25000  Biso   1.000  N
  C124     1.0000 0.01100  0.74300  0.25000  Biso   1.000  C
  C125     1.0000 0.66780  0.25720  0.25000  Biso   1.000  C
  N21      1.0000 0.66460  0.18200  0.25000  Biso   1.000  N
  O11      1.0000 0.75940  0.12770  0.25000  Biso   1.000  O
  C126     1.0000 0.73770  0.18550  0.25000  Biso   1.000  C
  C127     1.0000 0.72010  0.09510  0.25000  Biso   1.000  C
  N22      1.0000 0.71380  0.03520  0.25000  Biso   1.000  N
  C128     1.0000 0.73200  0.98900  0.25000  Biso   1.000  C
  C129     1.0000 0.58940  0.33220  0.25000  Biso   1.000  C
  N23      1.0000 0.51740  0.33540  0.25000  Biso   1.000  N
  O12      1.0000 0.36830  0.24060  0.25000  Biso   1.000  O
  C130     1.0000 0.44780  0.26230  0.25000  Biso   1.000  C
  C131     1.0000 0.37500  0.27990  0.25000  Biso   1.000  C
  N24      1.0000 0.32140  0.28620  0.25000  Biso   1.000  N
  C132     1.0000 0.25700  0.26800  0.25000  Biso   1.000  C
