data_image0
_cell_length_a       20.7748
_cell_length_b       12.0341
_cell_length_c       10.3486
_cell_angle_alpha    90
_cell_angle_beta     90
_cell_angle_gamma    90

_symmetry_space_group_name_H-M    "P 1"
_symmetry_int_tables_number       1

loop_
  _symmetry_equiv_pos_as_xyz
  'x, y, z'

loop_
  _atom_site_label
  _atom_site_occupancy
  _atom_site_fract_x
  _atom_site_fract_y
  _atom_site_fract_z
  _atom_site_thermal_displace_type
  _atom_site_B_iso_or_equiv
  _atom_site_type_symbol
  C1       1.0000 0.21570  0.26890  0.34520  Biso   1.000  C
  H1       1.0000 0.18840  0.29010  0.41450  Biso   1.000  H
  C2       1.0000 0.19700  0.23240  0.22570  Biso   1.000  C
  C3       1.0000 0.12760  0.20970  0.17890  Biso   1.000  C
  C4       1.0000 0.10850  0.09060  0.21810  Biso   1.000  C
  C5       1.0000 0.92940  0.94250  0.67850  Biso   1.000  C
  H2       1.0000 0.95120  0.89540  0.61910  Biso   1.000  H
  C6       1.0000 0.12240  0.22470  0.03200  Biso   1.000  C
  C7       1.0000 0.14140  0.33560  0.97610  Biso   1.000  C
  H3       1.0000 0.12730  0.39510  0.03430  Biso   1.000  H
  H4       1.0000 0.12100  0.34510  0.89150  Biso   1.000  H
  H5       1.0000 0.18830  0.33870  0.96630  Biso   1.000  H
  C8       1.0000 0.08340  0.29560  0.24900  Biso   1.000  C
  H6       1.0000 0.08310  0.27820  0.34250  Biso   1.000  H
  H7       1.0000 0.10250  0.37050  0.23860  Biso   1.000  H
  C9       1.0000 0.01260  0.29910  0.20000  Biso   1.000  C
  H8       1.0000 0.01190  0.32250  0.10940  Biso   1.000  H
  H9       1.0000 0.98790  0.35200  0.25230  Biso   1.000  H
  H10      1.0000 0.99340  0.22500  0.20770  Biso   1.000  H
  C10      1.0000 0.22750  0.16500  0.73500  Biso   1.000  C
  H11      1.0000 0.14940  0.16700  0.99050  Biso   1.000  H
  H12      1.0000 0.07720  0.20980  0.00680  Biso   1.000  H
  O1       1.0000 0.10700  0.06400  0.68200  Biso   1.000  O
  C11      1.0000 0.16400  0.12900  0.67300  Biso   1.000  C
  C12      1.0000 0.28430  0.73110  0.34520  Biso   1.000  C
  H13      1.0000 0.31160  0.70990  0.41450  Biso   1.000  H
  C13      1.0000 0.30300  0.76760  0.22570  Biso   1.000  C
  C14      1.0000 0.37240  0.79030  0.17890  Biso   1.000  C
  C15      1.0000 0.39150  0.90940  0.21810  Biso   1.000  C
  C16      1.0000 0.57060  0.05750  0.67850  Biso   1.000  C
  H14      1.0000 0.54880  0.10460  0.61910  Biso   1.000  H
  C17      1.0000 0.37760  0.77530  0.03200  Biso   1.000  C
  C18      1.0000 0.35860  0.66440  0.97610  Biso   1.000  C
  H15      1.0000 0.37270  0.60490  0.03430  Biso   1.000  H
  H16      1.0000 0.37900  0.65490  0.89150  Biso   1.000  H
  H17      1.0000 0.31170  0.66130  0.96630  Biso   1.000  H
  C19      1.0000 0.41660  0.70440  0.24900  Biso   1.000  C
  H18      1.0000 0.41690  0.72180  0.34250  Biso   1.000  H
  H19      1.0000 0.39750  0.62950  0.23860  Biso   1.000  H
  C20      1.0000 0.48740  0.70090  0.20000  Biso   1.000  C
  H20      1.0000 0.48810  0.67750  0.10940  Biso   1.000  H
  H21      1.0000 0.51210  0.64800  0.25230  Biso   1.000  H
  H22      1.0000 0.50660  0.77500  0.20770  Biso   1.000  H
  C21      1.0000 0.27250  0.83500  0.73500  Biso   1.000  C
  H23      1.0000 0.35060  0.83300  0.99050  Biso   1.000  H
  H24      1.0000 0.42280  0.79020  0.00680  Biso   1.000  H
  O2       1.0000 0.39300  0.93600  0.68200  Biso   1.000  O
  C22      1.0000 0.33600  0.87100  0.67300  Biso   1.000  C
  C23      1.0000 0.78430  0.26890  0.65480  Biso   1.000  C
  H25      1.0000 0.81160  0.29010  0.58550  Biso   1.000  H
  C24      1.0000 0.80300  0.23240  0.77430  Biso   1.000  C
  C25      1.0000 0.87240  0.20970  0.82110  Biso   1.000  C
  C26      1.0000 0.89150  0.09060  0.78190  Biso   1.000  C
  C27      1.0000 0.07060  0.94250  0.32150  Biso   1.000  C
  H26      1.0000 0.04880  0.89540  0.38090  Biso   1.000  H
  C28      1.0000 0.87760  0.22470  0.96800  Biso   1.000  C
  C29      1.0000 0.85860  0.33560  0.02390  Biso   1.000  C
  H27      1.0000 0.87270  0.39510  0.96570  Biso   1.000  H
  H28      1.0000 0.87900  0.34510  0.10850  Biso   1.000  H
  H29      1.0000 0.81170  0.33870  0.03370  Biso   1.000  H
  C30      1.0000 0.91660  0.29560  0.75100  Biso   1.000  C
  H30      1.0000 0.91690  0.27820  0.65750  Biso   1.000  H
  H31      1.0000 0.89750  0.37050  0.76140  Biso   1.000  H
  C31      1.0000 0.98740  0.29910  0.80000  Biso   1.000  C
  H32      1.0000 0.98810  0.32250  0.89060  Biso   1.000  H
  H33      1.0000 0.01210  0.35200  0.74770  Biso   1.000  H
  H34      1.0000 0.00660  0.22500  0.79230  Biso   1.000  H
  C32      1.0000 0.77250  0.16500  0.26500  Biso   1.000  C
  H35      1.0000 0.85060  0.16700  0.00950  Biso   1.000  H
  H36      1.0000 0.92280  0.20980  0.99320  Biso   1.000  H
  O3       1.0000 0.89300  0.06400  0.31800  Biso   1.000  O
  C33      1.0000 0.83600  0.12900  0.32700  Biso   1.000  C
  C34      1.0000 0.71570  0.73110  0.65480  Biso   1.000  C
  H37      1.0000 0.68840  0.70990  0.58550  Biso   1.000  H
  C35      1.0000 0.69700  0.76760  0.77430  Biso   1.000  C
  C36      1.0000 0.62760  0.79030  0.82110  Biso   1.000  C
  C37      1.0000 0.60850  0.90940  0.78190  Biso   1.000  C
  C38      1.0000 0.42940  0.05750  0.32150  Biso   1.000  C
  H38      1.0000 0.45120  0.10460  0.38090  Biso   1.000  H
  C39      1.0000 0.62240  0.77530  0.96800  Biso   1.000  C
  C40      1.0000 0.64140  0.66440  0.02390  Biso   1.000  C
  H39      1.0000 0.62730  0.60490  0.96570  Biso   1.000  H
  H40      1.0000 0.62100  0.65490  0.10850  Biso   1.000  H
  H41      1.0000 0.68830  0.66130  0.03370  Biso   1.000  H
  C41      1.0000 0.58340  0.70440  0.75100  Biso   1.000  C
  H42      1.0000 0.58310  0.72180  0.65750  Biso   1.000  H
  H43      1.0000 0.60250  0.62950  0.76140  Biso   1.000  H
  C42      1.0000 0.51260  0.70090  0.80000  Biso   1.000  C
  H44      1.0000 0.51190  0.67750  0.89060  Biso   1.000  H
  H45      1.0000 0.48790  0.64800  0.74770  Biso   1.000  H
  H46      1.0000 0.49340  0.77500  0.79230  Biso   1.000  H
  C43      1.0000 0.72750  0.83500  0.26500  Biso   1.000  C
  H47      1.0000 0.64940  0.83300  0.00950  Biso   1.000  H
  H48      1.0000 0.57720  0.79020  0.99320  Biso   1.000  H
  O4       1.0000 0.60700  0.93600  0.31800  Biso   1.000  O
  C44      1.0000 0.66400  0.87100  0.32700  Biso   1.000  C
  C45      1.0000 0.78430  0.73110  0.65480  Biso   1.000  C
  H49      1.0000 0.81160  0.70990  0.58550  Biso   1.000  H
  C46      1.0000 0.80300  0.76760  0.77430  Biso   1.000  C
  C47      1.0000 0.87240  0.79030  0.82110  Biso   1.000  C
  C48      1.0000 0.89150  0.90940  0.78190  Biso   1.000  C
  C49      1.0000 0.07060  0.05750  0.32150  Biso   1.000  C
  H50      1.0000 0.04880  0.10460  0.38090  Biso   1.000  H
  C50      1.0000 0.87760  0.77530  0.96800  Biso   1.000  C
  C51      1.0000 0.85860  0.66440  0.02390  Biso   1.000  C
  H51      1.0000 0.87270  0.60490  0.96570  Biso   1.000  H
  H52      1.0000 0.87900  0.65490  0.10850  Biso   1.000  H
  H53      1.0000 0.81170  0.66130  0.03370  Biso   1.000  H
  C52      1.0000 0.91660  0.70440  0.75100  Biso   1.000  C
  H54      1.0000 0.91690  0.72180  0.65750  Biso   1.000  H
  H55      1.0000 0.89750  0.62950  0.76140  Biso   1.000  H
  C53      1.0000 0.98740  0.70090  0.80000  Biso   1.000  C
  H56      1.0000 0.98810  0.67750  0.89060  Biso   1.000  H
  H57      1.0000 0.01210  0.64800  0.74770  Biso   1.000  H
  H58      1.0000 0.00660  0.77500  0.79230  Biso   1.000  H
  C54      1.0000 0.77250  0.83500  0.26500  Biso   1.000  C
  H59      1.0000 0.85060  0.83300  0.00950  Biso   1.000  H
  H60      1.0000 0.92280  0.79020  0.99320  Biso   1.000  H
  O5       1.0000 0.89300  0.93600  0.31800  Biso   1.000  O
  C55      1.0000 0.83600  0.87100  0.32700  Biso   1.000  C
  C56      1.0000 0.71570  0.26890  0.65480  Biso   1.000  C
  H61      1.0000 0.68840  0.29010  0.58550  Biso   1.000  H
  C57      1.0000 0.69700  0.23240  0.77430  Biso   1.000  C
  C58      1.0000 0.62760  0.20970  0.82110  Biso   1.000  C
  C59      1.0000 0.60850  0.09060  0.78190  Biso   1.000  C
  C60      1.0000 0.42940  0.94250  0.32150  Biso   1.000  C
  H62      1.0000 0.45120  0.89540  0.38090  Biso   1.000  H
  C61      1.0000 0.62240  0.22470  0.96800  Biso   1.000  C
  C62      1.0000 0.64140  0.33560  0.02390  Biso   1.000  C
  H63      1.0000 0.62730  0.39510  0.96570  Biso   1.000  H
  H64      1.0000 0.62100  0.34510  0.10850  Biso   1.000  H
  H65      1.0000 0.68830  0.33870  0.03370  Biso   1.000  H
  C63      1.0000 0.58340  0.29560  0.75100  Biso   1.000  C
  H66      1.0000 0.58310  0.27820  0.65750  Biso   1.000  H
  H67      1.0000 0.60250  0.37050  0.76140  Biso   1.000  H
  C64      1.0000 0.51260  0.29910  0.80000  Biso   1.000  C
  H68      1.0000 0.51190  0.32250  0.89060  Biso   1.000  H
  H69      1.0000 0.48790  0.35200  0.74770  Biso   1.000  H
  H70      1.0000 0.49340  0.22500  0.79230  Biso   1.000  H
  C65      1.0000 0.72750  0.16500  0.26500  Biso   1.000  C
  H71      1.0000 0.64940  0.16700  0.00950  Biso   1.000  H
  H72      1.0000 0.57720  0.20980  0.99320  Biso   1.000  H
  O6       1.0000 0.60700  0.06400  0.31800  Biso   1.000  O
  C66      1.0000 0.66400  0.12900  0.32700  Biso   1.000  C
  C67      1.0000 0.21570  0.73110  0.34520  Biso   1.000  C
  H73      1.0000 0.18840  0.70990  0.41450  Biso   1.000  H
  C68      1.0000 0.19700  0.76760  0.22570  Biso   1.000  C
  C69      1.0000 0.12760  0.79030  0.17890  Biso   1.000  C
  C70      1.0000 0.10850  0.90940  0.21810  Biso   1.000  C
  C71      1.0000 0.92940  0.05750  0.67850  Biso   1.000  C
  H74      1.0000 0.95120  0.10460  0.61910  Biso   1.000  H
  C72      1.0000 0.12240  0.77530  0.03200  Biso   1.000  C
  C73      1.0000 0.14140  0.66440  0.97610  Biso   1.000  C
  H75      1.0000 0.12730  0.60490  0.03430  Biso   1.000  H
  H76      1.0000 0.12100  0.65490  0.89150  Biso   1.000  H
  H77      1.0000 0.18830  0.66130  0.96630  Biso   1.000  H
  C74      1.0000 0.08340  0.70440  0.24900  Biso   1.000  C
  H78      1.0000 0.08310  0.72180  0.34250  Biso   1.000  H
  H79      1.0000 0.10250  0.62950  0.23860  Biso   1.000  H
  C75      1.0000 0.01260  0.70090  0.20000  Biso   1.000  C
  H80      1.0000 0.01190  0.67750  0.10940  Biso   1.000  H
  H81      1.0000 0.98790  0.64800  0.25230  Biso   1.000  H
  H82      1.0000 0.99340  0.77500  0.20770  Biso   1.000  H
  C76      1.0000 0.22750  0.83500  0.73500  Biso   1.000  C
  H83      1.0000 0.14940  0.83300  0.99050  Biso   1.000  H
  H84      1.0000 0.07720  0.79020  0.00680  Biso   1.000  H
  O7       1.0000 0.10700  0.93600  0.68200  Biso   1.000  O
  C77      1.0000 0.16400  0.87100  0.67300  Biso   1.000  C
  C78      1.0000 0.28430  0.26890  0.34520  Biso   1.000  C
  H85      1.0000 0.31160  0.29010  0.41450  Biso   1.000  H
  C79      1.0000 0.30300  0.23240  0.22570  Biso   1.000  C
  C80      1.0000 0.37240  0.20970  0.17890  Biso   1.000  C
  C81      1.0000 0.39150  0.09060  0.21810  Biso   1.000  C
  C82      1.0000 0.57060  0.94250  0.67850  Biso   1.000  C
  H86      1.0000 0.54880  0.89540  0.61910  Biso   1.000  H
  C83      1.0000 0.37760  0.22470  0.03200  Biso   1.000  C
  C84      1.0000 0.35860  0.33560  0.97610  Biso   1.000  C
  H87      1.0000 0.37270  0.39510  0.03430  Biso   1.000  H
  H88      1.0000 0.37900  0.34510  0.89150  Biso   1.000  H
  H89      1.0000 0.31170  0.33870  0.96630  Biso   1.000  H
  C85      1.0000 0.41660  0.29560  0.24900  Biso   1.000  C
  H90      1.0000 0.41690  0.27820  0.34250  Biso   1.000  H
  H91      1.0000 0.39750  0.37050  0.23860  Biso   1.000  H
  C86      1.0000 0.48740  0.29910  0.20000  Biso   1.000  C
  H92      1.0000 0.48810  0.32250  0.10940  Biso   1.000  H
  H93      1.0000 0.51210  0.35200  0.25230  Biso   1.000  H
  H94      1.0000 0.50660  0.22500  0.20770  Biso   1.000  H
  C87      1.0000 0.27250  0.16500  0.73500  Biso   1.000  C
  H95      1.0000 0.35060  0.16700  0.99050  Biso   1.000  H
  H96      1.0000 0.42280  0.20980  0.00680  Biso   1.000  H
  O8       1.0000 0.39300  0.06400  0.68200  Biso   1.000  O
  C88      1.0000 0.33600  0.12900  0.67300  Biso   1.000  C
  Cs1      1.0000 0.25000  0.00000  0.96634  Biso   1.000  Cs
  Cs2      1.0000 0.25000  0.00000  0.35131  Biso   1.000  Cs
  Cs3      1.0000 0.75000  0.00000  0.03366  Biso   1.000  Cs
  Cs4      1.0000 0.75000  0.00000  0.64869  Biso   1.000  Cs
  Cs5      1.0000 0.01411  0.00000  0.97218  Biso   1.000  Cs
  N1       1.0000 0.13110  0.00000  0.15360  Biso   1.000  N
  O9       1.0000 0.13600  0.00000  0.74800  Biso   1.000  O
  Cs6      1.0000 0.48589  0.00000  0.97218  Biso   1.000  Cs
  N2       1.0000 0.36890  0.00000  0.15360  Biso   1.000  N
  O10      1.0000 0.36400  0.00000  0.74800  Biso   1.000  O
  Cs7      1.0000 0.98589  0.00000  0.02782  Biso   1.000  Cs
  N3       1.0000 0.86890  0.00000  0.84640  Biso   1.000  N
  O11      1.0000 0.86400  0.00000  0.25200  Biso   1.000  O
  Cs8      1.0000 0.51411  0.00000  0.02782  Biso   1.000  Cs
  N4       1.0000 0.63110  0.00000  0.84640  Biso   1.000  N
  O12      1.0000 0.63600  0.00000  0.25200  Biso   1.000  O
  Cs9      1.0000 0.25000  0.50000  0.16530  Biso   1.000  Cs
  Cs10     1.0000 0.25000  0.50000  0.27550  Biso   1.000  Cs
  Cs11     1.0000 0.75000  0.50000  0.83470  Biso   1.000  Cs
  Cs12     1.0000 0.75000  0.50000  0.72450  Biso   1.000  Cs
  N5       1.0000 0.25000  0.20860  0.15120  Biso   1.000  N
  O13      1.0000 0.25000  0.07800  0.65300  Biso   1.000  O
  N6       1.0000 0.25000  0.79140  0.15120  Biso   1.000  N
  O14      1.0000 0.25000  0.92200  0.65300  Biso   1.000  O
  N7       1.0000 0.75000  0.20860  0.84880  Biso   1.000  N
  O15      1.0000 0.75000  0.07800  0.34700  Biso   1.000  O
  N8       1.0000 0.75000  0.79140  0.84880  Biso   1.000  N
  O16      1.0000 0.75000  0.92200  0.34700  Biso   1.000  O
