data_image0
_cell_length_a       12.3245
_cell_length_b       12.3245
_cell_length_c       5.961
_cell_angle_alpha    90
_cell_angle_beta     90
_cell_angle_gamma    90

_symmetry_space_group_name_H-M    "P 1"
_symmetry_int_tables_number       1

loop_
  _symmetry_equiv_pos_as_xyz
  'x, y, z'

loop_
  _atom_site_label
  _atom_site_occupancy
  _atom_site_fract_x
  _atom_site_fract_y
  _atom_site_fract_z
  _atom_site_thermal_displace_type
  _atom_site_B_iso_or_equiv
  _atom_site_type_symbol
  Cu1      1.0000 0.65916  0.12645  0.45449  Biso   1.000  Cu
  Cu2      1.0000 0.86395  0.02542  0.58787  Biso   1.000  Cu
  S1       1.0000 0.86909  0.02343  0.20870  Biso   1.000  S
  N1       1.0000 0.75450  0.05310  0.83270  Biso   1.000  N
  C1       1.0000 0.75580  0.05600  0.05650  Biso   1.000  C
  N2       1.0000 0.28240  0.25460  0.95770  Biso   1.000  N
  N3       1.0000 0.65430  0.09390  0.76560  Biso   1.000  N
  N4       1.0000 0.65910  0.09340  0.13850  Biso   1.000  N
  C2       1.0000 0.59950  0.11500  0.95200  Biso   1.000  C
  C3       1.0000 0.48910  0.16030  0.95560  Biso   1.000  C
  C4       1.0000 0.42420  0.15300  0.77700  Biso   1.000  C
  H1       1.0000 0.44810  0.11720  0.64870  Biso   1.000  H
  C5       1.0000 0.31830  0.19990  0.78110  Biso   1.000  C
  H2       1.0000 0.27330  0.19200  0.65690  Biso   1.000  H
  C6       1.0000 0.34440  0.25880  0.13800  Biso   1.000  C
  H3       1.0000 0.31770  0.29400  0.26480  Biso   1.000  H
  C7       1.0000 0.42290  0.15550  0.13960  Biso   1.000  C
  H4       1.0000 0.44480  0.11870  0.26800  Biso   1.000  H
  C8       1.0000 0.44850  0.21330  0.76700  Biso   1.000  C
  C9       1.0000 0.34680  0.25920  0.77300  Biso   1.000  C
  C10      1.0000 0.32570  0.20470  0.13200  Biso   1.000  C
  C11      1.0000 0.45030  0.21200  0.14900  Biso   1.000  C
  Cu3      1.0000 0.86310  0.02400  0.33520  Biso   1.000  Cu
  H5       1.0000 0.49020  0.21770  0.63760  Biso   1.000  H
  H6       1.0000 0.32130  0.29480  0.64630  Biso   1.000  H
  H7       1.0000 0.28470  0.20350  0.26270  Biso   1.000  H
  H8       1.0000 0.49170  0.21560  0.27960  Biso   1.000  H
  S2       1.0000 0.87080  0.02250  0.71600  Biso   1.000  S
  Cu4      1.0000 0.34084  0.87355  0.45449  Biso   1.000  Cu
  Cu5      1.0000 0.13605  0.97458  0.58787  Biso   1.000  Cu
  S3       1.0000 0.13091  0.97657  0.20870  Biso   1.000  S
  N5       1.0000 0.24550  0.94690  0.83270  Biso   1.000  N
  C12      1.0000 0.24420  0.94400  0.05650  Biso   1.000  C
  N6       1.0000 0.71760  0.74540  0.95770  Biso   1.000  N
  N7       1.0000 0.34570  0.90610  0.76560  Biso   1.000  N
  N8       1.0000 0.34090  0.90660  0.13850  Biso   1.000  N
  C13      1.0000 0.40050  0.88500  0.95200  Biso   1.000  C
  C14      1.0000 0.51090  0.83970  0.95560  Biso   1.000  C
  C15      1.0000 0.57580  0.84700  0.77700  Biso   1.000  C
  H9       1.0000 0.55190  0.88280  0.64870  Biso   1.000  H
  C16      1.0000 0.68170  0.80010  0.78110  Biso   1.000  C
  H10      1.0000 0.72670  0.80800  0.65690  Biso   1.000  H
  C17      1.0000 0.65560  0.74120  0.13800  Biso   1.000  C
  H11      1.0000 0.68230  0.70600  0.26480  Biso   1.000  H
  C18      1.0000 0.57710  0.84450  0.13960  Biso   1.000  C
  H12      1.0000 0.55520  0.88130  0.26800  Biso   1.000  H
  C19      1.0000 0.55150  0.78670  0.76700  Biso   1.000  C
  C20      1.0000 0.65320  0.74080  0.77300  Biso   1.000  C
  C21      1.0000 0.67430  0.79530  0.13200  Biso   1.000  C
  C22      1.0000 0.54970  0.78800  0.14900  Biso   1.000  C
  Cu6      1.0000 0.13690  0.97600  0.33520  Biso   1.000  Cu
  H13      1.0000 0.50980  0.78230  0.63760  Biso   1.000  H
  H14      1.0000 0.67870  0.70520  0.64630  Biso   1.000  H
  H15      1.0000 0.71530  0.79650  0.26270  Biso   1.000  H
  H16      1.0000 0.50830  0.78440  0.27960  Biso   1.000  H
  S4       1.0000 0.12920  0.97750  0.71600  Biso   1.000  S
  Cu7      1.0000 0.87355  0.65916  0.95449  Biso   1.000  Cu
  Cu8      1.0000 0.97458  0.86395  0.08787  Biso   1.000  Cu
  S5       1.0000 0.97657  0.86909  0.70870  Biso   1.000  S
  N9       1.0000 0.94690  0.75450  0.33270  Biso   1.000  N
  C23      1.0000 0.94400  0.75580  0.55650  Biso   1.000  C
  N10      1.0000 0.74540  0.28240  0.45770  Biso   1.000  N
  N11      1.0000 0.90610  0.65430  0.26560  Biso   1.000  N
  N12      1.0000 0.90660  0.65910  0.63850  Biso   1.000  N
  C24      1.0000 0.88500  0.59950  0.45200  Biso   1.000  C
  C25      1.0000 0.83970  0.48910  0.45560  Biso   1.000  C
  C26      1.0000 0.84700  0.42420  0.27700  Biso   1.000  C
  H17      1.0000 0.88280  0.44810  0.14870  Biso   1.000  H
  C27      1.0000 0.80010  0.31830  0.28110  Biso   1.000  C
  H18      1.0000 0.80800  0.27330  0.15690  Biso   1.000  H
  C28      1.0000 0.74120  0.34440  0.63800  Biso   1.000  C
  H19      1.0000 0.70600  0.31770  0.76480  Biso   1.000  H
  C29      1.0000 0.84450  0.42290  0.63960  Biso   1.000  C
  H20      1.0000 0.88130  0.44480  0.76800  Biso   1.000  H
  C30      1.0000 0.78670  0.44850  0.26700  Biso   1.000  C
  C31      1.0000 0.74080  0.34680  0.27300  Biso   1.000  C
  C32      1.0000 0.79530  0.32570  0.63200  Biso   1.000  C
  C33      1.0000 0.78800  0.45030  0.64900  Biso   1.000  C
  Cu9      1.0000 0.97600  0.86310  0.83520  Biso   1.000  Cu
  H21      1.0000 0.78230  0.49020  0.13760  Biso   1.000  H
  H22      1.0000 0.70520  0.32130  0.14630  Biso   1.000  H
  H23      1.0000 0.79650  0.28470  0.76270  Biso   1.000  H
  H24      1.0000 0.78440  0.49170  0.77960  Biso   1.000  H
  S6       1.0000 0.97750  0.87080  0.21600  Biso   1.000  S
  Cu10     1.0000 0.12645  0.34084  0.95449  Biso   1.000  Cu
  Cu11     1.0000 0.02542  0.13605  0.08787  Biso   1.000  Cu
  S7       1.0000 0.02343  0.13091  0.70870  Biso   1.000  S
  N13      1.0000 0.05310  0.24550  0.33270  Biso   1.000  N
  C34      1.0000 0.05600  0.24420  0.55650  Biso   1.000  C
  N14      1.0000 0.25460  0.71760  0.45770  Biso   1.000  N
  N15      1.0000 0.09390  0.34570  0.26560  Biso   1.000  N
  N16      1.0000 0.09340  0.34090  0.63850  Biso   1.000  N
  C35      1.0000 0.11500  0.40050  0.45200  Biso   1.000  C
  C36      1.0000 0.16030  0.51090  0.45560  Biso   1.000  C
  C37      1.0000 0.15300  0.57580  0.27700  Biso   1.000  C
  H25      1.0000 0.11720  0.55190  0.14870  Biso   1.000  H
  C38      1.0000 0.19990  0.68170  0.28110  Biso   1.000  C
  H26      1.0000 0.19200  0.72670  0.15690  Biso   1.000  H
  C39      1.0000 0.25880  0.65560  0.63800  Biso   1.000  C
  H27      1.0000 0.29400  0.68230  0.76480  Biso   1.000  H
  C40      1.0000 0.15550  0.57710  0.63960  Biso   1.000  C
  H28      1.0000 0.11870  0.55520  0.76800  Biso   1.000  H
  C41      1.0000 0.21330  0.55150  0.26700  Biso   1.000  C
  C42      1.0000 0.25920  0.65320  0.27300  Biso   1.000  C
  C43      1.0000 0.20470  0.67430  0.63200  Biso   1.000  C
  C44      1.0000 0.21200  0.54970  0.64900  Biso   1.000  C
  Cu12     1.0000 0.02400  0.13690  0.83520  Biso   1.000  Cu
  H29      1.0000 0.21770  0.50980  0.13760  Biso   1.000  H
  H30      1.0000 0.29480  0.67870  0.14630  Biso   1.000  H
  H31      1.0000 0.20350  0.71530  0.76270  Biso   1.000  H
  H32      1.0000 0.21560  0.50830  0.77960  Biso   1.000  H
  S8       1.0000 0.02250  0.12920  0.21600  Biso   1.000  S
