data_image0
_cell_length_a       12.7559
_cell_length_b       12.7559
_cell_length_c       17.741
_cell_angle_alpha    90
_cell_angle_beta     90
_cell_angle_gamma    120

_symmetry_space_group_name_H-M    "P 1"
_symmetry_int_tables_number       1

loop_
  _symmetry_equiv_pos_as_xyz
  'x, y, z'

loop_
  _atom_site_label
  _atom_site_occupancy
  _atom_site_fract_x
  _atom_site_fract_y
  _atom_site_fract_z
  _atom_site_thermal_displace_type
  _atom_site_B_iso_or_equiv
  _atom_site_type_symbol
  O1       1.0000 0.94020  0.34900  0.08420  Biso   1.000  O
  O2       1.0000 0.82010  0.38730  0.15450  Biso   1.000  O
  C1       1.0000 0.87260  0.33000  0.13980  Biso   1.000  C
  C2       1.0000 0.82400  0.20200  0.17750  Biso   1.000  C
  H1       1.0000 0.75910  0.13860  0.14830  Biso   1.000  H
  H2       1.0000 0.88820  0.18310  0.18410  Biso   1.000  H
  C3       1.0000 0.89800  0.27800  0.20820  Biso   1.000  C
  H3       1.0000 0.92080  0.21810  0.19420  Biso   1.000  H
  H4       1.0000 0.96220  0.34030  0.23820  Biso   1.000  H
  O3       1.0000 0.65100  0.59120  0.08420  Biso   1.000  O
  O4       1.0000 0.61270  0.43280  0.15450  Biso   1.000  O
  C4       1.0000 0.67000  0.54260  0.13980  Biso   1.000  C
  C5       1.0000 0.79800  0.62200  0.17750  Biso   1.000  C
  H5       1.0000 0.86140  0.62050  0.14830  Biso   1.000  H
  H6       1.0000 0.81690  0.70510  0.18410  Biso   1.000  H
  C6       1.0000 0.72200  0.62000  0.20820  Biso   1.000  C
  H7       1.0000 0.78190  0.70270  0.19420  Biso   1.000  H
  H8       1.0000 0.65970  0.62190  0.23820  Biso   1.000  H
  O5       1.0000 0.40880  0.05980  0.08420  Biso   1.000  O
  O6       1.0000 0.56720  0.17990  0.15450  Biso   1.000  O
  C7       1.0000 0.45740  0.12740  0.13980  Biso   1.000  C
  C8       1.0000 0.37800  0.17600  0.17750  Biso   1.000  C
  H9       1.0000 0.37950  0.24090  0.14830  Biso   1.000  H
  H10      1.0000 0.29490  0.11180  0.18410  Biso   1.000  H
  C9       1.0000 0.38000  0.10200  0.20820  Biso   1.000  C
  H11      1.0000 0.29730  0.07920  0.19420  Biso   1.000  H
  H12      1.0000 0.37810  0.03780  0.23820  Biso   1.000  H
  O7       1.0000 0.05980  0.65100  0.08420  Biso   1.000  O
  O8       1.0000 0.17990  0.61270  0.15450  Biso   1.000  O
  C10      1.0000 0.12740  0.67000  0.13980  Biso   1.000  C
  C11      1.0000 0.17600  0.79800  0.17750  Biso   1.000  C
  H13      1.0000 0.24090  0.86140  0.14830  Biso   1.000  H
  H14      1.0000 0.11180  0.81690  0.18410  Biso   1.000  H
  C12      1.0000 0.10200  0.72200  0.20820  Biso   1.000  C
  H15      1.0000 0.07920  0.78190  0.19420  Biso   1.000  H
  H16      1.0000 0.03780  0.65970  0.23820  Biso   1.000  H
  O9       1.0000 0.34900  0.40880  0.08420  Biso   1.000  O
  O10      1.0000 0.38730  0.56720  0.15450  Biso   1.000  O
  C13      1.0000 0.33000  0.45740  0.13980  Biso   1.000  C
  C14      1.0000 0.20200  0.37800  0.17750  Biso   1.000  C
  H17      1.0000 0.13860  0.37950  0.14830  Biso   1.000  H
  H18      1.0000 0.18310  0.29490  0.18410  Biso   1.000  H
  C15      1.0000 0.27800  0.38000  0.20820  Biso   1.000  C
  H19      1.0000 0.21810  0.29730  0.19420  Biso   1.000  H
  H20      1.0000 0.34030  0.37810  0.23820  Biso   1.000  H
  O11      1.0000 0.59120  0.94020  0.08420  Biso   1.000  O
  O12      1.0000 0.43280  0.82010  0.15450  Biso   1.000  O
  C16      1.0000 0.54260  0.87260  0.13980  Biso   1.000  C
  C17      1.0000 0.62200  0.82400  0.17750  Biso   1.000  C
  H21      1.0000 0.62050  0.75910  0.14830  Biso   1.000  H
  H22      1.0000 0.70510  0.88820  0.18410  Biso   1.000  H
  C18      1.0000 0.62000  0.89800  0.20820  Biso   1.000  C
  H23      1.0000 0.70270  0.92080  0.19420  Biso   1.000  H
  H24      1.0000 0.62190  0.96220  0.23820  Biso   1.000  H
  O13      1.0000 0.34900  0.94020  0.41580  Biso   1.000  O
  O14      1.0000 0.38730  0.82010  0.34550  Biso   1.000  O
  C19      1.0000 0.33000  0.87260  0.36020  Biso   1.000  C
  C20      1.0000 0.20200  0.82400  0.32250  Biso   1.000  C
  H25      1.0000 0.13860  0.75910  0.35170  Biso   1.000  H
  H26      1.0000 0.18310  0.88820  0.31590  Biso   1.000  H
  C21      1.0000 0.27800  0.89800  0.29180  Biso   1.000  C
  H27      1.0000 0.21810  0.92080  0.30580  Biso   1.000  H
  H28      1.0000 0.34030  0.96220  0.26180  Biso   1.000  H
  O15      1.0000 0.59120  0.65100  0.41580  Biso   1.000  O
  O16      1.0000 0.43280  0.61270  0.34550  Biso   1.000  O
  C22      1.0000 0.54260  0.67000  0.36020  Biso   1.000  C
  C23      1.0000 0.62200  0.79800  0.32250  Biso   1.000  C
  H29      1.0000 0.62050  0.86140  0.35170  Biso   1.000  H
  H30      1.0000 0.70510  0.81690  0.31590  Biso   1.000  H
  C24      1.0000 0.62000  0.72200  0.29180  Biso   1.000  C
  H31      1.0000 0.70270  0.78190  0.30580  Biso   1.000  H
  H32      1.0000 0.62190  0.65970  0.26180  Biso   1.000  H
  O17      1.0000 0.05980  0.40880  0.41580  Biso   1.000  O
  O18      1.0000 0.17990  0.56720  0.34550  Biso   1.000  O
  C25      1.0000 0.12740  0.45740  0.36020  Biso   1.000  C
  C26      1.0000 0.17600  0.37800  0.32250  Biso   1.000  C
  H33      1.0000 0.24090  0.37950  0.35170  Biso   1.000  H
  H34      1.0000 0.11180  0.29490  0.31590  Biso   1.000  H
  C27      1.0000 0.10200  0.38000  0.29180  Biso   1.000  C
  H35      1.0000 0.07920  0.29730  0.30580  Biso   1.000  H
  H36      1.0000 0.03780  0.37810  0.26180  Biso   1.000  H
  O19      1.0000 0.65100  0.05980  0.41580  Biso   1.000  O
  O20      1.0000 0.61270  0.17990  0.34550  Biso   1.000  O
  C28      1.0000 0.67000  0.12740  0.36020  Biso   1.000  C
  C29      1.0000 0.79800  0.17600  0.32250  Biso   1.000  C
  H37      1.0000 0.86140  0.24090  0.35170  Biso   1.000  H
  H38      1.0000 0.81690  0.11180  0.31590  Biso   1.000  H
  C30      1.0000 0.72200  0.10200  0.29180  Biso   1.000  C
  H39      1.0000 0.78190  0.07920  0.30580  Biso   1.000  H
  H40      1.0000 0.65970  0.03780  0.26180  Biso   1.000  H
  O21      1.0000 0.40880  0.34900  0.41580  Biso   1.000  O
  O22      1.0000 0.56720  0.38730  0.34550  Biso   1.000  O
  C31      1.0000 0.45740  0.33000  0.36020  Biso   1.000  C
  C32      1.0000 0.37800  0.20200  0.32250  Biso   1.000  C
  H41      1.0000 0.37950  0.13860  0.35170  Biso   1.000  H
  H42      1.0000 0.29490  0.18310  0.31590  Biso   1.000  H
  C33      1.0000 0.38000  0.27800  0.29180  Biso   1.000  C
  H43      1.0000 0.29730  0.21810  0.30580  Biso   1.000  H
  H44      1.0000 0.37810  0.34030  0.26180  Biso   1.000  H
  O23      1.0000 0.94020  0.59120  0.41580  Biso   1.000  O
  O24      1.0000 0.82010  0.43280  0.34550  Biso   1.000  O
  C34      1.0000 0.87260  0.54260  0.36020  Biso   1.000  C
  C35      1.0000 0.82400  0.62200  0.32250  Biso   1.000  C
  H45      1.0000 0.75910  0.62050  0.35170  Biso   1.000  H
  H46      1.0000 0.88820  0.70510  0.31590  Biso   1.000  H
  C36      1.0000 0.89800  0.62000  0.29180  Biso   1.000  C
  H47      1.0000 0.92080  0.70270  0.30580  Biso   1.000  H
  H48      1.0000 0.96220  0.62190  0.26180  Biso   1.000  H
  O25      1.0000 0.05980  0.65100  0.91580  Biso   1.000  O
  O26      1.0000 0.17990  0.61270  0.84550  Biso   1.000  O
  C37      1.0000 0.12740  0.67000  0.86020  Biso   1.000  C
  C38      1.0000 0.17600  0.79800  0.82250  Biso   1.000  C
  H49      1.0000 0.24090  0.86140  0.85170  Biso   1.000  H
  H50      1.0000 0.11180  0.81690  0.81590  Biso   1.000  H
  C39      1.0000 0.10200  0.72200  0.79180  Biso   1.000  C
  H51      1.0000 0.07920  0.78190  0.80580  Biso   1.000  H
  H52      1.0000 0.03780  0.65970  0.76180  Biso   1.000  H
  O27      1.0000 0.34900  0.40880  0.91580  Biso   1.000  O
  O28      1.0000 0.38730  0.56720  0.84550  Biso   1.000  O
  C40      1.0000 0.33000  0.45740  0.86020  Biso   1.000  C
  C41      1.0000 0.20200  0.37800  0.82250  Biso   1.000  C
  H53      1.0000 0.13860  0.37950  0.85170  Biso   1.000  H
  H54      1.0000 0.18310  0.29490  0.81590  Biso   1.000  H
  C42      1.0000 0.27800  0.38000  0.79180  Biso   1.000  C
  H55      1.0000 0.21810  0.29730  0.80580  Biso   1.000  H
  H56      1.0000 0.34030  0.37810  0.76180  Biso   1.000  H
  O29      1.0000 0.59120  0.94020  0.91580  Biso   1.000  O
  O30      1.0000 0.43280  0.82010  0.84550  Biso   1.000  O
  C43      1.0000 0.54260  0.87260  0.86020  Biso   1.000  C
  C44      1.0000 0.62200  0.82400  0.82250  Biso   1.000  C
  H57      1.0000 0.62050  0.75910  0.85170  Biso   1.000  H
  H58      1.0000 0.70510  0.88820  0.81590  Biso   1.000  H
  C45      1.0000 0.62000  0.89800  0.79180  Biso   1.000  C
  H59      1.0000 0.70270  0.92080  0.80580  Biso   1.000  H
  H60      1.0000 0.62190  0.96220  0.76180  Biso   1.000  H
  O31      1.0000 0.94020  0.34900  0.91580  Biso   1.000  O
  O32      1.0000 0.82010  0.38730  0.84550  Biso   1.000  O
  C46      1.0000 0.87260  0.33000  0.86020  Biso   1.000  C
  C47      1.0000 0.82400  0.20200  0.82250  Biso   1.000  C
  H61      1.0000 0.75910  0.13860  0.85170  Biso   1.000  H
  H62      1.0000 0.88820  0.18310  0.81590  Biso   1.000  H
  C48      1.0000 0.89800  0.27800  0.79180  Biso   1.000  C
  H63      1.0000 0.92080  0.21810  0.80580  Biso   1.000  H
  H64      1.0000 0.96220  0.34030  0.76180  Biso   1.000  H
  O33      1.0000 0.65100  0.59120  0.91580  Biso   1.000  O
  O34      1.0000 0.61270  0.43280  0.84550  Biso   1.000  O
  C49      1.0000 0.67000  0.54260  0.86020  Biso   1.000  C
  C50      1.0000 0.79800  0.62200  0.82250  Biso   1.000  C
  H65      1.0000 0.86140  0.62050  0.85170  Biso   1.000  H
  H66      1.0000 0.81690  0.70510  0.81590  Biso   1.000  H
  C51      1.0000 0.72200  0.62000  0.79180  Biso   1.000  C
  H67      1.0000 0.78190  0.70270  0.80580  Biso   1.000  H
  H68      1.0000 0.65970  0.62190  0.76180  Biso   1.000  H
  O35      1.0000 0.40880  0.05980  0.91580  Biso   1.000  O
  O36      1.0000 0.56720  0.17990  0.84550  Biso   1.000  O
  C52      1.0000 0.45740  0.12740  0.86020  Biso   1.000  C
  C53      1.0000 0.37800  0.17600  0.82250  Biso   1.000  C
  H69      1.0000 0.37950  0.24090  0.85170  Biso   1.000  H
  H70      1.0000 0.29490  0.11180  0.81590  Biso   1.000  H
  C54      1.0000 0.38000  0.10200  0.79180  Biso   1.000  C
  H71      1.0000 0.29730  0.07920  0.80580  Biso   1.000  H
  H72      1.0000 0.37810  0.03780  0.76180  Biso   1.000  H
  O37      1.0000 0.65100  0.05980  0.58420  Biso   1.000  O
  O38      1.0000 0.61270  0.17990  0.65450  Biso   1.000  O
  C55      1.0000 0.67000  0.12740  0.63980  Biso   1.000  C
  C56      1.0000 0.79800  0.17600  0.67750  Biso   1.000  C
  H73      1.0000 0.86140  0.24090  0.64830  Biso   1.000  H
  H74      1.0000 0.81690  0.11180  0.68410  Biso   1.000  H
  C57      1.0000 0.72200  0.10200  0.70820  Biso   1.000  C
  H75      1.0000 0.78190  0.07920  0.69420  Biso   1.000  H
  H76      1.0000 0.65970  0.03780  0.73820  Biso   1.000  H
  O39      1.0000 0.40880  0.34900  0.58420  Biso   1.000  O
  O40      1.0000 0.56720  0.38730  0.65450  Biso   1.000  O
  C58      1.0000 0.45740  0.33000  0.63980  Biso   1.000  C
  C59      1.0000 0.37800  0.20200  0.67750  Biso   1.000  C
  H77      1.0000 0.37950  0.13860  0.64830  Biso   1.000  H
  H78      1.0000 0.29490  0.18310  0.68410  Biso   1.000  H
  C60      1.0000 0.38000  0.27800  0.70820  Biso   1.000  C
  H79      1.0000 0.29730  0.21810  0.69420  Biso   1.000  H
  H80      1.0000 0.37810  0.34030  0.73820  Biso   1.000  H
  O41      1.0000 0.94020  0.59120  0.58420  Biso   1.000  O
  O42      1.0000 0.82010  0.43280  0.65450  Biso   1.000  O
  C61      1.0000 0.87260  0.54260  0.63980  Biso   1.000  C
  C62      1.0000 0.82400  0.62200  0.67750  Biso   1.000  C
  H81      1.0000 0.75910  0.62050  0.64830  Biso   1.000  H
  H82      1.0000 0.88820  0.70510  0.68410  Biso   1.000  H
  C63      1.0000 0.89800  0.62000  0.70820  Biso   1.000  C
  H83      1.0000 0.92080  0.70270  0.69420  Biso   1.000  H
  H84      1.0000 0.96220  0.62190  0.73820  Biso   1.000  H
  O43      1.0000 0.34900  0.94020  0.58420  Biso   1.000  O
  O44      1.0000 0.38730  0.82010  0.65450  Biso   1.000  O
  C64      1.0000 0.33000  0.87260  0.63980  Biso   1.000  C
  C65      1.0000 0.20200  0.82400  0.67750  Biso   1.000  C
  H85      1.0000 0.13860  0.75910  0.64830  Biso   1.000  H
  H86      1.0000 0.18310  0.88820  0.68410  Biso   1.000  H
  C66      1.0000 0.27800  0.89800  0.70820  Biso   1.000  C
  H87      1.0000 0.21810  0.92080  0.69420  Biso   1.000  H
  H88      1.0000 0.34030  0.96220  0.73820  Biso   1.000  H
  O45      1.0000 0.59120  0.65100  0.58420  Biso   1.000  O
  O46      1.0000 0.43280  0.61270  0.65450  Biso   1.000  O
  C67      1.0000 0.54260  0.67000  0.63980  Biso   1.000  C
  C68      1.0000 0.62200  0.79800  0.67750  Biso   1.000  C
  H89      1.0000 0.62050  0.86140  0.64830  Biso   1.000  H
  H90      1.0000 0.70510  0.81690  0.68410  Biso   1.000  H
  C69      1.0000 0.62000  0.72200  0.70820  Biso   1.000  C
  H91      1.0000 0.70270  0.78190  0.69420  Biso   1.000  H
  H92      1.0000 0.62190  0.65970  0.73820  Biso   1.000  H
  O47      1.0000 0.05980  0.40880  0.58420  Biso   1.000  O
  O48      1.0000 0.17990  0.56720  0.65450  Biso   1.000  O
  C70      1.0000 0.12740  0.45740  0.63980  Biso   1.000  C
  C71      1.0000 0.17600  0.37800  0.67750  Biso   1.000  C
  H93      1.0000 0.24090  0.37950  0.64830  Biso   1.000  H
  H94      1.0000 0.11180  0.29490  0.68410  Biso   1.000  H
  C72      1.0000 0.10200  0.38000  0.70820  Biso   1.000  C
  H95      1.0000 0.07920  0.29730  0.69420  Biso   1.000  H
  H96      1.0000 0.03780  0.37810  0.73820  Biso   1.000  H
  Gd1      1.0000 0.66667  0.33333  0.25000  Biso   1.000  Gd
  Gd2      1.0000 0.33333  0.66667  0.25000  Biso   1.000  Gd
  Gd3      1.0000 0.33333  0.66667  0.75000  Biso   1.000  Gd
  Gd4      1.0000 0.66667  0.33333  0.75000  Biso   1.000  Gd
  Cd1      1.0000 0.00000  0.50000  0.00000  Biso   1.000  Cd
  Cd2      1.0000 0.50000  0.50000  0.00000  Biso   1.000  Cd
  Cd3      1.0000 0.50000  0.00000  0.00000  Biso   1.000  Cd
  Cd4      1.0000 0.50000  0.00000  0.50000  Biso   1.000  Cd
  Cd5      1.0000 0.50000  0.50000  0.50000  Biso   1.000  Cd
  Cd6      1.0000 0.00000  0.50000  0.50000  Biso   1.000  Cd
  O49      1.0000 0.78040  0.21960  0.25000  Biso   1.000  O
  O50      1.0000 0.78040  0.56080  0.25000  Biso   1.000  O
  O51      1.0000 0.43920  0.21960  0.25000  Biso   1.000  O
  O52      1.0000 0.21960  0.78040  0.25000  Biso   1.000  O
  O53      1.0000 0.21960  0.43920  0.25000  Biso   1.000  O
  O54      1.0000 0.56080  0.78040  0.25000  Biso   1.000  O
  O55      1.0000 0.21960  0.78040  0.75000  Biso   1.000  O
  O56      1.0000 0.21960  0.43920  0.75000  Biso   1.000  O
  O57      1.0000 0.56080  0.78040  0.75000  Biso   1.000  O
  O58      1.0000 0.78040  0.21960  0.75000  Biso   1.000  O
  O59      1.0000 0.78040  0.56080  0.75000  Biso   1.000  O
  O60      1.0000 0.43920  0.21960  0.75000  Biso   1.000  O
