data_image0
_cell_length_a       12.6947
_cell_length_b       12.6947
_cell_length_c       17.833
_cell_angle_alpha    90
_cell_angle_beta     90
_cell_angle_gamma    120

_symmetry_space_group_name_H-M    "P 1"
_symmetry_int_tables_number       1

loop_
  _symmetry_equiv_pos_as_xyz
  'x, y, z'

loop_
  _atom_site_label
  _atom_site_occupancy
  _atom_site_fract_x
  _atom_site_fract_y
  _atom_site_fract_z
  _atom_site_thermal_displace_type
  _atom_site_B_iso_or_equiv
  _atom_site_type_symbol
  O1       1.0000 0.93880  0.34910  0.08430  Biso   1.000  O
  O2       1.0000 0.81970  0.38870  0.15560  Biso   1.000  O
  C1       1.0000 0.87200  0.33150  0.14030  Biso   1.000  C
  C2       1.0000 0.82300  0.20100  0.17860  Biso   1.000  C
  H1       1.0000 0.75740  0.13710  0.14970  Biso   1.000  H
  H2       1.0000 0.88740  0.18230  0.18530  Biso   1.000  H
  C3       1.0000 0.89700  0.27700  0.20850  Biso   1.000  C
  H3       1.0000 0.91890  0.21630  0.19420  Biso   1.000  H
  H4       1.0000 0.96250  0.33910  0.23850  Biso   1.000  H
  O3       1.0000 0.65090  0.58970  0.08430  Biso   1.000  O
  O4       1.0000 0.61130  0.43100  0.15560  Biso   1.000  O
  C4       1.0000 0.66850  0.54050  0.14030  Biso   1.000  C
  C5       1.0000 0.79900  0.62200  0.17860  Biso   1.000  C
  H5       1.0000 0.86290  0.62030  0.14970  Biso   1.000  H
  H6       1.0000 0.81770  0.70510  0.18530  Biso   1.000  H
  C6       1.0000 0.72300  0.62000  0.20850  Biso   1.000  C
  H7       1.0000 0.78370  0.70260  0.19420  Biso   1.000  H
  H8       1.0000 0.66090  0.62340  0.23850  Biso   1.000  H
  O5       1.0000 0.41030  0.06120  0.08430  Biso   1.000  O
  O6       1.0000 0.56900  0.18030  0.15560  Biso   1.000  O
  C7       1.0000 0.45950  0.12800  0.14030  Biso   1.000  C
  C8       1.0000 0.37800  0.17700  0.17860  Biso   1.000  C
  H9       1.0000 0.37970  0.24260  0.14970  Biso   1.000  H
  H10      1.0000 0.29490  0.11260  0.18530  Biso   1.000  H
  C9       1.0000 0.38000  0.10300  0.20850  Biso   1.000  C
  H11      1.0000 0.29740  0.08110  0.19420  Biso   1.000  H
  H12      1.0000 0.37660  0.03750  0.23850  Biso   1.000  H
  O7       1.0000 0.06120  0.65090  0.08430  Biso   1.000  O
  O8       1.0000 0.18030  0.61130  0.15560  Biso   1.000  O
  C10      1.0000 0.12800  0.66850  0.14030  Biso   1.000  C
  C11      1.0000 0.17700  0.79900  0.17860  Biso   1.000  C
  H13      1.0000 0.24260  0.86290  0.14970  Biso   1.000  H
  H14      1.0000 0.11260  0.81770  0.18530  Biso   1.000  H
  C12      1.0000 0.10300  0.72300  0.20850  Biso   1.000  C
  H15      1.0000 0.08110  0.78370  0.19420  Biso   1.000  H
  H16      1.0000 0.03750  0.66090  0.23850  Biso   1.000  H
  O9       1.0000 0.34910  0.41030  0.08430  Biso   1.000  O
  O10      1.0000 0.38870  0.56900  0.15560  Biso   1.000  O
  C13      1.0000 0.33150  0.45950  0.14030  Biso   1.000  C
  C14      1.0000 0.20100  0.37800  0.17860  Biso   1.000  C
  H17      1.0000 0.13710  0.37970  0.14970  Biso   1.000  H
  H18      1.0000 0.18230  0.29490  0.18530  Biso   1.000  H
  C15      1.0000 0.27700  0.38000  0.20850  Biso   1.000  C
  H19      1.0000 0.21630  0.29740  0.19420  Biso   1.000  H
  H20      1.0000 0.33910  0.37660  0.23850  Biso   1.000  H
  O11      1.0000 0.58970  0.93880  0.08430  Biso   1.000  O
  O12      1.0000 0.43100  0.81970  0.15560  Biso   1.000  O
  C16      1.0000 0.54050  0.87200  0.14030  Biso   1.000  C
  C17      1.0000 0.62200  0.82300  0.17860  Biso   1.000  C
  H21      1.0000 0.62030  0.75740  0.14970  Biso   1.000  H
  H22      1.0000 0.70510  0.88740  0.18530  Biso   1.000  H
  C18      1.0000 0.62000  0.89700  0.20850  Biso   1.000  C
  H23      1.0000 0.70260  0.91890  0.19420  Biso   1.000  H
  H24      1.0000 0.62340  0.96250  0.23850  Biso   1.000  H
  O13      1.0000 0.34910  0.93880  0.41570  Biso   1.000  O
  O14      1.0000 0.38870  0.81970  0.34440  Biso   1.000  O
  C19      1.0000 0.33150  0.87200  0.35970  Biso   1.000  C
  C20      1.0000 0.20100  0.82300  0.32140  Biso   1.000  C
  H25      1.0000 0.13710  0.75740  0.35030  Biso   1.000  H
  H26      1.0000 0.18230  0.88740  0.31470  Biso   1.000  H
  C21      1.0000 0.27700  0.89700  0.29150  Biso   1.000  C
  H27      1.0000 0.21630  0.91890  0.30580  Biso   1.000  H
  H28      1.0000 0.33910  0.96250  0.26150  Biso   1.000  H
  O15      1.0000 0.58970  0.65090  0.41570  Biso   1.000  O
  O16      1.0000 0.43100  0.61130  0.34440  Biso   1.000  O
  C22      1.0000 0.54050  0.66850  0.35970  Biso   1.000  C
  C23      1.0000 0.62200  0.79900  0.32140  Biso   1.000  C
  H29      1.0000 0.62030  0.86290  0.35030  Biso   1.000  H
  H30      1.0000 0.70510  0.81770  0.31470  Biso   1.000  H
  C24      1.0000 0.62000  0.72300  0.29150  Biso   1.000  C
  H31      1.0000 0.70260  0.78370  0.30580  Biso   1.000  H
  H32      1.0000 0.62340  0.66090  0.26150  Biso   1.000  H
  O17      1.0000 0.06120  0.41030  0.41570  Biso   1.000  O
  O18      1.0000 0.18030  0.56900  0.34440  Biso   1.000  O
  C25      1.0000 0.12800  0.45950  0.35970  Biso   1.000  C
  C26      1.0000 0.17700  0.37800  0.32140  Biso   1.000  C
  H33      1.0000 0.24260  0.37970  0.35030  Biso   1.000  H
  H34      1.0000 0.11260  0.29490  0.31470  Biso   1.000  H
  C27      1.0000 0.10300  0.38000  0.29150  Biso   1.000  C
  H35      1.0000 0.08110  0.29740  0.30580  Biso   1.000  H
  H36      1.0000 0.03750  0.37660  0.26150  Biso   1.000  H
  O19      1.0000 0.65090  0.06120  0.41570  Biso   1.000  O
  O20      1.0000 0.61130  0.18030  0.34440  Biso   1.000  O
  C28      1.0000 0.66850  0.12800  0.35970  Biso   1.000  C
  C29      1.0000 0.79900  0.17700  0.32140  Biso   1.000  C
  H37      1.0000 0.86290  0.24260  0.35030  Biso   1.000  H
  H38      1.0000 0.81770  0.11260  0.31470  Biso   1.000  H
  C30      1.0000 0.72300  0.10300  0.29150  Biso   1.000  C
  H39      1.0000 0.78370  0.08110  0.30580  Biso   1.000  H
  H40      1.0000 0.66090  0.03750  0.26150  Biso   1.000  H
  O21      1.0000 0.41030  0.34910  0.41570  Biso   1.000  O
  O22      1.0000 0.56900  0.38870  0.34440  Biso   1.000  O
  C31      1.0000 0.45950  0.33150  0.35970  Biso   1.000  C
  C32      1.0000 0.37800  0.20100  0.32140  Biso   1.000  C
  H41      1.0000 0.37970  0.13710  0.35030  Biso   1.000  H
  H42      1.0000 0.29490  0.18230  0.31470  Biso   1.000  H
  C33      1.0000 0.38000  0.27700  0.29150  Biso   1.000  C
  H43      1.0000 0.29740  0.21630  0.30580  Biso   1.000  H
  H44      1.0000 0.37660  0.33910  0.26150  Biso   1.000  H
  O23      1.0000 0.93880  0.58970  0.41570  Biso   1.000  O
  O24      1.0000 0.81970  0.43100  0.34440  Biso   1.000  O
  C34      1.0000 0.87200  0.54050  0.35970  Biso   1.000  C
  C35      1.0000 0.82300  0.62200  0.32140  Biso   1.000  C
  H45      1.0000 0.75740  0.62030  0.35030  Biso   1.000  H
  H46      1.0000 0.88740  0.70510  0.31470  Biso   1.000  H
  C36      1.0000 0.89700  0.62000  0.29150  Biso   1.000  C
  H47      1.0000 0.91890  0.70260  0.30580  Biso   1.000  H
  H48      1.0000 0.96250  0.62340  0.26150  Biso   1.000  H
  O25      1.0000 0.06120  0.65090  0.91570  Biso   1.000  O
  O26      1.0000 0.18030  0.61130  0.84440  Biso   1.000  O
  C37      1.0000 0.12800  0.66850  0.85970  Biso   1.000  C
  C38      1.0000 0.17700  0.79900  0.82140  Biso   1.000  C
  H49      1.0000 0.24260  0.86290  0.85030  Biso   1.000  H
  H50      1.0000 0.11260  0.81770  0.81470  Biso   1.000  H
  C39      1.0000 0.10300  0.72300  0.79150  Biso   1.000  C
  H51      1.0000 0.08110  0.78370  0.80580  Biso   1.000  H
  H52      1.0000 0.03750  0.66090  0.76150  Biso   1.000  H
  O27      1.0000 0.34910  0.41030  0.91570  Biso   1.000  O
  O28      1.0000 0.38870  0.56900  0.84440  Biso   1.000  O
  C40      1.0000 0.33150  0.45950  0.85970  Biso   1.000  C
  C41      1.0000 0.20100  0.37800  0.82140  Biso   1.000  C
  H53      1.0000 0.13710  0.37970  0.85030  Biso   1.000  H
  H54      1.0000 0.18230  0.29490  0.81470  Biso   1.000  H
  C42      1.0000 0.27700  0.38000  0.79150  Biso   1.000  C
  H55      1.0000 0.21630  0.29740  0.80580  Biso   1.000  H
  H56      1.0000 0.33910  0.37660  0.76150  Biso   1.000  H
  O29      1.0000 0.58970  0.93880  0.91570  Biso   1.000  O
  O30      1.0000 0.43100  0.81970  0.84440  Biso   1.000  O
  C43      1.0000 0.54050  0.87200  0.85970  Biso   1.000  C
  C44      1.0000 0.62200  0.82300  0.82140  Biso   1.000  C
  H57      1.0000 0.62030  0.75740  0.85030  Biso   1.000  H
  H58      1.0000 0.70510  0.88740  0.81470  Biso   1.000  H
  C45      1.0000 0.62000  0.89700  0.79150  Biso   1.000  C
  H59      1.0000 0.70260  0.91890  0.80580  Biso   1.000  H
  H60      1.0000 0.62340  0.96250  0.76150  Biso   1.000  H
  O31      1.0000 0.93880  0.34910  0.91570  Biso   1.000  O
  O32      1.0000 0.81970  0.38870  0.84440  Biso   1.000  O
  C46      1.0000 0.87200  0.33150  0.85970  Biso   1.000  C
  C47      1.0000 0.82300  0.20100  0.82140  Biso   1.000  C
  H61      1.0000 0.75740  0.13710  0.85030  Biso   1.000  H
  H62      1.0000 0.88740  0.18230  0.81470  Biso   1.000  H
  C48      1.0000 0.89700  0.27700  0.79150  Biso   1.000  C
  H63      1.0000 0.91890  0.21630  0.80580  Biso   1.000  H
  H64      1.0000 0.96250  0.33910  0.76150  Biso   1.000  H
  O33      1.0000 0.65090  0.58970  0.91570  Biso   1.000  O
  O34      1.0000 0.61130  0.43100  0.84440  Biso   1.000  O
  C49      1.0000 0.66850  0.54050  0.85970  Biso   1.000  C
  C50      1.0000 0.79900  0.62200  0.82140  Biso   1.000  C
  H65      1.0000 0.86290  0.62030  0.85030  Biso   1.000  H
  H66      1.0000 0.81770  0.70510  0.81470  Biso   1.000  H
  C51      1.0000 0.72300  0.62000  0.79150  Biso   1.000  C
  H67      1.0000 0.78370  0.70260  0.80580  Biso   1.000  H
  H68      1.0000 0.66090  0.62340  0.76150  Biso   1.000  H
  O35      1.0000 0.41030  0.06120  0.91570  Biso   1.000  O
  O36      1.0000 0.56900  0.18030  0.84440  Biso   1.000  O
  C52      1.0000 0.45950  0.12800  0.85970  Biso   1.000  C
  C53      1.0000 0.37800  0.17700  0.82140  Biso   1.000  C
  H69      1.0000 0.37970  0.24260  0.85030  Biso   1.000  H
  H70      1.0000 0.29490  0.11260  0.81470  Biso   1.000  H
  C54      1.0000 0.38000  0.10300  0.79150  Biso   1.000  C
  H71      1.0000 0.29740  0.08110  0.80580  Biso   1.000  H
  H72      1.0000 0.37660  0.03750  0.76150  Biso   1.000  H
  O37      1.0000 0.65090  0.06120  0.58430  Biso   1.000  O
  O38      1.0000 0.61130  0.18030  0.65560  Biso   1.000  O
  C55      1.0000 0.66850  0.12800  0.64030  Biso   1.000  C
  C56      1.0000 0.79900  0.17700  0.67860  Biso   1.000  C
  H73      1.0000 0.86290  0.24260  0.64970  Biso   1.000  H
  H74      1.0000 0.81770  0.11260  0.68530  Biso   1.000  H
  C57      1.0000 0.72300  0.10300  0.70850  Biso   1.000  C
  H75      1.0000 0.78370  0.08110  0.69420  Biso   1.000  H
  H76      1.0000 0.66090  0.03750  0.73850  Biso   1.000  H
  O39      1.0000 0.41030  0.34910  0.58430  Biso   1.000  O
  O40      1.0000 0.56900  0.38870  0.65560  Biso   1.000  O
  C58      1.0000 0.45950  0.33150  0.64030  Biso   1.000  C
  C59      1.0000 0.37800  0.20100  0.67860  Biso   1.000  C
  H77      1.0000 0.37970  0.13710  0.64970  Biso   1.000  H
  H78      1.0000 0.29490  0.18230  0.68530  Biso   1.000  H
  C60      1.0000 0.38000  0.27700  0.70850  Biso   1.000  C
  H79      1.0000 0.29740  0.21630  0.69420  Biso   1.000  H
  H80      1.0000 0.37660  0.33910  0.73850  Biso   1.000  H
  O41      1.0000 0.93880  0.58970  0.58430  Biso   1.000  O
  O42      1.0000 0.81970  0.43100  0.65560  Biso   1.000  O
  C61      1.0000 0.87200  0.54050  0.64030  Biso   1.000  C
  C62      1.0000 0.82300  0.62200  0.67860  Biso   1.000  C
  H81      1.0000 0.75740  0.62030  0.64970  Biso   1.000  H
  H82      1.0000 0.88740  0.70510  0.68530  Biso   1.000  H
  C63      1.0000 0.89700  0.62000  0.70850  Biso   1.000  C
  H83      1.0000 0.91890  0.70260  0.69420  Biso   1.000  H
  H84      1.0000 0.96250  0.62340  0.73850  Biso   1.000  H
  O43      1.0000 0.34910  0.93880  0.58430  Biso   1.000  O
  O44      1.0000 0.38870  0.81970  0.65560  Biso   1.000  O
  C64      1.0000 0.33150  0.87200  0.64030  Biso   1.000  C
  C65      1.0000 0.20100  0.82300  0.67860  Biso   1.000  C
  H85      1.0000 0.13710  0.75740  0.64970  Biso   1.000  H
  H86      1.0000 0.18230  0.88740  0.68530  Biso   1.000  H
  C66      1.0000 0.27700  0.89700  0.70850  Biso   1.000  C
  H87      1.0000 0.21630  0.91890  0.69420  Biso   1.000  H
  H88      1.0000 0.33910  0.96250  0.73850  Biso   1.000  H
  O45      1.0000 0.58970  0.65090  0.58430  Biso   1.000  O
  O46      1.0000 0.43100  0.61130  0.65560  Biso   1.000  O
  C67      1.0000 0.54050  0.66850  0.64030  Biso   1.000  C
  C68      1.0000 0.62200  0.79900  0.67860  Biso   1.000  C
  H89      1.0000 0.62030  0.86290  0.64970  Biso   1.000  H
  H90      1.0000 0.70510  0.81770  0.68530  Biso   1.000  H
  C69      1.0000 0.62000  0.72300  0.70850  Biso   1.000  C
  H91      1.0000 0.70260  0.78370  0.69420  Biso   1.000  H
  H92      1.0000 0.62340  0.66090  0.73850  Biso   1.000  H
  O47      1.0000 0.06120  0.41030  0.58430  Biso   1.000  O
  O48      1.0000 0.18030  0.56900  0.65560  Biso   1.000  O
  C70      1.0000 0.12800  0.45950  0.64030  Biso   1.000  C
  C71      1.0000 0.17700  0.37800  0.67860  Biso   1.000  C
  H93      1.0000 0.24260  0.37970  0.64970  Biso   1.000  H
  H94      1.0000 0.11260  0.29490  0.68530  Biso   1.000  H
  C72      1.0000 0.10300  0.38000  0.70850  Biso   1.000  C
  H95      1.0000 0.08110  0.29740  0.69420  Biso   1.000  H
  H96      1.0000 0.03750  0.37660  0.73850  Biso   1.000  H
  Tb1      1.0000 0.66667  0.33333  0.25000  Biso   1.000  Tb
  Tb2      1.0000 0.33333  0.66667  0.25000  Biso   1.000  Tb
  Tb3      1.0000 0.33333  0.66667  0.75000  Biso   1.000  Tb
  Tb4      1.0000 0.66667  0.33333  0.75000  Biso   1.000  Tb
  Cd1      1.0000 0.00000  0.50000  0.00000  Biso   1.000  Cd
  Cd2      1.0000 0.50000  0.50000  0.00000  Biso   1.000  Cd
  Cd3      1.0000 0.50000  0.00000  0.00000  Biso   1.000  Cd
  Cd4      1.0000 0.50000  0.00000  0.50000  Biso   1.000  Cd
  Cd5      1.0000 0.50000  0.50000  0.50000  Biso   1.000  Cd
  Cd6      1.0000 0.00000  0.50000  0.50000  Biso   1.000  Cd
  O49      1.0000 0.77970  0.22030  0.25000  Biso   1.000  O
  O50      1.0000 0.77970  0.55940  0.25000  Biso   1.000  O
  O51      1.0000 0.44060  0.22030  0.25000  Biso   1.000  O
  O52      1.0000 0.22030  0.77970  0.25000  Biso   1.000  O
  O53      1.0000 0.22030  0.44060  0.25000  Biso   1.000  O
  O54      1.0000 0.55940  0.77970  0.25000  Biso   1.000  O
  O55      1.0000 0.22030  0.77970  0.75000  Biso   1.000  O
  O56      1.0000 0.22030  0.44060  0.75000  Biso   1.000  O
  O57      1.0000 0.55940  0.77970  0.75000  Biso   1.000  O
  O58      1.0000 0.77970  0.22030  0.75000  Biso   1.000  O
  O59      1.0000 0.77970  0.55940  0.75000  Biso   1.000  O
  O60      1.0000 0.44060  0.22030  0.75000  Biso   1.000  O
