data_image0
_cell_length_a       15.79
_cell_length_b       15.79
_cell_length_c       16.05
_cell_angle_alpha    90
_cell_angle_beta     90
_cell_angle_gamma    120

_symmetry_space_group_name_H-M    "P 1"
_symmetry_int_tables_number       1

loop_
  _symmetry_equiv_pos_as_xyz
  'x, y, z'

loop_
  _atom_site_label
  _atom_site_occupancy
  _atom_site_fract_x
  _atom_site_fract_y
  _atom_site_fract_z
  _atom_site_thermal_displace_type
  _atom_site_B_iso_or_equiv
  _atom_site_type_symbol
  F1       1.0000 0.53480  0.18270  0.97390  Biso   1.000  F
  F2       1.0000 0.58140  0.04960  0.84940  Biso   1.000  F
  O1       1.0000 0.51450  0.16850  0.15990  Biso   1.000  O
  C1       1.0000 0.51850  0.08780  0.98810  Biso   1.000  C
  C2       1.0000 0.54410  0.01880  0.92630  Biso   1.000  C
  F3       1.0000 0.81730  0.35210  0.97390  Biso   1.000  F
  F4       1.0000 0.95040  0.53180  0.84940  Biso   1.000  F
  O2       1.0000 0.83150  0.34600  0.15990  Biso   1.000  O
  C3       1.0000 0.91220  0.43070  0.98810  Biso   1.000  C
  C4       1.0000 0.98120  0.52530  0.92630  Biso   1.000  C
  F5       1.0000 0.64790  0.46520  0.97390  Biso   1.000  F
  F6       1.0000 0.46820  0.41860  0.84940  Biso   1.000  F
  O3       1.0000 0.65400  0.48550  0.15990  Biso   1.000  O
  C5       1.0000 0.56930  0.48150  0.98810  Biso   1.000  C
  C6       1.0000 0.47470  0.45590  0.92630  Biso   1.000  C
  F7       1.0000 0.46520  0.81730  0.47390  Biso   1.000  F
  F8       1.0000 0.41860  0.95040  0.34940  Biso   1.000  F
  O4       1.0000 0.48550  0.83150  0.65990  Biso   1.000  O
  C7       1.0000 0.48150  0.91220  0.48810  Biso   1.000  C
  C8       1.0000 0.45590  0.98120  0.42630  Biso   1.000  C
  F9       1.0000 0.18270  0.64790  0.47390  Biso   1.000  F
  F10      1.0000 0.04960  0.46820  0.34940  Biso   1.000  F
  O5       1.0000 0.16850  0.65400  0.65990  Biso   1.000  O
  C9       1.0000 0.08780  0.56930  0.48810  Biso   1.000  C
  C10      1.0000 0.01880  0.47470  0.42630  Biso   1.000  C
  F11      1.0000 0.35210  0.53480  0.47390  Biso   1.000  F
  F12      1.0000 0.53180  0.58140  0.34940  Biso   1.000  F
  O6       1.0000 0.34600  0.51450  0.65990  Biso   1.000  O
  C11      1.0000 0.43070  0.51850  0.48810  Biso   1.000  C
  C12      1.0000 0.52530  0.54410  0.42630  Biso   1.000  C
  F13      1.0000 0.18270  0.53480  0.02610  Biso   1.000  F
  F14      1.0000 0.04960  0.58140  0.15060  Biso   1.000  F
  O7       1.0000 0.16850  0.51450  0.84010  Biso   1.000  O
  C13      1.0000 0.08780  0.51850  0.01190  Biso   1.000  C
  C14      1.0000 0.01880  0.54410  0.07370  Biso   1.000  C
  F15      1.0000 0.35210  0.81730  0.02610  Biso   1.000  F
  F16      1.0000 0.53180  0.95040  0.15060  Biso   1.000  F
  O8       1.0000 0.34600  0.83150  0.84010  Biso   1.000  O
  C15      1.0000 0.43070  0.91220  0.01190  Biso   1.000  C
  C16      1.0000 0.52530  0.98120  0.07370  Biso   1.000  C
  F17      1.0000 0.46520  0.64790  0.02610  Biso   1.000  F
  F18      1.0000 0.41860  0.46820  0.15060  Biso   1.000  F
  O9       1.0000 0.48550  0.65400  0.84010  Biso   1.000  O
  C17      1.0000 0.48150  0.56930  0.01190  Biso   1.000  C
  C18      1.0000 0.45590  0.47470  0.07370  Biso   1.000  C
  F19      1.0000 0.81730  0.46520  0.52610  Biso   1.000  F
  F20      1.0000 0.95040  0.41860  0.65060  Biso   1.000  F
  O10      1.0000 0.83150  0.48550  0.34010  Biso   1.000  O
  C19      1.0000 0.91220  0.48150  0.51190  Biso   1.000  C
  C20      1.0000 0.98120  0.45590  0.57370  Biso   1.000  C
  F21      1.0000 0.64790  0.18270  0.52610  Biso   1.000  F
  F22      1.0000 0.46820  0.04960  0.65060  Biso   1.000  F
  O11      1.0000 0.65400  0.16850  0.34010  Biso   1.000  O
  C21      1.0000 0.56930  0.08780  0.51190  Biso   1.000  C
  C22      1.0000 0.47470  0.01880  0.57370  Biso   1.000  C
  F23      1.0000 0.53480  0.35210  0.52610  Biso   1.000  F
  F24      1.0000 0.58140  0.53180  0.65060  Biso   1.000  F
  O12      1.0000 0.51450  0.34600  0.34010  Biso   1.000  O
  C23      1.0000 0.51850  0.43070  0.51190  Biso   1.000  C
  C24      1.0000 0.54410  0.52530  0.57370  Biso   1.000  C
  F25      1.0000 0.46520  0.81730  0.02610  Biso   1.000  F
  F26      1.0000 0.41860  0.95040  0.15060  Biso   1.000  F
  O13      1.0000 0.48550  0.83150  0.84010  Biso   1.000  O
  C25      1.0000 0.48150  0.91220  0.01190  Biso   1.000  C
  C26      1.0000 0.45590  0.98120  0.07370  Biso   1.000  C
  F27      1.0000 0.18270  0.64790  0.02610  Biso   1.000  F
  F28      1.0000 0.04960  0.46820  0.15060  Biso   1.000  F
  O14      1.0000 0.16850  0.65400  0.84010  Biso   1.000  O
  C27      1.0000 0.08780  0.56930  0.01190  Biso   1.000  C
  C28      1.0000 0.01880  0.47470  0.07370  Biso   1.000  C
  F29      1.0000 0.35210  0.53480  0.02610  Biso   1.000  F
  F30      1.0000 0.53180  0.58140  0.15060  Biso   1.000  F
  O15      1.0000 0.34600  0.51450  0.84010  Biso   1.000  O
  C29      1.0000 0.43070  0.51850  0.01190  Biso   1.000  C
  C30      1.0000 0.52530  0.54410  0.07370  Biso   1.000  C
  F31      1.0000 0.53480  0.18270  0.52610  Biso   1.000  F
  F32      1.0000 0.58140  0.04960  0.65060  Biso   1.000  F
  O16      1.0000 0.51450  0.16850  0.34010  Biso   1.000  O
  C31      1.0000 0.51850  0.08780  0.51190  Biso   1.000  C
  C32      1.0000 0.54410  0.01880  0.57370  Biso   1.000  C
  F33      1.0000 0.81730  0.35210  0.52610  Biso   1.000  F
  F34      1.0000 0.95040  0.53180  0.65060  Biso   1.000  F
  O17      1.0000 0.83150  0.34600  0.34010  Biso   1.000  O
  C33      1.0000 0.91220  0.43070  0.51190  Biso   1.000  C
  C34      1.0000 0.98120  0.52530  0.57370  Biso   1.000  C
  F35      1.0000 0.64790  0.46520  0.52610  Biso   1.000  F
  F36      1.0000 0.46820  0.41860  0.65060  Biso   1.000  F
  O18      1.0000 0.65400  0.48550  0.34010  Biso   1.000  O
  C35      1.0000 0.56930  0.48150  0.51190  Biso   1.000  C
  C36      1.0000 0.47470  0.45590  0.57370  Biso   1.000  C
  F37      1.0000 0.81730  0.46520  0.97390  Biso   1.000  F
  F38      1.0000 0.95040  0.41860  0.84940  Biso   1.000  F
  O19      1.0000 0.83150  0.48550  0.15990  Biso   1.000  O
  C37      1.0000 0.91220  0.48150  0.98810  Biso   1.000  C
  C38      1.0000 0.98120  0.45590  0.92630  Biso   1.000  C
  F39      1.0000 0.64790  0.18270  0.97390  Biso   1.000  F
  F40      1.0000 0.46820  0.04960  0.84940  Biso   1.000  F
  O20      1.0000 0.65400  0.16850  0.15990  Biso   1.000  O
  C39      1.0000 0.56930  0.08780  0.98810  Biso   1.000  C
  C40      1.0000 0.47470  0.01880  0.92630  Biso   1.000  C
  F41      1.0000 0.53480  0.35210  0.97390  Biso   1.000  F
  F42      1.0000 0.58140  0.53180  0.84940  Biso   1.000  F
  O21      1.0000 0.51450  0.34600  0.15990  Biso   1.000  O
  C41      1.0000 0.51850  0.43070  0.98810  Biso   1.000  C
  C42      1.0000 0.54410  0.52530  0.92630  Biso   1.000  C
  F43      1.0000 0.18270  0.53480  0.47390  Biso   1.000  F
  F44      1.0000 0.04960  0.58140  0.34940  Biso   1.000  F
  O22      1.0000 0.16850  0.51450  0.65990  Biso   1.000  O
  C43      1.0000 0.08780  0.51850  0.48810  Biso   1.000  C
  C44      1.0000 0.01880  0.54410  0.42630  Biso   1.000  C
  F45      1.0000 0.35210  0.81730  0.47390  Biso   1.000  F
  F46      1.0000 0.53180  0.95040  0.34940  Biso   1.000  F
  O23      1.0000 0.34600  0.83150  0.65990  Biso   1.000  O
  C45      1.0000 0.43070  0.91220  0.48810  Biso   1.000  C
  C46      1.0000 0.52530  0.98120  0.42630  Biso   1.000  C
  F47      1.0000 0.46520  0.64790  0.47390  Biso   1.000  F
  F48      1.0000 0.41860  0.46820  0.34940  Biso   1.000  F
  O24      1.0000 0.48550  0.65400  0.65990  Biso   1.000  O
  C47      1.0000 0.48150  0.56930  0.48810  Biso   1.000  C
  C48      1.0000 0.45590  0.47470  0.42630  Biso   1.000  C
  Fe1      1.0000 0.52879  0.26439  0.25000  Biso   1.000  Fe
  Fe2      1.0000 0.73560  0.26439  0.25000  Biso   1.000  Fe
  Fe3      1.0000 0.73560  0.47121  0.25000  Biso   1.000  Fe
  Fe4      1.0000 0.47121  0.73560  0.75000  Biso   1.000  Fe
  Fe5      1.0000 0.26440  0.73560  0.75000  Biso   1.000  Fe
  Fe6      1.0000 0.26440  0.52879  0.75000  Biso   1.000  Fe
  O25      1.0000 0.66667  0.33333  0.25000  Biso   1.000  O
  O26      1.0000 0.33333  0.66667  0.75000  Biso   1.000  O
  C49      1.0000 0.57045  0.14090  0.13670  Biso   1.000  C
  C50      1.0000 0.53420  0.06840  0.06580  Biso   1.000  C
  C51      1.0000 0.85910  0.42955  0.13670  Biso   1.000  C
  C52      1.0000 0.93160  0.46580  0.06580  Biso   1.000  C
  C53      1.0000 0.57045  0.42955  0.13670  Biso   1.000  C
  C54      1.0000 0.53420  0.46580  0.06580  Biso   1.000  C
  C55      1.0000 0.42955  0.85910  0.63670  Biso   1.000  C
  C56      1.0000 0.46580  0.93160  0.56580  Biso   1.000  C
  C57      1.0000 0.14090  0.57045  0.63670  Biso   1.000  C
  C58      1.0000 0.06840  0.53420  0.56580  Biso   1.000  C
  C59      1.0000 0.42955  0.57045  0.63670  Biso   1.000  C
  C60      1.0000 0.46580  0.53420  0.56580  Biso   1.000  C
  C61      1.0000 0.14090  0.57045  0.86330  Biso   1.000  C
  C62      1.0000 0.06840  0.53420  0.93420  Biso   1.000  C
  C63      1.0000 0.42955  0.85910  0.86330  Biso   1.000  C
  C64      1.0000 0.46580  0.93160  0.93420  Biso   1.000  C
  C65      1.0000 0.42955  0.57045  0.86330  Biso   1.000  C
  C66      1.0000 0.46580  0.53420  0.93420  Biso   1.000  C
  C67      1.0000 0.85910  0.42955  0.36330  Biso   1.000  C
  C68      1.0000 0.93160  0.46580  0.43420  Biso   1.000  C
  C69      1.0000 0.57045  0.14090  0.36330  Biso   1.000  C
  C70      1.0000 0.53420  0.06840  0.43420  Biso   1.000  C
  C71      1.0000 0.57045  0.42955  0.36330  Biso   1.000  C
  C72      1.0000 0.53420  0.46580  0.43420  Biso   1.000  C
