data_image0
_cell_length_a       16.201
_cell_length_b       16.201
_cell_length_c       6.9121
_cell_angle_alpha    90
_cell_angle_beta     90
_cell_angle_gamma    90

_symmetry_space_group_name_H-M    "P 1"
_symmetry_int_tables_number       1

loop_
  _symmetry_equiv_pos_as_xyz
  'x, y, z'

loop_
  _atom_site_label
  _atom_site_occupancy
  _atom_site_fract_x
  _atom_site_fract_y
  _atom_site_fract_z
  _atom_site_thermal_displace_type
  _atom_site_B_iso_or_equiv
  _atom_site_type_symbol
  C1       1.0000 0.75800  0.45740  0.29830  Biso   1.000  C
  C2       1.0000 0.78710  0.39630  0.15390  Biso   1.000  C
  O1       1.0000 0.76710  0.32230  0.18500  Biso   1.000  O
  C3       1.0000 0.25800  0.95740  0.79830  Biso   1.000  C
  C4       1.0000 0.28710  0.89630  0.65390  Biso   1.000  C
  O2       1.0000 0.26710  0.82230  0.68500  Biso   1.000  O
  C5       1.0000 0.24200  0.54260  0.29830  Biso   1.000  C
  C6       1.0000 0.21290  0.60370  0.15390  Biso   1.000  C
  O3       1.0000 0.23290  0.67770  0.18500  Biso   1.000  O
  C7       1.0000 0.74200  0.04260  0.79830  Biso   1.000  C
  C8       1.0000 0.71290  0.10370  0.65390  Biso   1.000  C
  O4       1.0000 0.73290  0.17770  0.68500  Biso   1.000  O
  C9       1.0000 0.54260  0.75800  0.29830  Biso   1.000  C
  C10      1.0000 0.60370  0.78710  0.15390  Biso   1.000  C
  O5       1.0000 0.67770  0.76710  0.18500  Biso   1.000  O
  C11      1.0000 0.04260  0.25800  0.79830  Biso   1.000  C
  C12      1.0000 0.10370  0.28710  0.65390  Biso   1.000  C
  O6       1.0000 0.17770  0.26710  0.68500  Biso   1.000  O
  C13      1.0000 0.45740  0.24200  0.29830  Biso   1.000  C
  C14      1.0000 0.39630  0.21290  0.15390  Biso   1.000  C
  O7       1.0000 0.32230  0.23290  0.18500  Biso   1.000  O
  C15      1.0000 0.95740  0.74200  0.79830  Biso   1.000  C
  C16      1.0000 0.89630  0.71290  0.65390  Biso   1.000  C
  O8       1.0000 0.82230  0.73290  0.68500  Biso   1.000  O
  C17      1.0000 0.24200  0.45740  0.70170  Biso   1.000  C
  C18      1.0000 0.21290  0.39630  0.84610  Biso   1.000  C
  O9       1.0000 0.23290  0.32230  0.81500  Biso   1.000  O
  C19      1.0000 0.74200  0.95740  0.20170  Biso   1.000  C
  C20      1.0000 0.71290  0.89630  0.34610  Biso   1.000  C
  O10      1.0000 0.73290  0.82230  0.31500  Biso   1.000  O
  C21      1.0000 0.75800  0.54260  0.70170  Biso   1.000  C
  C22      1.0000 0.78710  0.60370  0.84610  Biso   1.000  C
  O11      1.0000 0.76710  0.67770  0.81500  Biso   1.000  O
  C23      1.0000 0.25800  0.04260  0.20170  Biso   1.000  C
  C24      1.0000 0.28710  0.10370  0.34610  Biso   1.000  C
  O12      1.0000 0.26710  0.17770  0.31500  Biso   1.000  O
  C25      1.0000 0.45740  0.75800  0.70170  Biso   1.000  C
  C26      1.0000 0.39630  0.78710  0.84610  Biso   1.000  C
  O13      1.0000 0.32230  0.76710  0.81500  Biso   1.000  O
  C27      1.0000 0.95740  0.25800  0.20170  Biso   1.000  C
  C28      1.0000 0.89630  0.28710  0.34610  Biso   1.000  C
  O14      1.0000 0.82230  0.26710  0.31500  Biso   1.000  O
  C29      1.0000 0.54260  0.24200  0.70170  Biso   1.000  C
  C30      1.0000 0.60370  0.21290  0.84610  Biso   1.000  C
  O15      1.0000 0.67770  0.23290  0.81500  Biso   1.000  O
  C31      1.0000 0.04260  0.74200  0.20170  Biso   1.000  C
  C32      1.0000 0.10370  0.71290  0.34610  Biso   1.000  C
  O16      1.0000 0.17770  0.73290  0.31500  Biso   1.000  O
  C33      1.0000 0.24200  0.54260  0.70170  Biso   1.000  C
  C34      1.0000 0.21290  0.60370  0.84610  Biso   1.000  C
  O17      1.0000 0.23290  0.67770  0.81500  Biso   1.000  O
  C35      1.0000 0.74200  0.04260  0.20170  Biso   1.000  C
  C36      1.0000 0.71290  0.10370  0.34610  Biso   1.000  C
  O18      1.0000 0.73290  0.17770  0.31500  Biso   1.000  O
  C37      1.0000 0.75800  0.45740  0.70170  Biso   1.000  C
  C38      1.0000 0.78710  0.39630  0.84610  Biso   1.000  C
  O19      1.0000 0.76710  0.32230  0.81500  Biso   1.000  O
  C39      1.0000 0.25800  0.95740  0.20170  Biso   1.000  C
  C40      1.0000 0.28710  0.89630  0.34610  Biso   1.000  C
  O20      1.0000 0.26710  0.82230  0.31500  Biso   1.000  O
  C41      1.0000 0.45740  0.24200  0.70170  Biso   1.000  C
  C42      1.0000 0.39630  0.21290  0.84610  Biso   1.000  C
  O21      1.0000 0.32230  0.23290  0.81500  Biso   1.000  O
  C43      1.0000 0.95740  0.74200  0.20170  Biso   1.000  C
  C44      1.0000 0.89630  0.71290  0.34610  Biso   1.000  C
  O22      1.0000 0.82230  0.73290  0.31500  Biso   1.000  O
  C45      1.0000 0.54260  0.75800  0.70170  Biso   1.000  C
  C46      1.0000 0.60370  0.78710  0.84610  Biso   1.000  C
  O23      1.0000 0.67770  0.76710  0.81500  Biso   1.000  O
  C47      1.0000 0.04260  0.25800  0.20170  Biso   1.000  C
  C48      1.0000 0.10370  0.28710  0.34610  Biso   1.000  C
  O24      1.0000 0.17770  0.26710  0.31500  Biso   1.000  O
  C49      1.0000 0.75800  0.54260  0.29830  Biso   1.000  C
  C50      1.0000 0.78710  0.60370  0.15390  Biso   1.000  C
  O25      1.0000 0.76710  0.67770  0.18500  Biso   1.000  O
  C51      1.0000 0.25800  0.04260  0.79830  Biso   1.000  C
  C52      1.0000 0.28710  0.10370  0.65390  Biso   1.000  C
  O26      1.0000 0.26710  0.17770  0.68500  Biso   1.000  O
  C53      1.0000 0.24200  0.45740  0.29830  Biso   1.000  C
  C54      1.0000 0.21290  0.39630  0.15390  Biso   1.000  C
  O27      1.0000 0.23290  0.32230  0.18500  Biso   1.000  O
  C55      1.0000 0.74200  0.95740  0.79830  Biso   1.000  C
  C56      1.0000 0.71290  0.89630  0.65390  Biso   1.000  C
  O28      1.0000 0.73290  0.82230  0.68500  Biso   1.000  O
  C57      1.0000 0.54260  0.24200  0.29830  Biso   1.000  C
  C58      1.0000 0.60370  0.21290  0.15390  Biso   1.000  C
  O29      1.0000 0.67770  0.23290  0.18500  Biso   1.000  O
  C59      1.0000 0.04260  0.74200  0.79830  Biso   1.000  C
  C60      1.0000 0.10370  0.71290  0.65390  Biso   1.000  C
  O30      1.0000 0.17770  0.73290  0.68500  Biso   1.000  O
  C61      1.0000 0.45740  0.75800  0.29830  Biso   1.000  C
  C62      1.0000 0.39630  0.78710  0.15390  Biso   1.000  C
  O31      1.0000 0.32230  0.76710  0.18500  Biso   1.000  O
  C63      1.0000 0.95740  0.25800  0.79830  Biso   1.000  C
  C64      1.0000 0.89630  0.28710  0.65390  Biso   1.000  C
  O32      1.0000 0.82230  0.26710  0.68500  Biso   1.000  O
  Cd1      1.0000 0.70763  0.29237  0.50000  Biso   1.000  Cd
  Cd2      1.0000 0.20763  0.79237  0.00000  Biso   1.000  Cd
  Cd3      1.0000 0.29237  0.70763  0.50000  Biso   1.000  Cd
  Cd4      1.0000 0.79237  0.20763  0.00000  Biso   1.000  Cd
  Cd5      1.0000 0.70763  0.70763  0.50000  Biso   1.000  Cd
  Cd6      1.0000 0.20763  0.20763  0.00000  Biso   1.000  Cd
  Cd7      1.0000 0.29237  0.29237  0.50000  Biso   1.000  Cd
  Cd8      1.0000 0.79237  0.79237  0.00000  Biso   1.000  Cd
  C65      1.0000 0.70200  0.50000  0.56000  Biso   1.000  C
  C66      1.0000 0.65980  0.50000  0.75400  Biso   1.000  C
  C67      1.0000 0.20200  0.00000  0.06000  Biso   1.000  C
  C68      1.0000 0.15980  0.00000  0.25400  Biso   1.000  C
  C69      1.0000 0.29800  0.50000  0.56000  Biso   1.000  C
  C70      1.0000 0.34020  0.50000  0.75400  Biso   1.000  C
  C71      1.0000 0.79800  0.00000  0.06000  Biso   1.000  C
  C72      1.0000 0.84020  0.00000  0.25400  Biso   1.000  C
  C73      1.0000 0.50000  0.70200  0.56000  Biso   1.000  C
  C74      1.0000 0.50000  0.65980  0.75400  Biso   1.000  C
  C75      1.0000 0.00000  0.20200  0.06000  Biso   1.000  C
  C76      1.0000 0.00000  0.15980  0.25400  Biso   1.000  C
  C77      1.0000 0.50000  0.29800  0.56000  Biso   1.000  C
  C78      1.0000 0.50000  0.34020  0.75400  Biso   1.000  C
  C79      1.0000 0.00000  0.79800  0.06000  Biso   1.000  C
  C80      1.0000 0.00000  0.84020  0.25400  Biso   1.000  C
  C81      1.0000 0.29800  0.50000  0.44000  Biso   1.000  C
  C82      1.0000 0.34020  0.50000  0.24600  Biso   1.000  C
  C83      1.0000 0.79800  0.00000  0.94000  Biso   1.000  C
  C84      1.0000 0.84020  0.00000  0.74600  Biso   1.000  C
  C85      1.0000 0.70200  0.50000  0.44000  Biso   1.000  C
  C86      1.0000 0.65980  0.50000  0.24600  Biso   1.000  C
  C87      1.0000 0.20200  0.00000  0.94000  Biso   1.000  C
  C88      1.0000 0.15980  0.00000  0.74600  Biso   1.000  C
  C89      1.0000 0.50000  0.70200  0.44000  Biso   1.000  C
  C90      1.0000 0.50000  0.65980  0.24600  Biso   1.000  C
  C91      1.0000 0.00000  0.20200  0.94000  Biso   1.000  C
  C92      1.0000 0.00000  0.15980  0.74600  Biso   1.000  C
  C93      1.0000 0.50000  0.29800  0.44000  Biso   1.000  C
  C94      1.0000 0.50000  0.34020  0.24600  Biso   1.000  C
  C95      1.0000 0.00000  0.79800  0.94000  Biso   1.000  C
  C96      1.0000 0.00000  0.84020  0.74600  Biso   1.000  C
  N1       1.0000 0.72350  0.43140  0.50000  Biso   1.000  N
  N2       1.0000 0.22350  0.93140  0.00000  Biso   1.000  N
  N3       1.0000 0.27650  0.56860  0.50000  Biso   1.000  N
  N4       1.0000 0.77650  0.06860  0.00000  Biso   1.000  N
  N5       1.0000 0.56860  0.72350  0.50000  Biso   1.000  N
  N6       1.0000 0.06860  0.22350  0.00000  Biso   1.000  N
  N7       1.0000 0.43140  0.27650  0.50000  Biso   1.000  N
  N8       1.0000 0.93140  0.77650  0.00000  Biso   1.000  N
  N9       1.0000 0.27650  0.43140  0.50000  Biso   1.000  N
  N10      1.0000 0.77650  0.93140  0.00000  Biso   1.000  N
  N11      1.0000 0.72350  0.56860  0.50000  Biso   1.000  N
  N12      1.0000 0.22350  0.06860  0.00000  Biso   1.000  N
  N13      1.0000 0.43140  0.72350  0.50000  Biso   1.000  N
  N14      1.0000 0.93140  0.22350  0.00000  Biso   1.000  N
  N15      1.0000 0.56860  0.27650  0.50000  Biso   1.000  N
  N16      1.0000 0.06860  0.77650  0.00000  Biso   1.000  N
  O33      1.0000 0.82630  0.41980  0.00000  Biso   1.000  O
  O34      1.0000 0.32630  0.91980  0.50000  Biso   1.000  O
  O35      1.0000 0.17370  0.58020  0.00000  Biso   1.000  O
  O36      1.0000 0.67370  0.08020  0.50000  Biso   1.000  O
  O37      1.0000 0.58020  0.82630  0.00000  Biso   1.000  O
  O38      1.0000 0.08020  0.32630  0.50000  Biso   1.000  O
  O39      1.0000 0.41980  0.17370  0.00000  Biso   1.000  O
  O40      1.0000 0.91980  0.67370  0.50000  Biso   1.000  O
  O41      1.0000 0.17370  0.41980  0.00000  Biso   1.000  O
  O42      1.0000 0.67370  0.91980  0.50000  Biso   1.000  O
  O43      1.0000 0.82630  0.58020  0.00000  Biso   1.000  O
  O44      1.0000 0.32630  0.08020  0.50000  Biso   1.000  O
  O45      1.0000 0.41980  0.82630  0.00000  Biso   1.000  O
  O46      1.0000 0.91980  0.32630  0.50000  Biso   1.000  O
  O47      1.0000 0.58020  0.17370  0.00000  Biso   1.000  O
  O48      1.0000 0.08020  0.67370  0.50000  Biso   1.000  O
