data_image0
_cell_length_a       19.7205
_cell_length_b       19.7205
_cell_length_c       22.9816
_cell_angle_alpha    90
_cell_angle_beta     90
_cell_angle_gamma    120

_symmetry_space_group_name_H-M    "P 1"
_symmetry_int_tables_number       1

loop_
  _symmetry_equiv_pos_as_xyz
  'x, y, z'

loop_
  _atom_site_label
  _atom_site_occupancy
  _atom_site_fract_x
  _atom_site_fract_y
  _atom_site_fract_z
  _atom_site_thermal_displace_type
  _atom_site_B_iso_or_equiv
  _atom_site_type_symbol
  Cd1      1.0000 0.54984  0.86636  0.10229  Biso   1.000  Cd
  Cd2      1.0000 0.53286  0.91442  0.93812  Biso   1.000  Cd
  S1       1.0000 0.49970  0.79964  0.00374  Biso   1.000  S
  S2       1.0000 0.67407  0.99724  0.08359  Biso   1.000  S
  S3       1.0000 0.44629  0.89020  0.14813  Biso   1.000  S
  C1       1.0000 0.55830  0.76080  0.98420  Biso   1.000  C
  C2       1.0000 0.52070  0.68010  0.97700  Biso   1.000  C
  C3       1.0000 0.56090  0.64560  0.95300  Biso   1.000  C
  C4       1.0000 0.63860  0.69180  0.93620  Biso   1.000  C
  C5       1.0000 0.67610  0.77260  0.94330  Biso   1.000  C
  C6       1.0000 0.63600  0.80710  0.96730  Biso   1.000  C
  C7       1.0000 0.73860  0.87660  0.21960  Biso   1.000  C
  C8       1.0000 0.80830  0.91060  0.23100  Biso   1.000  C
  C9       1.0000 0.85090  0.93260  0.18980  Biso   1.000  C
  C10      1.0000 0.71860  0.03400  0.15200  Biso   1.000  C
  C11      1.0000 0.79970  0.07080  0.15530  Biso   1.000  C
  C12      1.0000 0.83750  0.10420  0.20740  Biso   1.000  C
  C13      1.0000 0.79420  0.10070  0.25620  Biso   1.000  C
  C14      1.0000 0.71300  0.06390  0.25280  Biso   1.000  C
  C15      1.0000 0.67520  0.03060  0.20070  Biso   1.000  C
  C16      1.0000 0.90960  0.14310  0.22330  Biso   1.000  C
  C17      1.0000 0.37110  0.80320  0.18330  Biso   1.000  C
  C18      1.0000 0.29220  0.77780  0.17480  Biso   1.000  C
  C19      1.0000 0.23560  0.71160  0.20360  Biso   1.000  C
  C20      1.0000 0.25790  0.67090  0.24100  Biso   1.000  C
  C21      1.0000 0.33680  0.69630  0.24960  Biso   1.000  C
  C22      1.0000 0.39340  0.76250  0.22080  Biso   1.000  C
  C23      1.0000 0.14510  0.68060  0.19210  Biso   1.000  C
  S4       1.0000 0.60250  0.77850  0.14850  Biso   1.000  S
  Cd3      1.0000 0.13364  0.68348  0.76896  Biso   1.000  Cd
  Cd4      1.0000 0.08558  0.61844  0.60479  Biso   1.000  Cd
  S5       1.0000 0.20036  0.70006  0.67041  Biso   1.000  S
  S6       1.0000 0.00276  0.67683  0.75026  Biso   1.000  S
  S7       1.0000 0.10980  0.55609  0.81480  Biso   1.000  S
  C24      1.0000 0.23920  0.79750  0.65087  Biso   1.000  C
  C25      1.0000 0.31990  0.84060  0.64367  Biso   1.000  C
  C26      1.0000 0.35440  0.91530  0.61967  Biso   1.000  C
  C27      1.0000 0.30820  0.94680  0.60287  Biso   1.000  C
  C28      1.0000 0.22740  0.90350  0.60997  Biso   1.000  C
  C29      1.0000 0.19290  0.82890  0.63397  Biso   1.000  C
  C30      1.0000 0.12340  0.86200  0.88627  Biso   1.000  C
  C31      1.0000 0.08940  0.89770  0.89767  Biso   1.000  C
  C32      1.0000 0.06740  0.91830  0.85647  Biso   1.000  C
  C33      1.0000 0.96600  0.68460  0.81867  Biso   1.000  C
  C34      1.0000 0.92920  0.72890  0.82197  Biso   1.000  C
  C35      1.0000 0.89580  0.73330  0.87407  Biso   1.000  C
  C36      1.0000 0.89930  0.69350  0.92287  Biso   1.000  C
  C37      1.0000 0.93610  0.64910  0.91947  Biso   1.000  C
  C38      1.0000 0.96940  0.64460  0.86737  Biso   1.000  C
  C39      1.0000 0.85690  0.76650  0.88997  Biso   1.000  C
  C40      1.0000 0.19680  0.56790  0.84997  Biso   1.000  C
  C41      1.0000 0.22220  0.51440  0.84147  Biso   1.000  C
  C42      1.0000 0.28840  0.52400  0.87027  Biso   1.000  C
  C43      1.0000 0.32910  0.58700  0.90767  Biso   1.000  C
  C44      1.0000 0.30370  0.64050  0.91627  Biso   1.000  C
  C45      1.0000 0.23750  0.63090  0.88747  Biso   1.000  C
  C46      1.0000 0.31940  0.46450  0.85877  Biso   1.000  C
  S8       1.0000 0.22150  0.82400  0.81517  Biso   1.000  S
  Cd5      1.0000 0.31652  0.45016  0.43562  Biso   1.000  Cd
  Cd6      1.0000 0.38156  0.46714  0.27145  Biso   1.000  Cd
  S9       1.0000 0.29994  0.50030  0.33707  Biso   1.000  S
  S10      1.0000 0.32317  0.32593  0.41692  Biso   1.000  S
  S11      1.0000 0.44391  0.55371  0.48146  Biso   1.000  S
  C47      1.0000 0.20250  0.44170  0.31753  Biso   1.000  C
  C48      1.0000 0.15940  0.47930  0.31033  Biso   1.000  C
  C49      1.0000 0.08470  0.43910  0.28633  Biso   1.000  C
  C50      1.0000 0.05320  0.36140  0.26953  Biso   1.000  C
  C51      1.0000 0.09650  0.32390  0.27663  Biso   1.000  C
  C52      1.0000 0.17110  0.36400  0.30063  Biso   1.000  C
  C53      1.0000 0.13800  0.26140  0.55293  Biso   1.000  C
  C54      1.0000 0.10230  0.19170  0.56433  Biso   1.000  C
  C55      1.0000 0.08170  0.14910  0.52313  Biso   1.000  C
  C56      1.0000 0.31540  0.28140  0.48533  Biso   1.000  C
  C57      1.0000 0.27110  0.20030  0.48863  Biso   1.000  C
  C58      1.0000 0.26670  0.16250  0.54073  Biso   1.000  C
  C59      1.0000 0.30650  0.20580  0.58953  Biso   1.000  C
  C60      1.0000 0.35090  0.28700  0.58613  Biso   1.000  C
  C61      1.0000 0.35540  0.32480  0.53403  Biso   1.000  C
  C62      1.0000 0.23350  0.09040  0.55663  Biso   1.000  C
  C63      1.0000 0.43210  0.62890  0.51663  Biso   1.000  C
  C64      1.0000 0.48560  0.70780  0.50813  Biso   1.000  C
  C65      1.0000 0.47600  0.76440  0.53693  Biso   1.000  C
  C66      1.0000 0.41300  0.74210  0.57433  Biso   1.000  C
  C67      1.0000 0.35950  0.66320  0.58293  Biso   1.000  C
  C68      1.0000 0.36910  0.60660  0.55413  Biso   1.000  C
  C69      1.0000 0.53550  0.85490  0.52543  Biso   1.000  C
  S12      1.0000 0.17600  0.39750  0.48183  Biso   1.000  S
  Cd7      1.0000 0.45016  0.13364  0.10229  Biso   1.000  Cd
  Cd8      1.0000 0.46714  0.08558  0.93812  Biso   1.000  Cd
  S13      1.0000 0.50030  0.20036  0.00374  Biso   1.000  S
  S14      1.0000 0.32593  0.00276  0.08359  Biso   1.000  S
  S15      1.0000 0.55371  0.10980  0.14813  Biso   1.000  S
  C70      1.0000 0.44170  0.23920  0.98420  Biso   1.000  C
  C71      1.0000 0.47930  0.31990  0.97700  Biso   1.000  C
  C72      1.0000 0.43910  0.35440  0.95300  Biso   1.000  C
  C73      1.0000 0.36140  0.30820  0.93620  Biso   1.000  C
  C74      1.0000 0.32390  0.22740  0.94330  Biso   1.000  C
  C75      1.0000 0.36400  0.19290  0.96730  Biso   1.000  C
  C76      1.0000 0.26140  0.12340  0.21960  Biso   1.000  C
  C77      1.0000 0.19170  0.08940  0.23100  Biso   1.000  C
  C78      1.0000 0.14910  0.06740  0.18980  Biso   1.000  C
  C79      1.0000 0.28140  0.96600  0.15200  Biso   1.000  C
  C80      1.0000 0.20030  0.92920  0.15530  Biso   1.000  C
  C81      1.0000 0.16250  0.89580  0.20740  Biso   1.000  C
  C82      1.0000 0.20580  0.89930  0.25620  Biso   1.000  C
  C83      1.0000 0.28700  0.93610  0.25280  Biso   1.000  C
  C84      1.0000 0.32480  0.96940  0.20070  Biso   1.000  C
  C85      1.0000 0.09040  0.85690  0.22330  Biso   1.000  C
  C86      1.0000 0.62890  0.19680  0.18330  Biso   1.000  C
  C87      1.0000 0.70780  0.22220  0.17480  Biso   1.000  C
  C88      1.0000 0.76440  0.28840  0.20360  Biso   1.000  C
  C89      1.0000 0.74210  0.32910  0.24100  Biso   1.000  C
  C90      1.0000 0.66320  0.30370  0.24960  Biso   1.000  C
  C91      1.0000 0.60660  0.23750  0.22080  Biso   1.000  C
  C92      1.0000 0.85490  0.31940  0.19210  Biso   1.000  C
  S16      1.0000 0.39750  0.22150  0.14850  Biso   1.000  S
  Cd9      1.0000 0.86636  0.31652  0.76896  Biso   1.000  Cd
  Cd10     1.0000 0.91442  0.38156  0.60479  Biso   1.000  Cd
  S17      1.0000 0.79964  0.29994  0.67041  Biso   1.000  S
  S18      1.0000 0.99724  0.32317  0.75026  Biso   1.000  S
  S19      1.0000 0.89020  0.44391  0.81480  Biso   1.000  S
  C93      1.0000 0.76080  0.20250  0.65087  Biso   1.000  C
  C94      1.0000 0.68010  0.15940  0.64367  Biso   1.000  C
  C95      1.0000 0.64560  0.08470  0.61967  Biso   1.000  C
  C96      1.0000 0.69180  0.05320  0.60287  Biso   1.000  C
  C97      1.0000 0.77260  0.09650  0.60997  Biso   1.000  C
  C98      1.0000 0.80710  0.17110  0.63397  Biso   1.000  C
  C99      1.0000 0.87660  0.13800  0.88627  Biso   1.000  C
  C100     1.0000 0.91060  0.10230  0.89767  Biso   1.000  C
  C101     1.0000 0.93260  0.08170  0.85647  Biso   1.000  C
  C102     1.0000 0.03400  0.31540  0.81867  Biso   1.000  C
  C103     1.0000 0.07080  0.27110  0.82197  Biso   1.000  C
  C104     1.0000 0.10420  0.26670  0.87407  Biso   1.000  C
  C105     1.0000 0.10070  0.30650  0.92287  Biso   1.000  C
  C106     1.0000 0.06390  0.35090  0.91947  Biso   1.000  C
  C107     1.0000 0.03060  0.35540  0.86737  Biso   1.000  C
  C108     1.0000 0.14310  0.23350  0.88997  Biso   1.000  C
  C109     1.0000 0.80320  0.43210  0.84997  Biso   1.000  C
  C110     1.0000 0.77780  0.48560  0.84147  Biso   1.000  C
  C111     1.0000 0.71160  0.47600  0.87027  Biso   1.000  C
  C112     1.0000 0.67090  0.41300  0.90767  Biso   1.000  C
  C113     1.0000 0.69630  0.35950  0.91627  Biso   1.000  C
  C114     1.0000 0.76250  0.36910  0.88747  Biso   1.000  C
  C115     1.0000 0.68060  0.53550  0.85877  Biso   1.000  C
  S20      1.0000 0.77850  0.17600  0.81517  Biso   1.000  S
  Cd11     1.0000 0.68348  0.54984  0.43562  Biso   1.000  Cd
  Cd12     1.0000 0.61844  0.53286  0.27145  Biso   1.000  Cd
  S21      1.0000 0.70006  0.49970  0.33707  Biso   1.000  S
  S22      1.0000 0.67683  0.67407  0.41692  Biso   1.000  S
  S23      1.0000 0.55609  0.44629  0.48146  Biso   1.000  S
  C116     1.0000 0.79750  0.55830  0.31753  Biso   1.000  C
  C117     1.0000 0.84060  0.52070  0.31033  Biso   1.000  C
  C118     1.0000 0.91530  0.56090  0.28633  Biso   1.000  C
  C119     1.0000 0.94680  0.63860  0.26953  Biso   1.000  C
  C120     1.0000 0.90350  0.67610  0.27663  Biso   1.000  C
  C121     1.0000 0.82890  0.63600  0.30063  Biso   1.000  C
  C122     1.0000 0.86200  0.73860  0.55293  Biso   1.000  C
  C123     1.0000 0.89770  0.80830  0.56433  Biso   1.000  C
  C124     1.0000 0.91830  0.85090  0.52313  Biso   1.000  C
  C125     1.0000 0.68460  0.71860  0.48533  Biso   1.000  C
  C126     1.0000 0.72890  0.79970  0.48863  Biso   1.000  C
  C127     1.0000 0.73330  0.83750  0.54073  Biso   1.000  C
  C128     1.0000 0.69350  0.79420  0.58953  Biso   1.000  C
  C129     1.0000 0.64910  0.71300  0.58613  Biso   1.000  C
  C130     1.0000 0.64460  0.67520  0.53403  Biso   1.000  C
  C131     1.0000 0.76650  0.90960  0.55663  Biso   1.000  C
  C132     1.0000 0.56790  0.37110  0.51663  Biso   1.000  C
  C133     1.0000 0.51440  0.29220  0.50813  Biso   1.000  C
  C134     1.0000 0.52400  0.23560  0.53693  Biso   1.000  C
  C135     1.0000 0.58700  0.25790  0.57433  Biso   1.000  C
  C136     1.0000 0.64050  0.33680  0.58293  Biso   1.000  C
  C137     1.0000 0.63090  0.39340  0.55413  Biso   1.000  C
  C138     1.0000 0.46450  0.14510  0.52543  Biso   1.000  C
  S24      1.0000 0.82400  0.60250  0.48183  Biso   1.000  S
  Cd13     1.0000 0.86636  0.54984  0.56438  Biso   1.000  Cd
  Cd14     1.0000 0.91442  0.53286  0.72855  Biso   1.000  Cd
  S25      1.0000 0.79964  0.49970  0.66293  Biso   1.000  S
  S26      1.0000 0.99724  0.67407  0.58308  Biso   1.000  S
  S27      1.0000 0.89020  0.44629  0.51854  Biso   1.000  S
  C139     1.0000 0.76080  0.55830  0.68247  Biso   1.000  C
  C140     1.0000 0.68010  0.52070  0.68967  Biso   1.000  C
  C141     1.0000 0.64560  0.56090  0.71367  Biso   1.000  C
  C142     1.0000 0.69180  0.63860  0.73047  Biso   1.000  C
  C143     1.0000 0.77260  0.67610  0.72337  Biso   1.000  C
  C144     1.0000 0.80710  0.63600  0.69937  Biso   1.000  C
  C145     1.0000 0.87660  0.73860  0.44707  Biso   1.000  C
  C146     1.0000 0.91060  0.80830  0.43567  Biso   1.000  C
  C147     1.0000 0.93260  0.85090  0.47687  Biso   1.000  C
  C148     1.0000 0.03400  0.71860  0.51467  Biso   1.000  C
  C149     1.0000 0.07080  0.79970  0.51137  Biso   1.000  C
  C150     1.0000 0.10420  0.83750  0.45927  Biso   1.000  C
  C151     1.0000 0.10070  0.79420  0.41047  Biso   1.000  C
  C152     1.0000 0.06390  0.71300  0.41387  Biso   1.000  C
  C153     1.0000 0.03060  0.67520  0.46597  Biso   1.000  C
  C154     1.0000 0.14310  0.90960  0.44337  Biso   1.000  C
  C155     1.0000 0.80320  0.37110  0.48337  Biso   1.000  C
  C156     1.0000 0.77780  0.29220  0.49187  Biso   1.000  C
  C157     1.0000 0.71160  0.23560  0.46307  Biso   1.000  C
  C158     1.0000 0.67090  0.25790  0.42567  Biso   1.000  C
  C159     1.0000 0.69630  0.33680  0.41707  Biso   1.000  C
  C160     1.0000 0.76250  0.39340  0.44587  Biso   1.000  C
  C161     1.0000 0.68060  0.14510  0.47457  Biso   1.000  C
  S28      1.0000 0.77850  0.60250  0.51817  Biso   1.000  S
  Cd15     1.0000 0.68348  0.13364  0.89771  Biso   1.000  Cd
  Cd16     1.0000 0.61844  0.08558  0.06188  Biso   1.000  Cd
  S29      1.0000 0.70006  0.20036  0.99626  Biso   1.000  S
  S30      1.0000 0.67683  0.00276  0.91641  Biso   1.000  S
  S31      1.0000 0.55609  0.10980  0.85187  Biso   1.000  S
  C162     1.0000 0.79750  0.23920  0.01580  Biso   1.000  C
  C163     1.0000 0.84060  0.31990  0.02300  Biso   1.000  C
  C164     1.0000 0.91530  0.35440  0.04700  Biso   1.000  C
  C165     1.0000 0.94680  0.30820  0.06380  Biso   1.000  C
  C166     1.0000 0.90350  0.22740  0.05670  Biso   1.000  C
  C167     1.0000 0.82890  0.19290  0.03270  Biso   1.000  C
  C168     1.0000 0.86200  0.12340  0.78040  Biso   1.000  C
  C169     1.0000 0.89770  0.08940  0.76900  Biso   1.000  C
  C170     1.0000 0.91830  0.06740  0.81020  Biso   1.000  C
  C171     1.0000 0.68460  0.96600  0.84800  Biso   1.000  C
  C172     1.0000 0.72890  0.92920  0.84470  Biso   1.000  C
  C173     1.0000 0.73330  0.89580  0.79260  Biso   1.000  C
  C174     1.0000 0.69350  0.89930  0.74380  Biso   1.000  C
  C175     1.0000 0.64910  0.93610  0.74720  Biso   1.000  C
  C176     1.0000 0.64460  0.96940  0.79930  Biso   1.000  C
  C177     1.0000 0.76650  0.85690  0.77670  Biso   1.000  C
  C178     1.0000 0.56790  0.19680  0.81670  Biso   1.000  C
  C179     1.0000 0.51440  0.22220  0.82520  Biso   1.000  C
  C180     1.0000 0.52400  0.28840  0.79640  Biso   1.000  C
  C181     1.0000 0.58700  0.32910  0.75900  Biso   1.000  C
  C182     1.0000 0.64050  0.30370  0.75040  Biso   1.000  C
  C183     1.0000 0.63090  0.23750  0.77920  Biso   1.000  C
  C184     1.0000 0.46450  0.31940  0.80790  Biso   1.000  C
  S32      1.0000 0.82400  0.22150  0.85150  Biso   1.000  S
  Cd17     1.0000 0.45016  0.31652  0.23104  Biso   1.000  Cd
  Cd18     1.0000 0.46714  0.38156  0.39521  Biso   1.000  Cd
  S33      1.0000 0.50030  0.29994  0.32959  Biso   1.000  S
  S34      1.0000 0.32593  0.32317  0.24974  Biso   1.000  S
  S35      1.0000 0.55371  0.44391  0.18520  Biso   1.000  S
  C185     1.0000 0.44170  0.20250  0.34913  Biso   1.000  C
  C186     1.0000 0.47930  0.15940  0.35633  Biso   1.000  C
  C187     1.0000 0.43910  0.08470  0.38033  Biso   1.000  C
  C188     1.0000 0.36140  0.05320  0.39713  Biso   1.000  C
  C189     1.0000 0.32390  0.09650  0.39003  Biso   1.000  C
  C190     1.0000 0.36400  0.17110  0.36603  Biso   1.000  C
  C191     1.0000 0.26140  0.13800  0.11373  Biso   1.000  C
  C192     1.0000 0.19170  0.10230  0.10233  Biso   1.000  C
  C193     1.0000 0.14910  0.08170  0.14353  Biso   1.000  C
  C194     1.0000 0.28140  0.31540  0.18133  Biso   1.000  C
  C195     1.0000 0.20030  0.27110  0.17803  Biso   1.000  C
  C196     1.0000 0.16250  0.26670  0.12593  Biso   1.000  C
  C197     1.0000 0.20580  0.30650  0.07713  Biso   1.000  C
  C198     1.0000 0.28700  0.35090  0.08053  Biso   1.000  C
  C199     1.0000 0.32480  0.35540  0.13263  Biso   1.000  C
  C200     1.0000 0.09040  0.23350  0.11003  Biso   1.000  C
  C201     1.0000 0.62890  0.43210  0.15003  Biso   1.000  C
  C202     1.0000 0.70780  0.48560  0.15853  Biso   1.000  C
  C203     1.0000 0.76440  0.47600  0.12973  Biso   1.000  C
  C204     1.0000 0.74210  0.41300  0.09233  Biso   1.000  C
  C205     1.0000 0.66320  0.35950  0.08373  Biso   1.000  C
  C206     1.0000 0.60660  0.36910  0.11253  Biso   1.000  C
  C207     1.0000 0.85490  0.53550  0.14123  Biso   1.000  C
  S36      1.0000 0.39750  0.17600  0.18483  Biso   1.000  S
  Cd19     1.0000 0.13364  0.45016  0.56438  Biso   1.000  Cd
  Cd20     1.0000 0.08558  0.46714  0.72855  Biso   1.000  Cd
  S37      1.0000 0.20036  0.50030  0.66293  Biso   1.000  S
  S38      1.0000 0.00276  0.32593  0.58308  Biso   1.000  S
  S39      1.0000 0.10980  0.55371  0.51854  Biso   1.000  S
  C208     1.0000 0.23920  0.44170  0.68247  Biso   1.000  C
  C209     1.0000 0.31990  0.47930  0.68967  Biso   1.000  C
  C210     1.0000 0.35440  0.43910  0.71367  Biso   1.000  C
  C211     1.0000 0.30820  0.36140  0.73047  Biso   1.000  C
  C212     1.0000 0.22740  0.32390  0.72337  Biso   1.000  C
  C213     1.0000 0.19290  0.36400  0.69937  Biso   1.000  C
  C214     1.0000 0.12340  0.26140  0.44707  Biso   1.000  C
  C215     1.0000 0.08940  0.19170  0.43567  Biso   1.000  C
  C216     1.0000 0.06740  0.14910  0.47687  Biso   1.000  C
  C217     1.0000 0.96600  0.28140  0.51467  Biso   1.000  C
  C218     1.0000 0.92920  0.20030  0.51137  Biso   1.000  C
  C219     1.0000 0.89580  0.16250  0.45927  Biso   1.000  C
  C220     1.0000 0.89930  0.20580  0.41047  Biso   1.000  C
  C221     1.0000 0.93610  0.28700  0.41387  Biso   1.000  C
  C222     1.0000 0.96940  0.32480  0.46597  Biso   1.000  C
  C223     1.0000 0.85690  0.09040  0.44337  Biso   1.000  C
  C224     1.0000 0.19680  0.62890  0.48337  Biso   1.000  C
  C225     1.0000 0.22220  0.70780  0.49187  Biso   1.000  C
  C226     1.0000 0.28840  0.76440  0.46307  Biso   1.000  C
  C227     1.0000 0.32910  0.74210  0.42567  Biso   1.000  C
  C228     1.0000 0.30370  0.66320  0.41707  Biso   1.000  C
  C229     1.0000 0.23750  0.60660  0.44587  Biso   1.000  C
  C230     1.0000 0.31940  0.85490  0.47457  Biso   1.000  C
  S40      1.0000 0.22150  0.39750  0.51817  Biso   1.000  S
  Cd21     1.0000 0.31652  0.86636  0.89771  Biso   1.000  Cd
  Cd22     1.0000 0.38156  0.91442  0.06188  Biso   1.000  Cd
  S41      1.0000 0.29994  0.79964  0.99626  Biso   1.000  S
  S42      1.0000 0.32317  0.99724  0.91641  Biso   1.000  S
  S43      1.0000 0.44391  0.89020  0.85187  Biso   1.000  S
  C231     1.0000 0.20250  0.76080  0.01580  Biso   1.000  C
  C232     1.0000 0.15940  0.68010  0.02300  Biso   1.000  C
  C233     1.0000 0.08470  0.64560  0.04700  Biso   1.000  C
  C234     1.0000 0.05320  0.69180  0.06380  Biso   1.000  C
  C235     1.0000 0.09650  0.77260  0.05670  Biso   1.000  C
  C236     1.0000 0.17110  0.80710  0.03270  Biso   1.000  C
  C237     1.0000 0.13800  0.87660  0.78040  Biso   1.000  C
  C238     1.0000 0.10230  0.91060  0.76900  Biso   1.000  C
  C239     1.0000 0.08170  0.93260  0.81020  Biso   1.000  C
  C240     1.0000 0.31540  0.03400  0.84800  Biso   1.000  C
  C241     1.0000 0.27110  0.07080  0.84470  Biso   1.000  C
  C242     1.0000 0.26670  0.10420  0.79260  Biso   1.000  C
  C243     1.0000 0.30650  0.10070  0.74380  Biso   1.000  C
  C244     1.0000 0.35090  0.06390  0.74720  Biso   1.000  C
  C245     1.0000 0.35540  0.03060  0.79930  Biso   1.000  C
  C246     1.0000 0.23350  0.14310  0.77670  Biso   1.000  C
  C247     1.0000 0.43210  0.80320  0.81670  Biso   1.000  C
  C248     1.0000 0.48560  0.77780  0.82520  Biso   1.000  C
  C249     1.0000 0.47600  0.71160  0.79640  Biso   1.000  C
  C250     1.0000 0.41300  0.67090  0.75900  Biso   1.000  C
  C251     1.0000 0.35950  0.69630  0.75040  Biso   1.000  C
  C252     1.0000 0.36910  0.76250  0.77920  Biso   1.000  C
  C253     1.0000 0.53550  0.68060  0.80790  Biso   1.000  C
  S44      1.0000 0.17600  0.77850  0.85150  Biso   1.000  S
  Cd23     1.0000 0.54984  0.68348  0.23104  Biso   1.000  Cd
  Cd24     1.0000 0.53286  0.61844  0.39521  Biso   1.000  Cd
  S45      1.0000 0.49970  0.70006  0.32959  Biso   1.000  S
  S46      1.0000 0.67407  0.67683  0.24974  Biso   1.000  S
  S47      1.0000 0.44629  0.55609  0.18520  Biso   1.000  S
  C254     1.0000 0.55830  0.79750  0.34913  Biso   1.000  C
  C255     1.0000 0.52070  0.84060  0.35633  Biso   1.000  C
  C256     1.0000 0.56090  0.91530  0.38033  Biso   1.000  C
  C257     1.0000 0.63860  0.94680  0.39713  Biso   1.000  C
  C258     1.0000 0.67610  0.90350  0.39003  Biso   1.000  C
  C259     1.0000 0.63600  0.82890  0.36603  Biso   1.000  C
  C260     1.0000 0.73860  0.86200  0.11373  Biso   1.000  C
  C261     1.0000 0.80830  0.89770  0.10233  Biso   1.000  C
  C262     1.0000 0.85090  0.91830  0.14353  Biso   1.000  C
  C263     1.0000 0.71860  0.68460  0.18133  Biso   1.000  C
  C264     1.0000 0.79970  0.72890  0.17803  Biso   1.000  C
  C265     1.0000 0.83750  0.73330  0.12593  Biso   1.000  C
  C266     1.0000 0.79420  0.69350  0.07713  Biso   1.000  C
  C267     1.0000 0.71300  0.64910  0.08053  Biso   1.000  C
  C268     1.0000 0.67520  0.64460  0.13263  Biso   1.000  C
  C269     1.0000 0.90960  0.76650  0.11003  Biso   1.000  C
  C270     1.0000 0.37110  0.56790  0.15003  Biso   1.000  C
  C271     1.0000 0.29220  0.51440  0.15853  Biso   1.000  C
  C272     1.0000 0.23560  0.52400  0.12973  Biso   1.000  C
  C273     1.0000 0.25790  0.58700  0.09233  Biso   1.000  C
  C274     1.0000 0.33680  0.64050  0.08373  Biso   1.000  C
  C275     1.0000 0.39340  0.63090  0.11253  Biso   1.000  C
  C276     1.0000 0.14510  0.46450  0.14123  Biso   1.000  C
  S48      1.0000 0.60250  0.82400  0.18483  Biso   1.000  S
  S49      1.0000 0.50000  0.00000  0.00000  Biso   1.000  S
  S50      1.0000 0.00000  0.50000  0.66667  Biso   1.000  S
  S51      1.0000 0.50000  0.50000  0.33333  Biso   1.000  S
  C277     1.0000 0.70130  0.85065  0.16667  Biso   1.000  C
  C278     1.0000 0.14935  0.85065  0.83333  Biso   1.000  C
  C279     1.0000 0.14935  0.29870  0.50000  Biso   1.000  C
  C280     1.0000 0.29870  0.14935  0.16667  Biso   1.000  C
  C281     1.0000 0.85065  0.14935  0.83333  Biso   1.000  C
  C282     1.0000 0.85065  0.70130  0.50000  Biso   1.000  C
