data_image0
_cell_length_a       17.709
_cell_length_b       17.709
_cell_length_c       11.523
_cell_angle_alpha    90
_cell_angle_beta     90
_cell_angle_gamma    90

_symmetry_space_group_name_H-M    "P 1"
_symmetry_int_tables_number       1

loop_
  _symmetry_equiv_pos_as_xyz
  'x, y, z'

loop_
  _atom_site_label
  _atom_site_occupancy
  _atom_site_fract_x
  _atom_site_fract_y
  _atom_site_fract_z
  _atom_site_thermal_displace_type
  _atom_site_B_iso_or_equiv
  _atom_site_type_symbol
  Zn1      1.0000 0.25976  0.71064  0.10032  Biso   1.000  Zn
  N1       1.0000 0.19380  0.66880  0.22730  Biso   1.000  N
  N2       1.0000 0.18890  0.69550  0.33970  Biso   1.000  N
  N3       1.0000 0.11700  0.59390  0.32480  Biso   1.000  N
  C1       1.0000 0.04670  0.71160  0.53100  Biso   1.000  C
  H1       1.0000 0.03340  0.73010  0.45550  Biso   1.000  H
  H2       1.0000 0.05700  0.75340  0.58160  Biso   1.000  H
  H3       1.0000 0.00560  0.68250  0.56190  Biso   1.000  H
  C2       1.0000 0.12300  0.65740  0.52080  Biso   1.000  C
  H4       1.0000 0.16470  0.68020  0.56260  Biso   1.000  H
  H5       1.0000 0.11310  0.60810  0.55420  Biso   1.000  H
  C3       1.0000 0.14260  0.64960  0.39450  Biso   1.000  C
  C4       1.0000 0.15100  0.60820  0.22350  Biso   1.000  C
  H6       1.0000 0.14490  0.57850  0.15760  Biso   1.000  H
  C5       1.0000 0.18640  0.60360  0.58840  Biso   1.000  C
  H7       1.0000 0.22210  0.58460  0.53290  Biso   1.000  H
  H8       1.0000 0.16130  0.56200  0.62540  Biso   1.000  H
  H9       1.0000 0.21240  0.63310  0.64570  Biso   1.000  H
  H10      1.0000 0.07210  0.63960  0.53580  Biso   1.000  H
  H11      1.0000 0.12700  0.70960  0.54570  Biso   1.000  H
  Zn2      1.0000 0.75976  0.21064  0.60032  Biso   1.000  Zn
  N4       1.0000 0.69380  0.16880  0.72730  Biso   1.000  N
  N5       1.0000 0.68890  0.19550  0.83970  Biso   1.000  N
  N6       1.0000 0.61700  0.09390  0.82480  Biso   1.000  N
  C6       1.0000 0.54670  0.21160  0.03100  Biso   1.000  C
  H12      1.0000 0.53340  0.23010  0.95550  Biso   1.000  H
  H13      1.0000 0.55700  0.25340  0.08160  Biso   1.000  H
  H14      1.0000 0.50560  0.18250  0.06190  Biso   1.000  H
  C7       1.0000 0.62300  0.15740  0.02080  Biso   1.000  C
  H15      1.0000 0.66470  0.18020  0.06260  Biso   1.000  H
  H16      1.0000 0.61310  0.10810  0.05420  Biso   1.000  H
  C8       1.0000 0.64260  0.14960  0.89450  Biso   1.000  C
  C9       1.0000 0.65100  0.10820  0.72350  Biso   1.000  C
  H17      1.0000 0.64490  0.07850  0.65760  Biso   1.000  H
  C10      1.0000 0.68640  0.10360  0.08840  Biso   1.000  C
  H18      1.0000 0.72210  0.08460  0.03290  Biso   1.000  H
  H19      1.0000 0.66130  0.06200  0.12540  Biso   1.000  H
  H20      1.0000 0.71240  0.13310  0.14570  Biso   1.000  H
  H21      1.0000 0.57210  0.13960  0.03580  Biso   1.000  H
  H22      1.0000 0.62700  0.20960  0.04570  Biso   1.000  H
  Zn3      1.0000 0.24024  0.28936  0.60032  Biso   1.000  Zn
  N7       1.0000 0.30620  0.33120  0.72730  Biso   1.000  N
  N8       1.0000 0.31110  0.30450  0.83970  Biso   1.000  N
  N9       1.0000 0.38300  0.40610  0.82480  Biso   1.000  N
  C11      1.0000 0.45330  0.28840  0.03100  Biso   1.000  C
  H23      1.0000 0.46660  0.26990  0.95550  Biso   1.000  H
  H24      1.0000 0.44300  0.24660  0.08160  Biso   1.000  H
  H25      1.0000 0.49440  0.31750  0.06190  Biso   1.000  H
  C12      1.0000 0.37700  0.34260  0.02080  Biso   1.000  C
  H26      1.0000 0.33530  0.31980  0.06260  Biso   1.000  H
  H27      1.0000 0.38690  0.39190  0.05420  Biso   1.000  H
  C13      1.0000 0.35740  0.35040  0.89450  Biso   1.000  C
  C14      1.0000 0.34900  0.39180  0.72350  Biso   1.000  C
  H28      1.0000 0.35510  0.42150  0.65760  Biso   1.000  H
  C15      1.0000 0.31360  0.39640  0.08840  Biso   1.000  C
  H29      1.0000 0.27790  0.41540  0.03290  Biso   1.000  H
  H30      1.0000 0.33870  0.43800  0.12540  Biso   1.000  H
  H31      1.0000 0.28760  0.36690  0.14570  Biso   1.000  H
  H32      1.0000 0.42790  0.36040  0.03580  Biso   1.000  H
  H33      1.0000 0.37300  0.29040  0.04570  Biso   1.000  H
  Zn4      1.0000 0.74024  0.78936  0.10032  Biso   1.000  Zn
  N10      1.0000 0.80620  0.83120  0.22730  Biso   1.000  N
  N11      1.0000 0.81110  0.80450  0.33970  Biso   1.000  N
  N12      1.0000 0.88300  0.90610  0.32480  Biso   1.000  N
  C16      1.0000 0.95330  0.78840  0.53100  Biso   1.000  C
  H34      1.0000 0.96660  0.76990  0.45550  Biso   1.000  H
  H35      1.0000 0.94300  0.74660  0.58160  Biso   1.000  H
  H36      1.0000 0.99440  0.81750  0.56190  Biso   1.000  H
  C17      1.0000 0.87700  0.84260  0.52080  Biso   1.000  C
  H37      1.0000 0.83530  0.81980  0.56260  Biso   1.000  H
  H38      1.0000 0.88690  0.89190  0.55420  Biso   1.000  H
  C18      1.0000 0.85740  0.85040  0.39450  Biso   1.000  C
  C19      1.0000 0.84900  0.89180  0.22350  Biso   1.000  C
  H39      1.0000 0.85510  0.92150  0.15760  Biso   1.000  H
  C20      1.0000 0.81360  0.89640  0.58840  Biso   1.000  C
  H40      1.0000 0.77790  0.91540  0.53290  Biso   1.000  H
  H41      1.0000 0.83870  0.93800  0.62540  Biso   1.000  H
  H42      1.0000 0.78760  0.86690  0.64570  Biso   1.000  H
  H43      1.0000 0.92790  0.86040  0.53580  Biso   1.000  H
  H44      1.0000 0.87300  0.79040  0.54570  Biso   1.000  H
  Zn5      1.0000 0.03936  0.50976  0.35032  Biso   1.000  Zn
  N13      1.0000 0.08120  0.44380  0.47730  Biso   1.000  N
  N14      1.0000 0.05450  0.43890  0.58970  Biso   1.000  N
  N15      1.0000 0.15610  0.36700  0.57480  Biso   1.000  N
  C21      1.0000 0.03840  0.29670  0.78100  Biso   1.000  C
  H45      1.0000 0.01990  0.28340  0.70550  Biso   1.000  H
  H46      1.0000 0.99660  0.30700  0.83160  Biso   1.000  H
  H47      1.0000 0.06750  0.25560  0.81190  Biso   1.000  H
  C22      1.0000 0.09260  0.37300  0.77080  Biso   1.000  C
  H48      1.0000 0.06980  0.41470  0.81260  Biso   1.000  H
  H49      1.0000 0.14190  0.36310  0.80420  Biso   1.000  H
  C23      1.0000 0.10040  0.39260  0.64450  Biso   1.000  C
  C24      1.0000 0.14180  0.40100  0.47350  Biso   1.000  C
  H50      1.0000 0.17150  0.39490  0.40760  Biso   1.000  H
  C25      1.0000 0.14640  0.43640  0.83840  Biso   1.000  C
  H51      1.0000 0.16540  0.47210  0.78290  Biso   1.000  H
  H52      1.0000 0.18800  0.41130  0.87540  Biso   1.000  H
  H53      1.0000 0.11690  0.46240  0.89570  Biso   1.000  H
  H54      1.0000 0.11040  0.32210  0.78580  Biso   1.000  H
  H55      1.0000 0.04040  0.37700  0.79570  Biso   1.000  H
  Zn6      1.0000 0.53936  0.00976  0.85032  Biso   1.000  Zn
  N16      1.0000 0.58120  0.94380  0.97730  Biso   1.000  N
  N17      1.0000 0.55450  0.93890  0.08970  Biso   1.000  N
  N18      1.0000 0.65610  0.86700  0.07480  Biso   1.000  N
  C26      1.0000 0.53840  0.79670  0.28100  Biso   1.000  C
  H56      1.0000 0.51990  0.78340  0.20550  Biso   1.000  H
  H57      1.0000 0.49660  0.80700  0.33160  Biso   1.000  H
  H58      1.0000 0.56750  0.75560  0.31190  Biso   1.000  H
  C27      1.0000 0.59260  0.87300  0.27080  Biso   1.000  C
  H59      1.0000 0.56980  0.91470  0.31260  Biso   1.000  H
  H60      1.0000 0.64190  0.86310  0.30420  Biso   1.000  H
  C28      1.0000 0.60040  0.89260  0.14450  Biso   1.000  C
  C29      1.0000 0.64180  0.90100  0.97350  Biso   1.000  C
  H61      1.0000 0.67150  0.89490  0.90760  Biso   1.000  H
  C30      1.0000 0.64640  0.93640  0.33840  Biso   1.000  C
  H62      1.0000 0.66540  0.97210  0.28290  Biso   1.000  H
  H63      1.0000 0.68800  0.91130  0.37540  Biso   1.000  H
  H64      1.0000 0.61690  0.96240  0.39570  Biso   1.000  H
  H65      1.0000 0.61040  0.82210  0.28580  Biso   1.000  H
  H66      1.0000 0.54040  0.87700  0.29570  Biso   1.000  H
  Zn7      1.0000 0.46064  0.49024  0.85032  Biso   1.000  Zn
  N19      1.0000 0.41880  0.55620  0.97730  Biso   1.000  N
  N20      1.0000 0.44550  0.56110  0.08970  Biso   1.000  N
  N21      1.0000 0.34390  0.63300  0.07480  Biso   1.000  N
  C31      1.0000 0.46160  0.70330  0.28100  Biso   1.000  C
  H67      1.0000 0.48010  0.71660  0.20550  Biso   1.000  H
  H68      1.0000 0.50340  0.69300  0.33160  Biso   1.000  H
  H69      1.0000 0.43250  0.74440  0.31190  Biso   1.000  H
  C32      1.0000 0.40740  0.62700  0.27080  Biso   1.000  C
  H70      1.0000 0.43020  0.58530  0.31260  Biso   1.000  H
  H71      1.0000 0.35810  0.63690  0.30420  Biso   1.000  H
  C33      1.0000 0.39960  0.60740  0.14450  Biso   1.000  C
  C34      1.0000 0.35820  0.59900  0.97350  Biso   1.000  C
  H72      1.0000 0.32850  0.60510  0.90760  Biso   1.000  H
  C35      1.0000 0.35360  0.56360  0.33840  Biso   1.000  C
  H73      1.0000 0.33460  0.52790  0.28290  Biso   1.000  H
  H74      1.0000 0.31200  0.58870  0.37540  Biso   1.000  H
  H75      1.0000 0.38310  0.53760  0.39570  Biso   1.000  H
  H76      1.0000 0.38960  0.67790  0.28580  Biso   1.000  H
  H77      1.0000 0.45960  0.62300  0.29570  Biso   1.000  H
  Zn8      1.0000 0.96064  0.99024  0.35032  Biso   1.000  Zn
  N22      1.0000 0.91880  0.05620  0.47730  Biso   1.000  N
  N23      1.0000 0.94550  0.06110  0.58970  Biso   1.000  N
  N24      1.0000 0.84390  0.13300  0.57480  Biso   1.000  N
  C36      1.0000 0.96160  0.20330  0.78100  Biso   1.000  C
  H78      1.0000 0.98010  0.21660  0.70550  Biso   1.000  H
  H79      1.0000 0.00340  0.19300  0.83160  Biso   1.000  H
  H80      1.0000 0.93250  0.24440  0.81190  Biso   1.000  H
  C37      1.0000 0.90740  0.12700  0.77080  Biso   1.000  C
  H81      1.0000 0.93020  0.08530  0.81260  Biso   1.000  H
  H82      1.0000 0.85810  0.13690  0.80420  Biso   1.000  H
  C38      1.0000 0.89960  0.10740  0.64450  Biso   1.000  C
  C39      1.0000 0.85820  0.09900  0.47350  Biso   1.000  C
  H83      1.0000 0.82850  0.10510  0.40760  Biso   1.000  H
  C40      1.0000 0.85360  0.06360  0.83840  Biso   1.000  C
  H84      1.0000 0.83460  0.02790  0.78290  Biso   1.000  H
  H85      1.0000 0.81200  0.08870  0.87540  Biso   1.000  H
  H86      1.0000 0.88310  0.03760  0.89570  Biso   1.000  H
  H87      1.0000 0.88960  0.17790  0.78580  Biso   1.000  H
  H88      1.0000 0.95960  0.12300  0.79570  Biso   1.000  H
  Zn9      1.0000 0.74024  0.28936  0.89968  Biso   1.000  Zn
  N25      1.0000 0.80620  0.33120  0.77270  Biso   1.000  N
  N26      1.0000 0.81110  0.30450  0.66030  Biso   1.000  N
  N27      1.0000 0.88300  0.40610  0.67520  Biso   1.000  N
  C41      1.0000 0.95330  0.28840  0.46900  Biso   1.000  C
  H89      1.0000 0.96660  0.26990  0.54450  Biso   1.000  H
  H90      1.0000 0.94300  0.24660  0.41840  Biso   1.000  H
  H91      1.0000 0.99440  0.31750  0.43810  Biso   1.000  H
  C42      1.0000 0.87700  0.34260  0.47920  Biso   1.000  C
  H92      1.0000 0.83530  0.31980  0.43740  Biso   1.000  H
  H93      1.0000 0.88690  0.39190  0.44580  Biso   1.000  H
  C43      1.0000 0.85740  0.35040  0.60550  Biso   1.000  C
  C44      1.0000 0.84900  0.39180  0.77650  Biso   1.000  C
  H94      1.0000 0.85510  0.42150  0.84240  Biso   1.000  H
  C45      1.0000 0.81360  0.39640  0.41160  Biso   1.000  C
  H95      1.0000 0.77790  0.41540  0.46710  Biso   1.000  H
  H96      1.0000 0.83870  0.43800  0.37460  Biso   1.000  H
  H97      1.0000 0.78760  0.36690  0.35430  Biso   1.000  H
  H98      1.0000 0.92790  0.36040  0.46420  Biso   1.000  H
  H99      1.0000 0.87300  0.29040  0.45430  Biso   1.000  H
  Zn10     1.0000 0.24024  0.78936  0.39968  Biso   1.000  Zn
  N28      1.0000 0.30620  0.83120  0.27270  Biso   1.000  N
  N29      1.0000 0.31110  0.80450  0.16030  Biso   1.000  N
  N30      1.0000 0.38300  0.90610  0.17520  Biso   1.000  N
  C46      1.0000 0.45330  0.78840  0.96900  Biso   1.000  C
  H100     1.0000 0.46660  0.76990  0.04450  Biso   1.000  H
  H101     1.0000 0.44300  0.74660  0.91840  Biso   1.000  H
  H102     1.0000 0.49440  0.81750  0.93810  Biso   1.000  H
  C47      1.0000 0.37700  0.84260  0.97920  Biso   1.000  C
  H103     1.0000 0.33530  0.81980  0.93740  Biso   1.000  H
  H104     1.0000 0.38690  0.89190  0.94580  Biso   1.000  H
  C48      1.0000 0.35740  0.85040  0.10550  Biso   1.000  C
  C49      1.0000 0.34900  0.89180  0.27650  Biso   1.000  C
  H105     1.0000 0.35510  0.92150  0.34240  Biso   1.000  H
  C50      1.0000 0.31360  0.89640  0.91160  Biso   1.000  C
  H106     1.0000 0.27790  0.91540  0.96710  Biso   1.000  H
  H107     1.0000 0.33870  0.93800  0.87460  Biso   1.000  H
  H108     1.0000 0.28760  0.86690  0.85430  Biso   1.000  H
  H109     1.0000 0.42790  0.86040  0.96420  Biso   1.000  H
  H110     1.0000 0.37300  0.79040  0.95430  Biso   1.000  H
  Zn11     1.0000 0.75976  0.71064  0.39968  Biso   1.000  Zn
  N31      1.0000 0.69380  0.66880  0.27270  Biso   1.000  N
  N32      1.0000 0.68890  0.69550  0.16030  Biso   1.000  N
  N33      1.0000 0.61700  0.59390  0.17520  Biso   1.000  N
  C51      1.0000 0.54670  0.71160  0.96900  Biso   1.000  C
  H111     1.0000 0.53340  0.73010  0.04450  Biso   1.000  H
  H112     1.0000 0.55700  0.75340  0.91840  Biso   1.000  H
  H113     1.0000 0.50560  0.68250  0.93810  Biso   1.000  H
  C52      1.0000 0.62300  0.65740  0.97920  Biso   1.000  C
  H114     1.0000 0.66470  0.68020  0.93740  Biso   1.000  H
  H115     1.0000 0.61310  0.60810  0.94580  Biso   1.000  H
  C53      1.0000 0.64260  0.64960  0.10550  Biso   1.000  C
  C54      1.0000 0.65100  0.60820  0.27650  Biso   1.000  C
  H116     1.0000 0.64490  0.57850  0.34240  Biso   1.000  H
  C55      1.0000 0.68640  0.60360  0.91160  Biso   1.000  C
  H117     1.0000 0.72210  0.58460  0.96710  Biso   1.000  H
  H118     1.0000 0.66130  0.56200  0.87460  Biso   1.000  H
  H119     1.0000 0.71240  0.63310  0.85430  Biso   1.000  H
  H120     1.0000 0.57210  0.63960  0.96420  Biso   1.000  H
  H121     1.0000 0.62700  0.70960  0.95430  Biso   1.000  H
  Zn12     1.0000 0.25976  0.21064  0.89968  Biso   1.000  Zn
  N34      1.0000 0.19380  0.16880  0.77270  Biso   1.000  N
  N35      1.0000 0.18890  0.19550  0.66030  Biso   1.000  N
  N36      1.0000 0.11700  0.09390  0.67520  Biso   1.000  N
  C56      1.0000 0.04670  0.21160  0.46900  Biso   1.000  C
  H122     1.0000 0.03340  0.23010  0.54450  Biso   1.000  H
  H123     1.0000 0.05700  0.25340  0.41840  Biso   1.000  H
  H124     1.0000 0.00560  0.18250  0.43810  Biso   1.000  H
  C57      1.0000 0.12300  0.15740  0.47920  Biso   1.000  C
  H125     1.0000 0.16470  0.18020  0.43740  Biso   1.000  H
  H126     1.0000 0.11310  0.10810  0.44580  Biso   1.000  H
  C58      1.0000 0.14260  0.14960  0.60550  Biso   1.000  C
  C59      1.0000 0.15100  0.10820  0.77650  Biso   1.000  C
  H127     1.0000 0.14490  0.07850  0.84240  Biso   1.000  H
  C60      1.0000 0.18640  0.10360  0.41160  Biso   1.000  C
  H128     1.0000 0.22210  0.08460  0.46710  Biso   1.000  H
  H129     1.0000 0.16130  0.06200  0.37460  Biso   1.000  H
  H130     1.0000 0.21240  0.13310  0.35430  Biso   1.000  H
  H131     1.0000 0.07210  0.13960  0.46420  Biso   1.000  H
  H132     1.0000 0.12700  0.20960  0.45430  Biso   1.000  H
  Zn13     1.0000 0.96064  0.49024  0.64968  Biso   1.000  Zn
  N37      1.0000 0.91880  0.55620  0.52270  Biso   1.000  N
  N38      1.0000 0.94550  0.56110  0.41030  Biso   1.000  N
  N39      1.0000 0.84390  0.63300  0.42520  Biso   1.000  N
  C61      1.0000 0.96160  0.70330  0.21900  Biso   1.000  C
  H133     1.0000 0.98010  0.71660  0.29450  Biso   1.000  H
  H134     1.0000 0.00340  0.69300  0.16840  Biso   1.000  H
  H135     1.0000 0.93250  0.74440  0.18810  Biso   1.000  H
  C62      1.0000 0.90740  0.62700  0.22920  Biso   1.000  C
  H136     1.0000 0.93020  0.58530  0.18740  Biso   1.000  H
  H137     1.0000 0.85810  0.63690  0.19580  Biso   1.000  H
  C63      1.0000 0.89960  0.60740  0.35550  Biso   1.000  C
  C64      1.0000 0.85820  0.59900  0.52650  Biso   1.000  C
  H138     1.0000 0.82850  0.60510  0.59240  Biso   1.000  H
  C65      1.0000 0.85360  0.56360  0.16160  Biso   1.000  C
  H139     1.0000 0.83460  0.52790  0.21710  Biso   1.000  H
  H140     1.0000 0.81200  0.58870  0.12460  Biso   1.000  H
  H141     1.0000 0.88310  0.53760  0.10430  Biso   1.000  H
  H142     1.0000 0.88960  0.67790  0.21420  Biso   1.000  H
  H143     1.0000 0.95960  0.62300  0.20430  Biso   1.000  H
  Zn14     1.0000 0.46064  0.99024  0.14968  Biso   1.000  Zn
  N40      1.0000 0.41880  0.05620  0.02270  Biso   1.000  N
  N41      1.0000 0.44550  0.06110  0.91030  Biso   1.000  N
  N42      1.0000 0.34390  0.13300  0.92520  Biso   1.000  N
  C66      1.0000 0.46160  0.20330  0.71900  Biso   1.000  C
  H144     1.0000 0.48010  0.21660  0.79450  Biso   1.000  H
  H145     1.0000 0.50340  0.19300  0.66840  Biso   1.000  H
  H146     1.0000 0.43250  0.24440  0.68810  Biso   1.000  H
  C67      1.0000 0.40740  0.12700  0.72920  Biso   1.000  C
  H147     1.0000 0.43020  0.08530  0.68740  Biso   1.000  H
  H148     1.0000 0.35810  0.13690  0.69580  Biso   1.000  H
  C68      1.0000 0.39960  0.10740  0.85550  Biso   1.000  C
  C69      1.0000 0.35820  0.09900  0.02650  Biso   1.000  C
  H149     1.0000 0.32850  0.10510  0.09240  Biso   1.000  H
  C70      1.0000 0.35360  0.06360  0.66160  Biso   1.000  C
  H150     1.0000 0.33460  0.02790  0.71710  Biso   1.000  H
  H151     1.0000 0.31200  0.08870  0.62460  Biso   1.000  H
  H152     1.0000 0.38310  0.03760  0.60430  Biso   1.000  H
  H153     1.0000 0.38960  0.17790  0.71420  Biso   1.000  H
  H154     1.0000 0.45960  0.12300  0.70430  Biso   1.000  H
  Zn15     1.0000 0.53936  0.50976  0.14968  Biso   1.000  Zn
  N43      1.0000 0.58120  0.44380  0.02270  Biso   1.000  N
  N44      1.0000 0.55450  0.43890  0.91030  Biso   1.000  N
  N45      1.0000 0.65610  0.36700  0.92520  Biso   1.000  N
  C71      1.0000 0.53840  0.29670  0.71900  Biso   1.000  C
  H155     1.0000 0.51990  0.28340  0.79450  Biso   1.000  H
  H156     1.0000 0.49660  0.30700  0.66840  Biso   1.000  H
  H157     1.0000 0.56750  0.25560  0.68810  Biso   1.000  H
  C72      1.0000 0.59260  0.37300  0.72920  Biso   1.000  C
  H158     1.0000 0.56980  0.41470  0.68740  Biso   1.000  H
  H159     1.0000 0.64190  0.36310  0.69580  Biso   1.000  H
  C73      1.0000 0.60040  0.39260  0.85550  Biso   1.000  C
  C74      1.0000 0.64180  0.40100  0.02650  Biso   1.000  C
  H160     1.0000 0.67150  0.39490  0.09240  Biso   1.000  H
  C75      1.0000 0.64640  0.43640  0.66160  Biso   1.000  C
  H161     1.0000 0.66540  0.47210  0.71710  Biso   1.000  H
  H162     1.0000 0.68800  0.41130  0.62460  Biso   1.000  H
  H163     1.0000 0.61690  0.46240  0.60430  Biso   1.000  H
  H164     1.0000 0.61040  0.32210  0.71420  Biso   1.000  H
  H165     1.0000 0.54040  0.37700  0.70430  Biso   1.000  H
  Zn16     1.0000 0.03936  0.00976  0.64968  Biso   1.000  Zn
  N46      1.0000 0.08120  0.94380  0.52270  Biso   1.000  N
  N47      1.0000 0.05450  0.93890  0.41030  Biso   1.000  N
  N48      1.0000 0.15610  0.86700  0.42520  Biso   1.000  N
  C76      1.0000 0.03840  0.79670  0.21900  Biso   1.000  C
  H166     1.0000 0.01990  0.78340  0.29450  Biso   1.000  H
  H167     1.0000 0.99660  0.80700  0.16840  Biso   1.000  H
  H168     1.0000 0.06750  0.75560  0.18810  Biso   1.000  H
  C77      1.0000 0.09260  0.87300  0.22920  Biso   1.000  C
  H169     1.0000 0.06980  0.91470  0.18740  Biso   1.000  H
  H170     1.0000 0.14190  0.86310  0.19580  Biso   1.000  H
  C78      1.0000 0.10040  0.89260  0.35550  Biso   1.000  C
  C79      1.0000 0.14180  0.90100  0.52650  Biso   1.000  C
  H171     1.0000 0.17150  0.89490  0.59240  Biso   1.000  H
  C80      1.0000 0.14640  0.93640  0.16160  Biso   1.000  C
  H172     1.0000 0.16540  0.97210  0.21710  Biso   1.000  H
  H173     1.0000 0.18800  0.91130  0.12460  Biso   1.000  H
  H174     1.0000 0.11690  0.96240  0.10430  Biso   1.000  H
  H175     1.0000 0.11040  0.82210  0.21420  Biso   1.000  H
  H176     1.0000 0.04040  0.87700  0.20430  Biso   1.000  H
