data_image0
_cell_length_a       33.182
_cell_length_b       10.296
_cell_length_c       27.814
_cell_angle_alpha    90
_cell_angle_beta     107.238
_cell_angle_gamma    90

_symmetry_space_group_name_H-M    "P 1"
_symmetry_int_tables_number       1

loop_
  _symmetry_equiv_pos_as_xyz
  'x, y, z'

loop_
  _atom_site_label
  _atom_site_occupancy
  _atom_site_fract_x
  _atom_site_fract_y
  _atom_site_fract_z
  _atom_site_thermal_displace_type
  _atom_site_B_iso_or_equiv
  _atom_site_type_symbol
  Tb1      1.0000 0.55538  0.10622  0.00947  Biso   1.000  Tb
  O1       1.0000 0.12006  0.64930  0.07696  Biso   1.000  O
  O2       1.0000 0.12437  0.49150  0.02684  Biso   1.000  O
  O3       1.0000 0.44338  0.95090  0.42876  Biso   1.000  O
  O4       1.0000 0.49648  0.80750  0.44841  Biso   1.000  O
  O5       1.0000 0.47439  0.07560  0.03539  Biso   1.000  O
  O6       1.0000 0.52464  0.22030  0.06367  Biso   1.000  O
  C1       1.0000 0.14046  0.56170  0.06430  Biso   1.000  C
  C2       1.0000 0.18552  0.54200  0.09373  Biso   1.000  C
  C3       1.0000 0.20706  0.64410  0.12294  Biso   1.000  C
  H1       1.0000 0.19290  0.72050  0.12540  Biso   1.000  H
  C4       1.0000 0.24977  0.63190  0.14844  Biso   1.000  C
  H2       1.0000 0.26420  0.70030  0.16800  Biso   1.000  H
  C5       1.0000 0.27096  0.51770  0.14472  Biso   1.000  C
  C6       1.0000 0.24943  0.41560  0.11551  Biso   1.000  C
  H3       1.0000 0.26360  0.33910  0.11300  Biso   1.000  H
  C7       1.0000 0.20671  0.42770  0.09001  Biso   1.000  C
  H4       1.0000 0.19230  0.35940  0.07050  Biso   1.000  H
  C8       1.0000 0.31884  0.51150  0.16921  Biso   1.000  C
  C9       1.0000 0.33748  0.57550  0.21432  Biso   1.000  C
  H5       1.0000 0.32060  0.62210  0.22960  Biso   1.000  H
  C10      1.0000 0.38087  0.57100  0.23700  Biso   1.000  C
  C11      1.0000 0.40547  0.50190  0.21288  Biso   1.000  C
  H6       1.0000 0.43460  0.49890  0.22740  Biso   1.000  H
  C12      1.0000 0.38753  0.43720  0.16743  Biso   1.000  C
  C13      1.0000 0.34408  0.44270  0.14625  Biso   1.000  C
  H7       1.0000 0.33160  0.39950  0.11610  Biso   1.000  H
  C14      1.0000 0.40082  0.63900  0.28543  Biso   1.000  C
  C15      1.0000 0.38274  0.74900  0.29880  Biso   1.000  C
  H8       1.0000 0.35710  0.77840  0.27770  Biso   1.000  H
  C16      1.0000 0.40185  0.81610  0.34250  Biso   1.000  C
  H9       1.0000 0.38900  0.88980  0.35060  Biso   1.000  H
  C17      1.0000 0.44003  0.77430  0.37443  Biso   1.000  C
  C18      1.0000 0.45839  0.66580  0.36154  Biso   1.000  C
  H10      1.0000 0.48420  0.63720  0.38240  Biso   1.000  H
  C19      1.0000 0.43895  0.59840  0.31789  Biso   1.000  C
  H11      1.0000 0.45180  0.52420  0.31020  Biso   1.000  H
  C20      1.0000 0.46159  0.85040  0.42111  Biso   1.000  C
  C21      1.0000 0.41435  0.36740  0.14175  Biso   1.000  C
  C22      1.0000 0.45439  0.41230  0.14380  Biso   1.000  C
  H12      1.0000 0.46510  0.48600  0.16260  Biso   1.000  H
  C23      1.0000 0.47840  0.34880  0.11831  Biso   1.000  C
  H13      1.0000 0.50510  0.38020  0.12010  Biso   1.000  H
  C24      1.0000 0.46332  0.23890  0.09018  Biso   1.000  C
  C25      1.0000 0.42385  0.19330  0.08810  Biso   1.000  C
  H14      1.0000 0.41330  0.11960  0.06920  Biso   1.000  H
  C26      1.0000 0.39964  0.25600  0.11390  Biso   1.000  C
  H15      1.0000 0.37320  0.22310  0.11260  Biso   1.000  H
  C27      1.0000 0.48928  0.17420  0.06131  Biso   1.000  C
  O7       1.0000 0.57482  0.32950  0.00366  Biso   1.000  O
  S1       1.0000 0.57011  0.44580  0.03530  Biso   1.000  S
  C28      1.0000 0.60440  0.57350  0.03280  Biso   1.000  C
  H16      1.0000 0.63310  0.54520  0.04670  Biso   1.000  H
  H17      1.0000 0.59910  0.64580  0.05190  Biso   1.000  H
  H18      1.0000 0.59970  0.59940  0.99840  Biso   1.000  H
  S2       1.0000 0.60840  0.41870  0.03290  Biso   1.000  S
  C29      1.0000 0.61340  0.45100  0.09650  Biso   1.000  C
  H19      1.0000 0.61740  0.37090  0.11500  Biso   1.000  H
  H20      1.0000 0.58820  0.49300  0.09900  Biso   1.000  H
  H21      1.0000 0.63720  0.50670  0.11020  Biso   1.000  H
  C30      1.0000 0.60090  0.56910  0.00220  Biso   1.000  C
  H22      1.0000 0.59850  0.55680  0.96730  Biso   1.000  H
  H23      1.0000 0.62450  0.62460  0.01740  Biso   1.000  H
  H24      1.0000 0.57550  0.60850  0.00520  Biso   1.000  H
  H25      1.0000 0.53180  0.42670  0.02070  Biso   1.000  H
  H26      1.0000 0.52710  0.57550  0.02970  Biso   1.000  H
  H27      1.0000 0.52710  0.52560  0.97640  Biso   1.000  H
  C31      1.0000 0.51870  0.50600  0.00580  Biso   1.000  C
  Tb2      1.0000 0.05538  0.60622  0.00947  Biso   1.000  Tb
  O8       1.0000 0.62006  0.14930  0.07696  Biso   1.000  O
  O9       1.0000 0.62437  0.99150  0.02684  Biso   1.000  O
  O10      1.0000 0.94338  0.45090  0.42876  Biso   1.000  O
  O11      1.0000 0.99648  0.30750  0.44841  Biso   1.000  O
  O12      1.0000 0.97439  0.57560  0.03539  Biso   1.000  O
  O13      1.0000 0.02464  0.72030  0.06367  Biso   1.000  O
  C32      1.0000 0.64046  0.06170  0.06430  Biso   1.000  C
  C33      1.0000 0.68552  0.04200  0.09373  Biso   1.000  C
  C34      1.0000 0.70706  0.14410  0.12294  Biso   1.000  C
  H28      1.0000 0.69290  0.22050  0.12540  Biso   1.000  H
  C35      1.0000 0.74977  0.13190  0.14844  Biso   1.000  C
  H29      1.0000 0.76420  0.20030  0.16800  Biso   1.000  H
  C36      1.0000 0.77096  0.01770  0.14472  Biso   1.000  C
  C37      1.0000 0.74943  0.91560  0.11551  Biso   1.000  C
  H30      1.0000 0.76360  0.83910  0.11300  Biso   1.000  H
  C38      1.0000 0.70671  0.92770  0.09001  Biso   1.000  C
  H31      1.0000 0.69230  0.85940  0.07050  Biso   1.000  H
  C39      1.0000 0.81884  0.01150  0.16921  Biso   1.000  C
  C40      1.0000 0.83748  0.07550  0.21432  Biso   1.000  C
  H32      1.0000 0.82060  0.12210  0.22960  Biso   1.000  H
  C41      1.0000 0.88087  0.07100  0.23700  Biso   1.000  C
  C42      1.0000 0.90547  0.00190  0.21288  Biso   1.000  C
  H33      1.0000 0.93460  0.99890  0.22740  Biso   1.000  H
  C43      1.0000 0.88753  0.93720  0.16743  Biso   1.000  C
  C44      1.0000 0.84408  0.94270  0.14625  Biso   1.000  C
  H34      1.0000 0.83160  0.89950  0.11610  Biso   1.000  H
  C45      1.0000 0.90082  0.13900  0.28543  Biso   1.000  C
  C46      1.0000 0.88274  0.24900  0.29880  Biso   1.000  C
  H35      1.0000 0.85710  0.27840  0.27770  Biso   1.000  H
  C47      1.0000 0.90185  0.31610  0.34250  Biso   1.000  C
  H36      1.0000 0.88900  0.38980  0.35060  Biso   1.000  H
  C48      1.0000 0.94003  0.27430  0.37443  Biso   1.000  C
  C49      1.0000 0.95839  0.16580  0.36154  Biso   1.000  C
  H37      1.0000 0.98420  0.13720  0.38240  Biso   1.000  H
  C50      1.0000 0.93895  0.09840  0.31789  Biso   1.000  C
  H38      1.0000 0.95180  0.02420  0.31020  Biso   1.000  H
  C51      1.0000 0.96159  0.35040  0.42111  Biso   1.000  C
  C52      1.0000 0.91435  0.86740  0.14175  Biso   1.000  C
  C53      1.0000 0.95439  0.91230  0.14380  Biso   1.000  C
  H39      1.0000 0.96510  0.98600  0.16260  Biso   1.000  H
  C54      1.0000 0.97840  0.84880  0.11831  Biso   1.000  C
  H40      1.0000 0.00510  0.88020  0.12010  Biso   1.000  H
  C55      1.0000 0.96332  0.73890  0.09018  Biso   1.000  C
  C56      1.0000 0.92385  0.69330  0.08810  Biso   1.000  C
  H41      1.0000 0.91330  0.61960  0.06920  Biso   1.000  H
  C57      1.0000 0.89964  0.75600  0.11390  Biso   1.000  C
  H42      1.0000 0.87320  0.72310  0.11260  Biso   1.000  H
  C58      1.0000 0.98928  0.67420  0.06131  Biso   1.000  C
  O14      1.0000 0.07482  0.82950  0.00366  Biso   1.000  O
  S3       1.0000 0.07011  0.94580  0.03530  Biso   1.000  S
  C59      1.0000 0.10440  0.07350  0.03280  Biso   1.000  C
  H43      1.0000 0.13310  0.04520  0.04670  Biso   1.000  H
  H44      1.0000 0.09910  0.14580  0.05190  Biso   1.000  H
  H45      1.0000 0.09970  0.09940  0.99840  Biso   1.000  H
  S4       1.0000 0.10840  0.91870  0.03290  Biso   1.000  S
  C60      1.0000 0.11340  0.95100  0.09650  Biso   1.000  C
  H46      1.0000 0.11740  0.87090  0.11500  Biso   1.000  H
  H47      1.0000 0.08820  0.99300  0.09900  Biso   1.000  H
  H48      1.0000 0.13720  0.00670  0.11020  Biso   1.000  H
  C61      1.0000 0.10090  0.06910  0.00220  Biso   1.000  C
  H49      1.0000 0.09850  0.05680  0.96730  Biso   1.000  H
  H50      1.0000 0.12450  0.12460  0.01740  Biso   1.000  H
  H51      1.0000 0.07550  0.10850  0.00520  Biso   1.000  H
  H52      1.0000 0.03180  0.92670  0.02070  Biso   1.000  H
  H53      1.0000 0.02710  0.07550  0.02970  Biso   1.000  H
  H54      1.0000 0.02710  0.02560  0.97640  Biso   1.000  H
  C62      1.0000 0.01870  0.00600  0.00580  Biso   1.000  C
  Tb3      1.0000 0.44462  0.10622  0.49053  Biso   1.000  Tb
  O15      1.0000 0.87994  0.64930  0.42304  Biso   1.000  O
  O16      1.0000 0.87563  0.49150  0.47316  Biso   1.000  O
  O17      1.0000 0.55662  0.95090  0.07124  Biso   1.000  O
  O18      1.0000 0.50352  0.80750  0.05159  Biso   1.000  O
  O19      1.0000 0.52561  0.07560  0.46461  Biso   1.000  O
  O20      1.0000 0.47536  0.22030  0.43633  Biso   1.000  O
  C63      1.0000 0.85954  0.56170  0.43570  Biso   1.000  C
  C64      1.0000 0.81448  0.54200  0.40627  Biso   1.000  C
  C65      1.0000 0.79294  0.64410  0.37706  Biso   1.000  C
  H55      1.0000 0.80710  0.72050  0.37460  Biso   1.000  H
  C66      1.0000 0.75023  0.63190  0.35156  Biso   1.000  C
  H56      1.0000 0.73580  0.70030  0.33200  Biso   1.000  H
  C67      1.0000 0.72904  0.51770  0.35528  Biso   1.000  C
  C68      1.0000 0.75057  0.41560  0.38449  Biso   1.000  C
  H57      1.0000 0.73640  0.33910  0.38700  Biso   1.000  H
  C69      1.0000 0.79329  0.42770  0.40999  Biso   1.000  C
  H58      1.0000 0.80770  0.35940  0.42950  Biso   1.000  H
  C70      1.0000 0.68116  0.51150  0.33079  Biso   1.000  C
  C71      1.0000 0.66252  0.57550  0.28568  Biso   1.000  C
  H59      1.0000 0.67940  0.62210  0.27040  Biso   1.000  H
  C72      1.0000 0.61913  0.57100  0.26300  Biso   1.000  C
  C73      1.0000 0.59453  0.50190  0.28712  Biso   1.000  C
  H60      1.0000 0.56540  0.49890  0.27260  Biso   1.000  H
  C74      1.0000 0.61247  0.43720  0.33257  Biso   1.000  C
  C75      1.0000 0.65592  0.44270  0.35375  Biso   1.000  C
  H61      1.0000 0.66840  0.39950  0.38390  Biso   1.000  H
  C76      1.0000 0.59918  0.63900  0.21457  Biso   1.000  C
  C77      1.0000 0.61726  0.74900  0.20120  Biso   1.000  C
  H62      1.0000 0.64290  0.77840  0.22230  Biso   1.000  H
  C78      1.0000 0.59815  0.81610  0.15750  Biso   1.000  C
  H63      1.0000 0.61100  0.88980  0.14940  Biso   1.000  H
  C79      1.0000 0.55997  0.77430  0.12557  Biso   1.000  C
  C80      1.0000 0.54161  0.66580  0.13846  Biso   1.000  C
  H64      1.0000 0.51580  0.63720  0.11760  Biso   1.000  H
  C81      1.0000 0.56105  0.59840  0.18211  Biso   1.000  C
  H65      1.0000 0.54820  0.52420  0.18980  Biso   1.000  H
  C82      1.0000 0.53841  0.85040  0.07889  Biso   1.000  C
  C83      1.0000 0.58565  0.36740  0.35825  Biso   1.000  C
  C84      1.0000 0.54561  0.41230  0.35620  Biso   1.000  C
  H66      1.0000 0.53490  0.48600  0.33740  Biso   1.000  H
  C85      1.0000 0.52160  0.34880  0.38169  Biso   1.000  C
  H67      1.0000 0.49490  0.38020  0.37990  Biso   1.000  H
  C86      1.0000 0.53668  0.23890  0.40982  Biso   1.000  C
  C87      1.0000 0.57615  0.19330  0.41190  Biso   1.000  C
  H68      1.0000 0.58670  0.11960  0.43080  Biso   1.000  H
  C88      1.0000 0.60036  0.25600  0.38610  Biso   1.000  C
  H69      1.0000 0.62680  0.22310  0.38740  Biso   1.000  H
  C89      1.0000 0.51072  0.17420  0.43869  Biso   1.000  C
  O21      1.0000 0.42518  0.32950  0.49634  Biso   1.000  O
  S5       1.0000 0.42989  0.44580  0.46470  Biso   1.000  S
  C90      1.0000 0.39560  0.57350  0.46720  Biso   1.000  C
  H70      1.0000 0.36690  0.54520  0.45330  Biso   1.000  H
  H71      1.0000 0.40090  0.64580  0.44810  Biso   1.000  H
  H72      1.0000 0.40030  0.59940  0.50160  Biso   1.000  H
  S6       1.0000 0.39160  0.41870  0.46710  Biso   1.000  S
  C91      1.0000 0.38660  0.45100  0.40350  Biso   1.000  C
  H73      1.0000 0.38260  0.37090  0.38500  Biso   1.000  H
  H74      1.0000 0.41180  0.49300  0.40100  Biso   1.000  H
  H75      1.0000 0.36280  0.50670  0.38980  Biso   1.000  H
  C92      1.0000 0.39910  0.56910  0.49780  Biso   1.000  C
  H76      1.0000 0.40150  0.55680  0.53270  Biso   1.000  H
  H77      1.0000 0.37550  0.62460  0.48260  Biso   1.000  H
  H78      1.0000 0.42450  0.60850  0.49480  Biso   1.000  H
  H79      1.0000 0.46820  0.42670  0.47930  Biso   1.000  H
  H80      1.0000 0.47290  0.57550  0.47030  Biso   1.000  H
  H81      1.0000 0.47290  0.52560  0.52360  Biso   1.000  H
  C93      1.0000 0.48130  0.50600  0.49420  Biso   1.000  C
  Tb4      1.0000 0.94462  0.60622  0.49053  Biso   1.000  Tb
  O22      1.0000 0.37994  0.14930  0.42304  Biso   1.000  O
  O23      1.0000 0.37563  0.99150  0.47316  Biso   1.000  O
  O24      1.0000 0.05662  0.45090  0.07124  Biso   1.000  O
  O25      1.0000 0.00352  0.30750  0.05159  Biso   1.000  O
  O26      1.0000 0.02561  0.57560  0.46461  Biso   1.000  O
  O27      1.0000 0.97536  0.72030  0.43633  Biso   1.000  O
  C94      1.0000 0.35954  0.06170  0.43570  Biso   1.000  C
  C95      1.0000 0.31448  0.04200  0.40627  Biso   1.000  C
  C96      1.0000 0.29294  0.14410  0.37706  Biso   1.000  C
  H82      1.0000 0.30710  0.22050  0.37460  Biso   1.000  H
  C97      1.0000 0.25023  0.13190  0.35156  Biso   1.000  C
  H83      1.0000 0.23580  0.20030  0.33200  Biso   1.000  H
  C98      1.0000 0.22904  0.01770  0.35528  Biso   1.000  C
  C99      1.0000 0.25057  0.91560  0.38449  Biso   1.000  C
  H84      1.0000 0.23640  0.83910  0.38700  Biso   1.000  H
  C100     1.0000 0.29329  0.92770  0.40999  Biso   1.000  C
  H85      1.0000 0.30770  0.85940  0.42950  Biso   1.000  H
  C101     1.0000 0.18116  0.01150  0.33079  Biso   1.000  C
  C102     1.0000 0.16252  0.07550  0.28568  Biso   1.000  C
  H86      1.0000 0.17940  0.12210  0.27040  Biso   1.000  H
  C103     1.0000 0.11913  0.07100  0.26300  Biso   1.000  C
  C104     1.0000 0.09453  0.00190  0.28712  Biso   1.000  C
  H87      1.0000 0.06540  0.99890  0.27260  Biso   1.000  H
  C105     1.0000 0.11247  0.93720  0.33257  Biso   1.000  C
  C106     1.0000 0.15592  0.94270  0.35375  Biso   1.000  C
  H88      1.0000 0.16840  0.89950  0.38390  Biso   1.000  H
  C107     1.0000 0.09918  0.13900  0.21457  Biso   1.000  C
  C108     1.0000 0.11726  0.24900  0.20120  Biso   1.000  C
  H89      1.0000 0.14290  0.27840  0.22230  Biso   1.000  H
  C109     1.0000 0.09815  0.31610  0.15750  Biso   1.000  C
  H90      1.0000 0.11100  0.38980  0.14940  Biso   1.000  H
  C110     1.0000 0.05997  0.27430  0.12557  Biso   1.000  C
  C111     1.0000 0.04161  0.16580  0.13846  Biso   1.000  C
  H91      1.0000 0.01580  0.13720  0.11760  Biso   1.000  H
  C112     1.0000 0.06105  0.09840  0.18211  Biso   1.000  C
  H92      1.0000 0.04820  0.02420  0.18980  Biso   1.000  H
  C113     1.0000 0.03841  0.35040  0.07889  Biso   1.000  C
  C114     1.0000 0.08565  0.86740  0.35825  Biso   1.000  C
  C115     1.0000 0.04561  0.91230  0.35620  Biso   1.000  C
  H93      1.0000 0.03490  0.98600  0.33740  Biso   1.000  H
  C116     1.0000 0.02160  0.84880  0.38169  Biso   1.000  C
  H94      1.0000 0.99490  0.88020  0.37990  Biso   1.000  H
  C117     1.0000 0.03668  0.73890  0.40982  Biso   1.000  C
  C118     1.0000 0.07615  0.69330  0.41190  Biso   1.000  C
  H95      1.0000 0.08670  0.61960  0.43080  Biso   1.000  H
  C119     1.0000 0.10036  0.75600  0.38610  Biso   1.000  C
  H96      1.0000 0.12680  0.72310  0.38740  Biso   1.000  H
  C120     1.0000 0.01072  0.67420  0.43869  Biso   1.000  C
  O28      1.0000 0.92518  0.82950  0.49634  Biso   1.000  O
  S7       1.0000 0.92989  0.94580  0.46470  Biso   1.000  S
  C121     1.0000 0.89560  0.07350  0.46720  Biso   1.000  C
  H97      1.0000 0.86690  0.04520  0.45330  Biso   1.000  H
  H98      1.0000 0.90090  0.14580  0.44810  Biso   1.000  H
  H99      1.0000 0.90030  0.09940  0.50160  Biso   1.000  H
  S8       1.0000 0.89160  0.91870  0.46710  Biso   1.000  S
  C122     1.0000 0.88660  0.95100  0.40350  Biso   1.000  C
  H100     1.0000 0.88260  0.87090  0.38500  Biso   1.000  H
  H101     1.0000 0.91180  0.99300  0.40100  Biso   1.000  H
  H102     1.0000 0.86280  0.00670  0.38980  Biso   1.000  H
  C123     1.0000 0.89910  0.06910  0.49780  Biso   1.000  C
  H103     1.0000 0.90150  0.05680  0.53270  Biso   1.000  H
  H104     1.0000 0.87550  0.12460  0.48260  Biso   1.000  H
  H105     1.0000 0.92450  0.10850  0.49480  Biso   1.000  H
  H106     1.0000 0.96820  0.92670  0.47930  Biso   1.000  H
  H107     1.0000 0.97290  0.07550  0.47030  Biso   1.000  H
  H108     1.0000 0.97290  0.02560  0.52360  Biso   1.000  H
  C124     1.0000 0.98130  0.00600  0.49420  Biso   1.000  C
  Tb5      1.0000 0.44462  0.89378  0.99053  Biso   1.000  Tb
  O29      1.0000 0.87994  0.35070  0.92304  Biso   1.000  O
  O30      1.0000 0.87563  0.50850  0.97316  Biso   1.000  O
  O31      1.0000 0.55662  0.04910  0.57124  Biso   1.000  O
  O32      1.0000 0.50352  0.19250  0.55159  Biso   1.000  O
  O33      1.0000 0.52561  0.92440  0.96461  Biso   1.000  O
  O34      1.0000 0.47536  0.77970  0.93633  Biso   1.000  O
  C125     1.0000 0.85954  0.43830  0.93570  Biso   1.000  C
  C126     1.0000 0.81448  0.45800  0.90627  Biso   1.000  C
  C127     1.0000 0.79294  0.35590  0.87706  Biso   1.000  C
  H109     1.0000 0.80710  0.27950  0.87460  Biso   1.000  H
  C128     1.0000 0.75023  0.36810  0.85156  Biso   1.000  C
  H110     1.0000 0.73580  0.29970  0.83200  Biso   1.000  H
  C129     1.0000 0.72904  0.48230  0.85528  Biso   1.000  C
  C130     1.0000 0.75057  0.58440  0.88449  Biso   1.000  C
  H111     1.0000 0.73640  0.66090  0.88700  Biso   1.000  H
  C131     1.0000 0.79329  0.57230  0.90999  Biso   1.000  C
  H112     1.0000 0.80770  0.64060  0.92950  Biso   1.000  H
  C132     1.0000 0.68116  0.48850  0.83079  Biso   1.000  C
  C133     1.0000 0.66252  0.42450  0.78568  Biso   1.000  C
  H113     1.0000 0.67940  0.37790  0.77040  Biso   1.000  H
  C134     1.0000 0.61913  0.42900  0.76300  Biso   1.000  C
  C135     1.0000 0.59453  0.49810  0.78712  Biso   1.000  C
  H114     1.0000 0.56540  0.50110  0.77260  Biso   1.000  H
  C136     1.0000 0.61247  0.56280  0.83257  Biso   1.000  C
  C137     1.0000 0.65592  0.55730  0.85375  Biso   1.000  C
  H115     1.0000 0.66840  0.60050  0.88390  Biso   1.000  H
  C138     1.0000 0.59918  0.36100  0.71457  Biso   1.000  C
  C139     1.0000 0.61726  0.25100  0.70120  Biso   1.000  C
  H116     1.0000 0.64290  0.22160  0.72230  Biso   1.000  H
  C140     1.0000 0.59815  0.18390  0.65750  Biso   1.000  C
  H117     1.0000 0.61100  0.11020  0.64940  Biso   1.000  H
  C141     1.0000 0.55997  0.22570  0.62557  Biso   1.000  C
  C142     1.0000 0.54161  0.33420  0.63846  Biso   1.000  C
  H118     1.0000 0.51580  0.36280  0.61760  Biso   1.000  H
  C143     1.0000 0.56105  0.40160  0.68211  Biso   1.000  C
  H119     1.0000 0.54820  0.47580  0.68980  Biso   1.000  H
  C144     1.0000 0.53841  0.14960  0.57889  Biso   1.000  C
  C145     1.0000 0.58565  0.63260  0.85825  Biso   1.000  C
  C146     1.0000 0.54561  0.58770  0.85620  Biso   1.000  C
  H120     1.0000 0.53490  0.51400  0.83740  Biso   1.000  H
  C147     1.0000 0.52160  0.65120  0.88169  Biso   1.000  C
  H121     1.0000 0.49490  0.61980  0.87990  Biso   1.000  H
  C148     1.0000 0.53668  0.76110  0.90982  Biso   1.000  C
  C149     1.0000 0.57615  0.80670  0.91190  Biso   1.000  C
  H122     1.0000 0.58670  0.88040  0.93080  Biso   1.000  H
  C150     1.0000 0.60036  0.74400  0.88610  Biso   1.000  C
  H123     1.0000 0.62680  0.77690  0.88740  Biso   1.000  H
  C151     1.0000 0.51072  0.82580  0.93869  Biso   1.000  C
  O35      1.0000 0.42518  0.67050  0.99634  Biso   1.000  O
  S9       1.0000 0.42989  0.55420  0.96470  Biso   1.000  S
  C152     1.0000 0.39560  0.42650  0.96720  Biso   1.000  C
  H124     1.0000 0.36690  0.45480  0.95330  Biso   1.000  H
  H125     1.0000 0.40090  0.35420  0.94810  Biso   1.000  H
  H126     1.0000 0.40030  0.40060  0.00160  Biso   1.000  H
  S10      1.0000 0.39160  0.58130  0.96710  Biso   1.000  S
  C153     1.0000 0.38660  0.54900  0.90350  Biso   1.000  C
  H127     1.0000 0.38260  0.62910  0.88500  Biso   1.000  H
  H128     1.0000 0.41180  0.50700  0.90100  Biso   1.000  H
  H129     1.0000 0.36280  0.49330  0.88980  Biso   1.000  H
  C154     1.0000 0.39910  0.43090  0.99780  Biso   1.000  C
  H130     1.0000 0.40150  0.44320  0.03270  Biso   1.000  H
  H131     1.0000 0.37550  0.37540  0.98260  Biso   1.000  H
  H132     1.0000 0.42450  0.39150  0.99480  Biso   1.000  H
  H133     1.0000 0.46820  0.57330  0.97930  Biso   1.000  H
  H134     1.0000 0.47290  0.42450  0.97030  Biso   1.000  H
  H135     1.0000 0.47290  0.47440  0.02360  Biso   1.000  H
  C155     1.0000 0.48130  0.49400  0.99420  Biso   1.000  C
  Tb6      1.0000 0.94462  0.39378  0.99053  Biso   1.000  Tb
  O36      1.0000 0.37994  0.85070  0.92304  Biso   1.000  O
  O37      1.0000 0.37563  0.00850  0.97316  Biso   1.000  O
  O38      1.0000 0.05662  0.54910  0.57124  Biso   1.000  O
  O39      1.0000 0.00352  0.69250  0.55159  Biso   1.000  O
  O40      1.0000 0.02561  0.42440  0.96461  Biso   1.000  O
  O41      1.0000 0.97536  0.27970  0.93633  Biso   1.000  O
  C156     1.0000 0.35954  0.93830  0.93570  Biso   1.000  C
  C157     1.0000 0.31448  0.95800  0.90627  Biso   1.000  C
  C158     1.0000 0.29294  0.85590  0.87706  Biso   1.000  C
  H136     1.0000 0.30710  0.77950  0.87460  Biso   1.000  H
  C159     1.0000 0.25023  0.86810  0.85156  Biso   1.000  C
  H137     1.0000 0.23580  0.79970  0.83200  Biso   1.000  H
  C160     1.0000 0.22904  0.98230  0.85528  Biso   1.000  C
  C161     1.0000 0.25057  0.08440  0.88449  Biso   1.000  C
  H138     1.0000 0.23640  0.16090  0.88700  Biso   1.000  H
  C162     1.0000 0.29329  0.07230  0.90999  Biso   1.000  C
  H139     1.0000 0.30770  0.14060  0.92950  Biso   1.000  H
  C163     1.0000 0.18116  0.98850  0.83079  Biso   1.000  C
  C164     1.0000 0.16252  0.92450  0.78568  Biso   1.000  C
  H140     1.0000 0.17940  0.87790  0.77040  Biso   1.000  H
  C165     1.0000 0.11913  0.92900  0.76300  Biso   1.000  C
  C166     1.0000 0.09453  0.99810  0.78712  Biso   1.000  C
  H141     1.0000 0.06540  0.00110  0.77260  Biso   1.000  H
  C167     1.0000 0.11247  0.06280  0.83257  Biso   1.000  C
  C168     1.0000 0.15592  0.05730  0.85375  Biso   1.000  C
  H142     1.0000 0.16840  0.10050  0.88390  Biso   1.000  H
  C169     1.0000 0.09918  0.86100  0.71457  Biso   1.000  C
  C170     1.0000 0.11726  0.75100  0.70120  Biso   1.000  C
  H143     1.0000 0.14290  0.72160  0.72230  Biso   1.000  H
  C171     1.0000 0.09815  0.68390  0.65750  Biso   1.000  C
  H144     1.0000 0.11100  0.61020  0.64940  Biso   1.000  H
  C172     1.0000 0.05997  0.72570  0.62557  Biso   1.000  C
  C173     1.0000 0.04161  0.83420  0.63846  Biso   1.000  C
  H145     1.0000 0.01580  0.86280  0.61760  Biso   1.000  H
  C174     1.0000 0.06105  0.90160  0.68211  Biso   1.000  C
  H146     1.0000 0.04820  0.97580  0.68980  Biso   1.000  H
  C175     1.0000 0.03841  0.64960  0.57889  Biso   1.000  C
  C176     1.0000 0.08565  0.13260  0.85825  Biso   1.000  C
  C177     1.0000 0.04561  0.08770  0.85620  Biso   1.000  C
  H147     1.0000 0.03490  0.01400  0.83740  Biso   1.000  H
  C178     1.0000 0.02160  0.15120  0.88169  Biso   1.000  C
  H148     1.0000 0.99490  0.11980  0.87990  Biso   1.000  H
  C179     1.0000 0.03668  0.26110  0.90982  Biso   1.000  C
  C180     1.0000 0.07615  0.30670  0.91190  Biso   1.000  C
  H149     1.0000 0.08670  0.38040  0.93080  Biso   1.000  H
  C181     1.0000 0.10036  0.24400  0.88610  Biso   1.000  C
  H150     1.0000 0.12680  0.27690  0.88740  Biso   1.000  H
  C182     1.0000 0.01072  0.32580  0.93869  Biso   1.000  C
  O42      1.0000 0.92518  0.17050  0.99634  Biso   1.000  O
  S11      1.0000 0.92989  0.05420  0.96470  Biso   1.000  S
  C183     1.0000 0.89560  0.92650  0.96720  Biso   1.000  C
  H151     1.0000 0.86690  0.95480  0.95330  Biso   1.000  H
  H152     1.0000 0.90090  0.85420  0.94810  Biso   1.000  H
  H153     1.0000 0.90030  0.90060  0.00160  Biso   1.000  H
  S12      1.0000 0.89160  0.08130  0.96710  Biso   1.000  S
  C184     1.0000 0.88660  0.04900  0.90350  Biso   1.000  C
  H154     1.0000 0.88260  0.12910  0.88500  Biso   1.000  H
  H155     1.0000 0.91180  0.00700  0.90100  Biso   1.000  H
  H156     1.0000 0.86280  0.99330  0.88980  Biso   1.000  H
  C185     1.0000 0.89910  0.93090  0.99780  Biso   1.000  C
  H157     1.0000 0.90150  0.94320  0.03270  Biso   1.000  H
  H158     1.0000 0.87550  0.87540  0.98260  Biso   1.000  H
  H159     1.0000 0.92450  0.89150  0.99480  Biso   1.000  H
  H160     1.0000 0.96820  0.07330  0.97930  Biso   1.000  H
  H161     1.0000 0.97290  0.92450  0.97030  Biso   1.000  H
  H162     1.0000 0.97290  0.97440  0.02360  Biso   1.000  H
  C186     1.0000 0.98130  0.99400  0.99420  Biso   1.000  C
  Tb7      1.0000 0.55538  0.89378  0.50947  Biso   1.000  Tb
  O43      1.0000 0.12006  0.35070  0.57696  Biso   1.000  O
  O44      1.0000 0.12437  0.50850  0.52684  Biso   1.000  O
  O45      1.0000 0.44338  0.04910  0.92876  Biso   1.000  O
  O46      1.0000 0.49648  0.19250  0.94841  Biso   1.000  O
  O47      1.0000 0.47439  0.92440  0.53539  Biso   1.000  O
  O48      1.0000 0.52464  0.77970  0.56367  Biso   1.000  O
  C187     1.0000 0.14046  0.43830  0.56430  Biso   1.000  C
  C188     1.0000 0.18552  0.45800  0.59373  Biso   1.000  C
  C189     1.0000 0.20706  0.35590  0.62294  Biso   1.000  C
  H163     1.0000 0.19290  0.27950  0.62540  Biso   1.000  H
  C190     1.0000 0.24977  0.36810  0.64844  Biso   1.000  C
  H164     1.0000 0.26420  0.29970  0.66800  Biso   1.000  H
  C191     1.0000 0.27096  0.48230  0.64472  Biso   1.000  C
  C192     1.0000 0.24943  0.58440  0.61551  Biso   1.000  C
  H165     1.0000 0.26360  0.66090  0.61300  Biso   1.000  H
  C193     1.0000 0.20671  0.57230  0.59001  Biso   1.000  C
  H166     1.0000 0.19230  0.64060  0.57050  Biso   1.000  H
  C194     1.0000 0.31884  0.48850  0.66921  Biso   1.000  C
  C195     1.0000 0.33748  0.42450  0.71432  Biso   1.000  C
  H167     1.0000 0.32060  0.37790  0.72960  Biso   1.000  H
  C196     1.0000 0.38087  0.42900  0.73700  Biso   1.000  C
  C197     1.0000 0.40547  0.49810  0.71288  Biso   1.000  C
  H168     1.0000 0.43460  0.50110  0.72740  Biso   1.000  H
  C198     1.0000 0.38753  0.56280  0.66743  Biso   1.000  C
  C199     1.0000 0.34408  0.55730  0.64625  Biso   1.000  C
  H169     1.0000 0.33160  0.60050  0.61610  Biso   1.000  H
  C200     1.0000 0.40082  0.36100  0.78543  Biso   1.000  C
  C201     1.0000 0.38274  0.25100  0.79880  Biso   1.000  C
  H170     1.0000 0.35710  0.22160  0.77770  Biso   1.000  H
  C202     1.0000 0.40185  0.18390  0.84250  Biso   1.000  C
  H171     1.0000 0.38900  0.11020  0.85060  Biso   1.000  H
  C203     1.0000 0.44003  0.22570  0.87443  Biso   1.000  C
  C204     1.0000 0.45839  0.33420  0.86154  Biso   1.000  C
  H172     1.0000 0.48420  0.36280  0.88240  Biso   1.000  H
  C205     1.0000 0.43895  0.40160  0.81789  Biso   1.000  C
  H173     1.0000 0.45180  0.47580  0.81020  Biso   1.000  H
  C206     1.0000 0.46159  0.14960  0.92111  Biso   1.000  C
  C207     1.0000 0.41435  0.63260  0.64175  Biso   1.000  C
  C208     1.0000 0.45439  0.58770  0.64380  Biso   1.000  C
  H174     1.0000 0.46510  0.51400  0.66260  Biso   1.000  H
  C209     1.0000 0.47840  0.65120  0.61831  Biso   1.000  C
  H175     1.0000 0.50510  0.61980  0.62010  Biso   1.000  H
  C210     1.0000 0.46332  0.76110  0.59018  Biso   1.000  C
  C211     1.0000 0.42385  0.80670  0.58810  Biso   1.000  C
  H176     1.0000 0.41330  0.88040  0.56920  Biso   1.000  H
  C212     1.0000 0.39964  0.74400  0.61390  Biso   1.000  C
  H177     1.0000 0.37320  0.77690  0.61260  Biso   1.000  H
  C213     1.0000 0.48928  0.82580  0.56131  Biso   1.000  C
  O49      1.0000 0.57482  0.67050  0.50366  Biso   1.000  O
  S13      1.0000 0.57011  0.55420  0.53530  Biso   1.000  S
  C214     1.0000 0.60440  0.42650  0.53280  Biso   1.000  C
  H178     1.0000 0.63310  0.45480  0.54670  Biso   1.000  H
  H179     1.0000 0.59910  0.35420  0.55190  Biso   1.000  H
  H180     1.0000 0.59970  0.40060  0.49840  Biso   1.000  H
  S14      1.0000 0.60840  0.58130  0.53290  Biso   1.000  S
  C215     1.0000 0.61340  0.54900  0.59650  Biso   1.000  C
  H181     1.0000 0.61740  0.62910  0.61500  Biso   1.000  H
  H182     1.0000 0.58820  0.50700  0.59900  Biso   1.000  H
  H183     1.0000 0.63720  0.49330  0.61020  Biso   1.000  H
  C216     1.0000 0.60090  0.43090  0.50220  Biso   1.000  C
  H184     1.0000 0.59850  0.44320  0.46730  Biso   1.000  H
  H185     1.0000 0.62450  0.37540  0.51740  Biso   1.000  H
  H186     1.0000 0.57550  0.39150  0.50520  Biso   1.000  H
  H187     1.0000 0.53180  0.57330  0.52070  Biso   1.000  H
  H188     1.0000 0.52710  0.42450  0.52970  Biso   1.000  H
  H189     1.0000 0.52710  0.47440  0.47640  Biso   1.000  H
  C217     1.0000 0.51870  0.49400  0.50580  Biso   1.000  C
  Tb8      1.0000 0.05538  0.39378  0.50947  Biso   1.000  Tb
  O50      1.0000 0.62006  0.85070  0.57696  Biso   1.000  O
  O51      1.0000 0.62437  0.00850  0.52684  Biso   1.000  O
  O52      1.0000 0.94338  0.54910  0.92876  Biso   1.000  O
  O53      1.0000 0.99648  0.69250  0.94841  Biso   1.000  O
  O54      1.0000 0.97439  0.42440  0.53539  Biso   1.000  O
  O55      1.0000 0.02464  0.27970  0.56367  Biso   1.000  O
  C218     1.0000 0.64046  0.93830  0.56430  Biso   1.000  C
  C219     1.0000 0.68552  0.95800  0.59373  Biso   1.000  C
  C220     1.0000 0.70706  0.85590  0.62294  Biso   1.000  C
  H190     1.0000 0.69290  0.77950  0.62540  Biso   1.000  H
  C221     1.0000 0.74977  0.86810  0.64844  Biso   1.000  C
  H191     1.0000 0.76420  0.79970  0.66800  Biso   1.000  H
  C222     1.0000 0.77096  0.98230  0.64472  Biso   1.000  C
  C223     1.0000 0.74943  0.08440  0.61551  Biso   1.000  C
  H192     1.0000 0.76360  0.16090  0.61300  Biso   1.000  H
  C224     1.0000 0.70671  0.07230  0.59001  Biso   1.000  C
  H193     1.0000 0.69230  0.14060  0.57050  Biso   1.000  H
  C225     1.0000 0.81884  0.98850  0.66921  Biso   1.000  C
  C226     1.0000 0.83748  0.92450  0.71432  Biso   1.000  C
  H194     1.0000 0.82060  0.87790  0.72960  Biso   1.000  H
  C227     1.0000 0.88087  0.92900  0.73700  Biso   1.000  C
  C228     1.0000 0.90547  0.99810  0.71288  Biso   1.000  C
  H195     1.0000 0.93460  0.00110  0.72740  Biso   1.000  H
  C229     1.0000 0.88753  0.06280  0.66743  Biso   1.000  C
  C230     1.0000 0.84408  0.05730  0.64625  Biso   1.000  C
  H196     1.0000 0.83160  0.10050  0.61610  Biso   1.000  H
  C231     1.0000 0.90082  0.86100  0.78543  Biso   1.000  C
  C232     1.0000 0.88274  0.75100  0.79880  Biso   1.000  C
  H197     1.0000 0.85710  0.72160  0.77770  Biso   1.000  H
  C233     1.0000 0.90185  0.68390  0.84250  Biso   1.000  C
  H198     1.0000 0.88900  0.61020  0.85060  Biso   1.000  H
  C234     1.0000 0.94003  0.72570  0.87443  Biso   1.000  C
  C235     1.0000 0.95839  0.83420  0.86154  Biso   1.000  C
  H199     1.0000 0.98420  0.86280  0.88240  Biso   1.000  H
  C236     1.0000 0.93895  0.90160  0.81789  Biso   1.000  C
  H200     1.0000 0.95180  0.97580  0.81020  Biso   1.000  H
  C237     1.0000 0.96159  0.64960  0.92111  Biso   1.000  C
  C238     1.0000 0.91435  0.13260  0.64175  Biso   1.000  C
  C239     1.0000 0.95439  0.08770  0.64380  Biso   1.000  C
  H201     1.0000 0.96510  0.01400  0.66260  Biso   1.000  H
  C240     1.0000 0.97840  0.15120  0.61831  Biso   1.000  C
  H202     1.0000 0.00510  0.11980  0.62010  Biso   1.000  H
  C241     1.0000 0.96332  0.26110  0.59018  Biso   1.000  C
  C242     1.0000 0.92385  0.30670  0.58810  Biso   1.000  C
  H203     1.0000 0.91330  0.38040  0.56920  Biso   1.000  H
  C243     1.0000 0.89964  0.24400  0.61390  Biso   1.000  C
  H204     1.0000 0.87320  0.27690  0.61260  Biso   1.000  H
  C244     1.0000 0.98928  0.32580  0.56131  Biso   1.000  C
  O56      1.0000 0.07482  0.17050  0.50366  Biso   1.000  O
  S15      1.0000 0.07011  0.05420  0.53530  Biso   1.000  S
  C245     1.0000 0.10440  0.92650  0.53280  Biso   1.000  C
  H205     1.0000 0.13310  0.95480  0.54670  Biso   1.000  H
  H206     1.0000 0.09910  0.85420  0.55190  Biso   1.000  H
  H207     1.0000 0.09970  0.90060  0.49840  Biso   1.000  H
  S16      1.0000 0.10840  0.08130  0.53290  Biso   1.000  S
  C246     1.0000 0.11340  0.04900  0.59650  Biso   1.000  C
  H208     1.0000 0.11740  0.12910  0.61500  Biso   1.000  H
  H209     1.0000 0.08820  0.00700  0.59900  Biso   1.000  H
  H210     1.0000 0.13720  0.99330  0.61020  Biso   1.000  H
  C247     1.0000 0.10090  0.93090  0.50220  Biso   1.000  C
  H211     1.0000 0.09850  0.94320  0.46730  Biso   1.000  H
  H212     1.0000 0.12450  0.87540  0.51740  Biso   1.000  H
  H213     1.0000 0.07550  0.89150  0.50520  Biso   1.000  H
  H214     1.0000 0.03180  0.07330  0.52070  Biso   1.000  H
  H215     1.0000 0.02710  0.92450  0.52970  Biso   1.000  H
  H216     1.0000 0.02710  0.97440  0.47640  Biso   1.000  H
  C248     1.0000 0.01870  0.99400  0.50580  Biso   1.000  C
