data_image0
_cell_length_a       33.232
_cell_length_b       10.346
_cell_length_c       27.852
_cell_angle_alpha    90
_cell_angle_beta     106.872
_cell_angle_gamma    90

_symmetry_space_group_name_H-M    "P 1"
_symmetry_int_tables_number       1

loop_
  _symmetry_equiv_pos_as_xyz
  'x, y, z'

loop_
  _atom_site_label
  _atom_site_occupancy
  _atom_site_fract_x
  _atom_site_fract_y
  _atom_site_fract_z
  _atom_site_thermal_displace_type
  _atom_site_B_iso_or_equiv
  _atom_site_type_symbol
  Eu1      1.0000 0.55547  0.10532  0.00907  Biso   1.000  Eu
  O1       1.0000 0.12080  0.64500  0.07810  Biso   1.000  O
  O2       1.0000 0.12590  0.49280  0.02650  Biso   1.000  O
  O3       1.0000 0.44300  0.94530  0.43020  Biso   1.000  O
  O4       1.0000 0.49635  0.80420  0.44840  Biso   1.000  O
  O5       1.0000 0.47590  0.07710  0.03630  Biso   1.000  O
  O6       1.0000 0.52580  0.22230  0.06520  Biso   1.000  O
  C1       1.0000 0.14110  0.56170  0.06350  Biso   1.000  C
  C2       1.0000 0.18621  0.53890  0.09410  Biso   1.000  C
  C3       1.0000 0.20720  0.63840  0.12490  Biso   1.000  C
  H1       1.0000 0.19280  0.71320  0.12840  Biso   1.000  H
  C4       1.0000 0.24970  0.62630  0.15030  Biso   1.000  C
  H2       1.0000 0.26370  0.69290  0.17080  Biso   1.000  H
  C5       1.0000 0.27124  0.51460  0.14490  Biso   1.000  C
  C6       1.0000 0.25030  0.41510  0.11420  Biso   1.000  C
  H3       1.0000 0.26470  0.34030  0.11060  Biso   1.000  H
  C7       1.0000 0.20780  0.42720  0.08880  Biso   1.000  C
  H4       1.0000 0.19370  0.36060  0.06830  Biso   1.000  H
  C8       1.0000 0.31850  0.51120  0.17000  Biso   1.000  C
  C9       1.0000 0.33780  0.57340  0.21550  Biso   1.000  C
  H5       1.0000 0.32150  0.62290  0.23070  Biso   1.000  H
  C10      1.0000 0.38130  0.56250  0.23880  Biso   1.000  C
  C11      1.0000 0.40530  0.50070  0.21370  Biso   1.000  C
  H6       1.0000 0.43440  0.50120  0.22770  Biso   1.000  H
  C12      1.0000 0.38850  0.43620  0.16760  Biso   1.000  C
  C13      1.0000 0.34410  0.44100  0.14670  Biso   1.000  C
  H7       1.0000 0.33170  0.39690  0.11700  Biso   1.000  H
  C14      1.0000 0.40080  0.63690  0.28630  Biso   1.000  C
  C15      1.0000 0.38220  0.74160  0.29910  Biso   1.000  C
  H8       1.0000 0.35650  0.76920  0.27800  Biso   1.000  H
  C16      1.0000 0.40090  0.81120  0.34390  Biso   1.000  C
  H9       1.0000 0.38730  0.88250  0.35240  Biso   1.000  H
  C17      1.0000 0.43950  0.77180  0.37490  Biso   1.000  C
  C18      1.0000 0.45840  0.66530  0.36180  Biso   1.000  C
  H10      1.0000 0.48460  0.63920  0.38220  Biso   1.000  H
  C19      1.0000 0.43900  0.59520  0.31820  Biso   1.000  C
  H11      1.0000 0.45160  0.52070  0.31060  Biso   1.000  H
  C20      1.0000 0.46180  0.84660  0.42150  Biso   1.000  C
  C21      1.0000 0.41510  0.36680  0.14200  Biso   1.000  C
  C22      1.0000 0.45420  0.41150  0.14380  Biso   1.000  C
  H12      1.0000 0.46430  0.48610  0.16190  Biso   1.000  H
  C23      1.0000 0.47850  0.34850  0.11950  Biso   1.000  C
  H13      1.0000 0.50520  0.38020  0.12180  Biso   1.000  H
  C24      1.0000 0.46430  0.23780  0.09120  Biso   1.000  C
  C25      1.0000 0.42530  0.19330  0.09000  Biso   1.000  C
  H14      1.0000 0.41520  0.11850  0.07210  Biso   1.000  H
  C26      1.0000 0.40020  0.25850  0.11520  Biso   1.000  C
  H15      1.0000 0.37360  0.22750  0.11350  Biso   1.000  H
  C27      1.0000 0.49130  0.17460  0.06300  Biso   1.000  C
  O7       1.0000 0.57550  0.33000  0.00410  Biso   1.000  O
  S1       1.0000 0.57180  0.44680  0.03440  Biso   1.000  S
  C28      1.0000 0.60420  0.57600  0.02500  Biso   1.000  C
  H16      1.0000 0.63320  0.55200  0.03850  Biso   1.000  H
  H17      1.0000 0.59860  0.65170  0.04180  Biso   1.000  H
  H18      1.0000 0.59820  0.59280  0.98980  Biso   1.000  H
  S2       1.0000 0.61290  0.40730  0.03120  Biso   1.000  S
  C29      1.0000 0.61570  0.46000  0.09260  Biso   1.000  C
  H19      1.0000 0.61980  0.38650  0.11470  Biso   1.000  H
  H20      1.0000 0.59000  0.50280  0.09220  Biso   1.000  H
  H21      1.0000 0.63890  0.51850  0.10430  Biso   1.000  H
  C30      1.0000 0.60000  0.54400  0.99130  Biso   1.000  C
  H22      1.0000 0.59830  0.51860  0.95760  Biso   1.000  H
  H23      1.0000 0.62130  0.60870  0.00250  Biso   1.000  H
  H24      1.0000 0.57340  0.57780  0.99220  Biso   1.000  H
  C31      1.0000 0.51910  0.49700  0.00620  Biso   1.000  C
  H25      1.0000 0.52830  0.42120  0.02610  Biso   1.000  H
  H26      1.0000 0.53050  0.57250  0.02560  Biso   1.000  H
  H27      1.0000 0.52860  0.49410  0.97690  Biso   1.000  H
  Eu2      1.0000 0.05547  0.60532  0.00907  Biso   1.000  Eu
  O8       1.0000 0.62080  0.14500  0.07810  Biso   1.000  O
  O9       1.0000 0.62590  0.99280  0.02650  Biso   1.000  O
  O10      1.0000 0.94300  0.44530  0.43020  Biso   1.000  O
  O11      1.0000 0.99635  0.30420  0.44840  Biso   1.000  O
  O12      1.0000 0.97590  0.57710  0.03630  Biso   1.000  O
  O13      1.0000 0.02580  0.72230  0.06520  Biso   1.000  O
  C32      1.0000 0.64110  0.06170  0.06350  Biso   1.000  C
  C33      1.0000 0.68621  0.03890  0.09410  Biso   1.000  C
  C34      1.0000 0.70720  0.13840  0.12490  Biso   1.000  C
  H28      1.0000 0.69280  0.21320  0.12840  Biso   1.000  H
  C35      1.0000 0.74970  0.12630  0.15030  Biso   1.000  C
  H29      1.0000 0.76370  0.19290  0.17080  Biso   1.000  H
  C36      1.0000 0.77124  0.01460  0.14490  Biso   1.000  C
  C37      1.0000 0.75030  0.91510  0.11420  Biso   1.000  C
  H30      1.0000 0.76470  0.84030  0.11060  Biso   1.000  H
  C38      1.0000 0.70780  0.92720  0.08880  Biso   1.000  C
  H31      1.0000 0.69370  0.86060  0.06830  Biso   1.000  H
  C39      1.0000 0.81850  0.01120  0.17000  Biso   1.000  C
  C40      1.0000 0.83780  0.07340  0.21550  Biso   1.000  C
  H32      1.0000 0.82150  0.12290  0.23070  Biso   1.000  H
  C41      1.0000 0.88130  0.06250  0.23880  Biso   1.000  C
  C42      1.0000 0.90530  0.00070  0.21370  Biso   1.000  C
  H33      1.0000 0.93440  0.00120  0.22770  Biso   1.000  H
  C43      1.0000 0.88850  0.93620  0.16760  Biso   1.000  C
  C44      1.0000 0.84410  0.94100  0.14670  Biso   1.000  C
  H34      1.0000 0.83170  0.89690  0.11700  Biso   1.000  H
  C45      1.0000 0.90080  0.13690  0.28630  Biso   1.000  C
  C46      1.0000 0.88220  0.24160  0.29910  Biso   1.000  C
  H35      1.0000 0.85650  0.26920  0.27800  Biso   1.000  H
  C47      1.0000 0.90090  0.31120  0.34390  Biso   1.000  C
  H36      1.0000 0.88730  0.38250  0.35240  Biso   1.000  H
  C48      1.0000 0.93950  0.27180  0.37490  Biso   1.000  C
  C49      1.0000 0.95840  0.16530  0.36180  Biso   1.000  C
  H37      1.0000 0.98460  0.13920  0.38220  Biso   1.000  H
  C50      1.0000 0.93900  0.09520  0.31820  Biso   1.000  C
  H38      1.0000 0.95160  0.02070  0.31060  Biso   1.000  H
  C51      1.0000 0.96180  0.34660  0.42150  Biso   1.000  C
  C52      1.0000 0.91510  0.86680  0.14200  Biso   1.000  C
  C53      1.0000 0.95420  0.91150  0.14380  Biso   1.000  C
  H39      1.0000 0.96430  0.98610  0.16190  Biso   1.000  H
  C54      1.0000 0.97850  0.84850  0.11950  Biso   1.000  C
  H40      1.0000 0.00520  0.88020  0.12180  Biso   1.000  H
  C55      1.0000 0.96430  0.73780  0.09120  Biso   1.000  C
  C56      1.0000 0.92530  0.69330  0.09000  Biso   1.000  C
  H41      1.0000 0.91520  0.61850  0.07210  Biso   1.000  H
  C57      1.0000 0.90020  0.75850  0.11520  Biso   1.000  C
  H42      1.0000 0.87360  0.72750  0.11350  Biso   1.000  H
  C58      1.0000 0.99130  0.67460  0.06300  Biso   1.000  C
  O14      1.0000 0.07550  0.83000  0.00410  Biso   1.000  O
  S3       1.0000 0.07180  0.94680  0.03440  Biso   1.000  S
  C59      1.0000 0.10420  0.07600  0.02500  Biso   1.000  C
  H43      1.0000 0.13320  0.05200  0.03850  Biso   1.000  H
  H44      1.0000 0.09860  0.15170  0.04180  Biso   1.000  H
  H45      1.0000 0.09820  0.09280  0.98980  Biso   1.000  H
  S4       1.0000 0.11290  0.90730  0.03120  Biso   1.000  S
  C60      1.0000 0.11570  0.96000  0.09260  Biso   1.000  C
  H46      1.0000 0.11980  0.88650  0.11470  Biso   1.000  H
  H47      1.0000 0.09000  0.00280  0.09220  Biso   1.000  H
  H48      1.0000 0.13890  0.01850  0.10430  Biso   1.000  H
  C61      1.0000 0.10000  0.04400  0.99130  Biso   1.000  C
  H49      1.0000 0.09830  0.01860  0.95760  Biso   1.000  H
  H50      1.0000 0.12130  0.10870  0.00250  Biso   1.000  H
  H51      1.0000 0.07340  0.07780  0.99220  Biso   1.000  H
  C62      1.0000 0.01910  0.99700  0.00620  Biso   1.000  C
  H52      1.0000 0.02830  0.92120  0.02610  Biso   1.000  H
  H53      1.0000 0.03050  0.07250  0.02560  Biso   1.000  H
  H54      1.0000 0.02860  0.99410  0.97690  Biso   1.000  H
  Eu3      1.0000 0.44453  0.10532  0.49093  Biso   1.000  Eu
  O15      1.0000 0.87920  0.64500  0.42190  Biso   1.000  O
  O16      1.0000 0.87410  0.49280  0.47350  Biso   1.000  O
  O17      1.0000 0.55700  0.94530  0.06980  Biso   1.000  O
  O18      1.0000 0.50365  0.80420  0.05160  Biso   1.000  O
  O19      1.0000 0.52410  0.07710  0.46370  Biso   1.000  O
  O20      1.0000 0.47420  0.22230  0.43480  Biso   1.000  O
  C63      1.0000 0.85890  0.56170  0.43650  Biso   1.000  C
  C64      1.0000 0.81379  0.53890  0.40590  Biso   1.000  C
  C65      1.0000 0.79280  0.63840  0.37510  Biso   1.000  C
  H55      1.0000 0.80720  0.71320  0.37160  Biso   1.000  H
  C66      1.0000 0.75030  0.62630  0.34970  Biso   1.000  C
  H56      1.0000 0.73630  0.69290  0.32920  Biso   1.000  H
  C67      1.0000 0.72876  0.51460  0.35510  Biso   1.000  C
  C68      1.0000 0.74970  0.41510  0.38580  Biso   1.000  C
  H57      1.0000 0.73530  0.34030  0.38940  Biso   1.000  H
  C69      1.0000 0.79220  0.42720  0.41120  Biso   1.000  C
  H58      1.0000 0.80630  0.36060  0.43170  Biso   1.000  H
  C70      1.0000 0.68150  0.51120  0.33000  Biso   1.000  C
  C71      1.0000 0.66220  0.57340  0.28450  Biso   1.000  C
  H59      1.0000 0.67850  0.62290  0.26930  Biso   1.000  H
  C72      1.0000 0.61870  0.56250  0.26120  Biso   1.000  C
  C73      1.0000 0.59470  0.50070  0.28630  Biso   1.000  C
  H60      1.0000 0.56560  0.50120  0.27230  Biso   1.000  H
  C74      1.0000 0.61150  0.43620  0.33240  Biso   1.000  C
  C75      1.0000 0.65590  0.44100  0.35330  Biso   1.000  C
  H61      1.0000 0.66830  0.39690  0.38300  Biso   1.000  H
  C76      1.0000 0.59920  0.63690  0.21370  Biso   1.000  C
  C77      1.0000 0.61780  0.74160  0.20090  Biso   1.000  C
  H62      1.0000 0.64350  0.76920  0.22200  Biso   1.000  H
  C78      1.0000 0.59910  0.81120  0.15610  Biso   1.000  C
  H63      1.0000 0.61270  0.88250  0.14760  Biso   1.000  H
  C79      1.0000 0.56050  0.77180  0.12510  Biso   1.000  C
  C80      1.0000 0.54160  0.66530  0.13820  Biso   1.000  C
  H64      1.0000 0.51540  0.63920  0.11780  Biso   1.000  H
  C81      1.0000 0.56100  0.59520  0.18180  Biso   1.000  C
  H65      1.0000 0.54840  0.52070  0.18940  Biso   1.000  H
  C82      1.0000 0.53820  0.84660  0.07850  Biso   1.000  C
  C83      1.0000 0.58490  0.36680  0.35800  Biso   1.000  C
  C84      1.0000 0.54580  0.41150  0.35620  Biso   1.000  C
  H66      1.0000 0.53570  0.48610  0.33810  Biso   1.000  H
  C85      1.0000 0.52150  0.34850  0.38050  Biso   1.000  C
  H67      1.0000 0.49480  0.38020  0.37820  Biso   1.000  H
  C86      1.0000 0.53570  0.23780  0.40880  Biso   1.000  C
  C87      1.0000 0.57470  0.19330  0.41000  Biso   1.000  C
  H68      1.0000 0.58480  0.11850  0.42790  Biso   1.000  H
  C88      1.0000 0.59980  0.25850  0.38480  Biso   1.000  C
  H69      1.0000 0.62640  0.22750  0.38650  Biso   1.000  H
  C89      1.0000 0.50870  0.17460  0.43700  Biso   1.000  C
  O21      1.0000 0.42450  0.33000  0.49590  Biso   1.000  O
  S5       1.0000 0.42820  0.44680  0.46560  Biso   1.000  S
  C90      1.0000 0.39580  0.57600  0.47500  Biso   1.000  C
  H70      1.0000 0.36680  0.55200  0.46150  Biso   1.000  H
  H71      1.0000 0.40140  0.65170  0.45820  Biso   1.000  H
  H72      1.0000 0.40180  0.59280  0.51020  Biso   1.000  H
  S6       1.0000 0.38710  0.40730  0.46880  Biso   1.000  S
  C91      1.0000 0.38430  0.46000  0.40740  Biso   1.000  C
  H73      1.0000 0.38020  0.38650  0.38530  Biso   1.000  H
  H74      1.0000 0.41000  0.50280  0.40780  Biso   1.000  H
  H75      1.0000 0.36110  0.51850  0.39570  Biso   1.000  H
  C92      1.0000 0.40000  0.54400  0.50870  Biso   1.000  C
  H76      1.0000 0.40170  0.51860  0.54240  Biso   1.000  H
  H77      1.0000 0.37870  0.60870  0.49750  Biso   1.000  H
  H78      1.0000 0.42660  0.57780  0.50780  Biso   1.000  H
  C93      1.0000 0.48090  0.49700  0.49380  Biso   1.000  C
  H79      1.0000 0.47170  0.42120  0.47390  Biso   1.000  H
  H80      1.0000 0.46950  0.57250  0.47440  Biso   1.000  H
  H81      1.0000 0.47140  0.49410  0.52310  Biso   1.000  H
  Eu4      1.0000 0.94453  0.60532  0.49093  Biso   1.000  Eu
  O22      1.0000 0.37920  0.14500  0.42190  Biso   1.000  O
  O23      1.0000 0.37410  0.99280  0.47350  Biso   1.000  O
  O24      1.0000 0.05700  0.44530  0.06980  Biso   1.000  O
  O25      1.0000 0.00365  0.30420  0.05160  Biso   1.000  O
  O26      1.0000 0.02410  0.57710  0.46370  Biso   1.000  O
  O27      1.0000 0.97420  0.72230  0.43480  Biso   1.000  O
  C94      1.0000 0.35890  0.06170  0.43650  Biso   1.000  C
  C95      1.0000 0.31379  0.03890  0.40590  Biso   1.000  C
  C96      1.0000 0.29280  0.13840  0.37510  Biso   1.000  C
  H82      1.0000 0.30720  0.21320  0.37160  Biso   1.000  H
  C97      1.0000 0.25030  0.12630  0.34970  Biso   1.000  C
  H83      1.0000 0.23630  0.19290  0.32920  Biso   1.000  H
  C98      1.0000 0.22876  0.01460  0.35510  Biso   1.000  C
  C99      1.0000 0.24970  0.91510  0.38580  Biso   1.000  C
  H84      1.0000 0.23530  0.84030  0.38940  Biso   1.000  H
  C100     1.0000 0.29220  0.92720  0.41120  Biso   1.000  C
  H85      1.0000 0.30630  0.86060  0.43170  Biso   1.000  H
  C101     1.0000 0.18150  0.01120  0.33000  Biso   1.000  C
  C102     1.0000 0.16220  0.07340  0.28450  Biso   1.000  C
  H86      1.0000 0.17850  0.12290  0.26930  Biso   1.000  H
  C103     1.0000 0.11870  0.06250  0.26120  Biso   1.000  C
  C104     1.0000 0.09470  0.00070  0.28630  Biso   1.000  C
  H87      1.0000 0.06560  0.00120  0.27230  Biso   1.000  H
  C105     1.0000 0.11150  0.93620  0.33240  Biso   1.000  C
  C106     1.0000 0.15590  0.94100  0.35330  Biso   1.000  C
  H88      1.0000 0.16830  0.89690  0.38300  Biso   1.000  H
  C107     1.0000 0.09920  0.13690  0.21370  Biso   1.000  C
  C108     1.0000 0.11780  0.24160  0.20090  Biso   1.000  C
  H89      1.0000 0.14350  0.26920  0.22200  Biso   1.000  H
  C109     1.0000 0.09910  0.31120  0.15610  Biso   1.000  C
  H90      1.0000 0.11270  0.38250  0.14760  Biso   1.000  H
  C110     1.0000 0.06050  0.27180  0.12510  Biso   1.000  C
  C111     1.0000 0.04160  0.16530  0.13820  Biso   1.000  C
  H91      1.0000 0.01540  0.13920  0.11780  Biso   1.000  H
  C112     1.0000 0.06100  0.09520  0.18180  Biso   1.000  C
  H92      1.0000 0.04840  0.02070  0.18940  Biso   1.000  H
  C113     1.0000 0.03820  0.34660  0.07850  Biso   1.000  C
  C114     1.0000 0.08490  0.86680  0.35800  Biso   1.000  C
  C115     1.0000 0.04580  0.91150  0.35620  Biso   1.000  C
  H93      1.0000 0.03570  0.98610  0.33810  Biso   1.000  H
  C116     1.0000 0.02150  0.84850  0.38050  Biso   1.000  C
  H94      1.0000 0.99480  0.88020  0.37820  Biso   1.000  H
  C117     1.0000 0.03570  0.73780  0.40880  Biso   1.000  C
  C118     1.0000 0.07470  0.69330  0.41000  Biso   1.000  C
  H95      1.0000 0.08480  0.61850  0.42790  Biso   1.000  H
  C119     1.0000 0.09980  0.75850  0.38480  Biso   1.000  C
  H96      1.0000 0.12640  0.72750  0.38650  Biso   1.000  H
  C120     1.0000 0.00870  0.67460  0.43700  Biso   1.000  C
  O28      1.0000 0.92450  0.83000  0.49590  Biso   1.000  O
  S7       1.0000 0.92820  0.94680  0.46560  Biso   1.000  S
  C121     1.0000 0.89580  0.07600  0.47500  Biso   1.000  C
  H97      1.0000 0.86680  0.05200  0.46150  Biso   1.000  H
  H98      1.0000 0.90140  0.15170  0.45820  Biso   1.000  H
  H99      1.0000 0.90180  0.09280  0.51020  Biso   1.000  H
  S8       1.0000 0.88710  0.90730  0.46880  Biso   1.000  S
  C122     1.0000 0.88430  0.96000  0.40740  Biso   1.000  C
  H100     1.0000 0.88020  0.88650  0.38530  Biso   1.000  H
  H101     1.0000 0.91000  0.00280  0.40780  Biso   1.000  H
  H102     1.0000 0.86110  0.01850  0.39570  Biso   1.000  H
  C123     1.0000 0.90000  0.04400  0.50870  Biso   1.000  C
  H103     1.0000 0.90170  0.01860  0.54240  Biso   1.000  H
  H104     1.0000 0.87870  0.10870  0.49750  Biso   1.000  H
  H105     1.0000 0.92660  0.07780  0.50780  Biso   1.000  H
  C124     1.0000 0.98090  0.99700  0.49380  Biso   1.000  C
  H106     1.0000 0.97170  0.92120  0.47390  Biso   1.000  H
  H107     1.0000 0.96950  0.07250  0.47440  Biso   1.000  H
  H108     1.0000 0.97140  0.99410  0.52310  Biso   1.000  H
  Eu5      1.0000 0.44453  0.89468  0.99093  Biso   1.000  Eu
  O29      1.0000 0.87920  0.35500  0.92190  Biso   1.000  O
  O30      1.0000 0.87410  0.50720  0.97350  Biso   1.000  O
  O31      1.0000 0.55700  0.05470  0.56980  Biso   1.000  O
  O32      1.0000 0.50365  0.19580  0.55160  Biso   1.000  O
  O33      1.0000 0.52410  0.92290  0.96370  Biso   1.000  O
  O34      1.0000 0.47420  0.77770  0.93480  Biso   1.000  O
  C125     1.0000 0.85890  0.43830  0.93650  Biso   1.000  C
  C126     1.0000 0.81379  0.46110  0.90590  Biso   1.000  C
  C127     1.0000 0.79280  0.36160  0.87510  Biso   1.000  C
  H109     1.0000 0.80720  0.28680  0.87160  Biso   1.000  H
  C128     1.0000 0.75030  0.37370  0.84970  Biso   1.000  C
  H110     1.0000 0.73630  0.30710  0.82920  Biso   1.000  H
  C129     1.0000 0.72876  0.48540  0.85510  Biso   1.000  C
  C130     1.0000 0.74970  0.58490  0.88580  Biso   1.000  C
  H111     1.0000 0.73530  0.65970  0.88940  Biso   1.000  H
  C131     1.0000 0.79220  0.57280  0.91120  Biso   1.000  C
  H112     1.0000 0.80630  0.63940  0.93170  Biso   1.000  H
  C132     1.0000 0.68150  0.48880  0.83000  Biso   1.000  C
  C133     1.0000 0.66220  0.42660  0.78450  Biso   1.000  C
  H113     1.0000 0.67850  0.37710  0.76930  Biso   1.000  H
  C134     1.0000 0.61870  0.43750  0.76120  Biso   1.000  C
  C135     1.0000 0.59470  0.49930  0.78630  Biso   1.000  C
  H114     1.0000 0.56560  0.49880  0.77230  Biso   1.000  H
  C136     1.0000 0.61150  0.56380  0.83240  Biso   1.000  C
  C137     1.0000 0.65590  0.55900  0.85330  Biso   1.000  C
  H115     1.0000 0.66830  0.60310  0.88300  Biso   1.000  H
  C138     1.0000 0.59920  0.36310  0.71370  Biso   1.000  C
  C139     1.0000 0.61780  0.25840  0.70090  Biso   1.000  C
  H116     1.0000 0.64350  0.23080  0.72200  Biso   1.000  H
  C140     1.0000 0.59910  0.18880  0.65610  Biso   1.000  C
  H117     1.0000 0.61270  0.11750  0.64760  Biso   1.000  H
  C141     1.0000 0.56050  0.22820  0.62510  Biso   1.000  C
  C142     1.0000 0.54160  0.33470  0.63820  Biso   1.000  C
  H118     1.0000 0.51540  0.36080  0.61780  Biso   1.000  H
  C143     1.0000 0.56100  0.40480  0.68180  Biso   1.000  C
  H119     1.0000 0.54840  0.47930  0.68940  Biso   1.000  H
  C144     1.0000 0.53820  0.15340  0.57850  Biso   1.000  C
  C145     1.0000 0.58490  0.63320  0.85800  Biso   1.000  C
  C146     1.0000 0.54580  0.58850  0.85620  Biso   1.000  C
  H120     1.0000 0.53570  0.51390  0.83810  Biso   1.000  H
  C147     1.0000 0.52150  0.65150  0.88050  Biso   1.000  C
  H121     1.0000 0.49480  0.61980  0.87820  Biso   1.000  H
  C148     1.0000 0.53570  0.76220  0.90880  Biso   1.000  C
  C149     1.0000 0.57470  0.80670  0.91000  Biso   1.000  C
  H122     1.0000 0.58480  0.88150  0.92790  Biso   1.000  H
  C150     1.0000 0.59980  0.74150  0.88480  Biso   1.000  C
  H123     1.0000 0.62640  0.77250  0.88650  Biso   1.000  H
  C151     1.0000 0.50870  0.82540  0.93700  Biso   1.000  C
  O35      1.0000 0.42450  0.67000  0.99590  Biso   1.000  O
  S9       1.0000 0.42820  0.55320  0.96560  Biso   1.000  S
  C152     1.0000 0.39580  0.42400  0.97500  Biso   1.000  C
  H124     1.0000 0.36680  0.44800  0.96150  Biso   1.000  H
  H125     1.0000 0.40140  0.34830  0.95820  Biso   1.000  H
  H126     1.0000 0.40180  0.40720  0.01020  Biso   1.000  H
  S10      1.0000 0.38710  0.59270  0.96880  Biso   1.000  S
  C153     1.0000 0.38430  0.54000  0.90740  Biso   1.000  C
  H127     1.0000 0.38020  0.61350  0.88530  Biso   1.000  H
  H128     1.0000 0.41000  0.49720  0.90780  Biso   1.000  H
  H129     1.0000 0.36110  0.48150  0.89570  Biso   1.000  H
  C154     1.0000 0.40000  0.45600  0.00870  Biso   1.000  C
  H130     1.0000 0.40170  0.48140  0.04240  Biso   1.000  H
  H131     1.0000 0.37870  0.39130  0.99750  Biso   1.000  H
  H132     1.0000 0.42660  0.42220  0.00780  Biso   1.000  H
  C155     1.0000 0.48090  0.50300  0.99380  Biso   1.000  C
  H133     1.0000 0.47170  0.57880  0.97390  Biso   1.000  H
  H134     1.0000 0.46950  0.42750  0.97440  Biso   1.000  H
  H135     1.0000 0.47140  0.50590  0.02310  Biso   1.000  H
  Eu6      1.0000 0.94453  0.39468  0.99093  Biso   1.000  Eu
  O36      1.0000 0.37920  0.85500  0.92190  Biso   1.000  O
  O37      1.0000 0.37410  0.00720  0.97350  Biso   1.000  O
  O38      1.0000 0.05700  0.55470  0.56980  Biso   1.000  O
  O39      1.0000 0.00365  0.69580  0.55160  Biso   1.000  O
  O40      1.0000 0.02410  0.42290  0.96370  Biso   1.000  O
  O41      1.0000 0.97420  0.27770  0.93480  Biso   1.000  O
  C156     1.0000 0.35890  0.93830  0.93650  Biso   1.000  C
  C157     1.0000 0.31379  0.96110  0.90590  Biso   1.000  C
  C158     1.0000 0.29280  0.86160  0.87510  Biso   1.000  C
  H136     1.0000 0.30720  0.78680  0.87160  Biso   1.000  H
  C159     1.0000 0.25030  0.87370  0.84970  Biso   1.000  C
  H137     1.0000 0.23630  0.80710  0.82920  Biso   1.000  H
  C160     1.0000 0.22876  0.98540  0.85510  Biso   1.000  C
  C161     1.0000 0.24970  0.08490  0.88580  Biso   1.000  C
  H138     1.0000 0.23530  0.15970  0.88940  Biso   1.000  H
  C162     1.0000 0.29220  0.07280  0.91120  Biso   1.000  C
  H139     1.0000 0.30630  0.13940  0.93170  Biso   1.000  H
  C163     1.0000 0.18150  0.98880  0.83000  Biso   1.000  C
  C164     1.0000 0.16220  0.92660  0.78450  Biso   1.000  C
  H140     1.0000 0.17850  0.87710  0.76930  Biso   1.000  H
  C165     1.0000 0.11870  0.93750  0.76120  Biso   1.000  C
  C166     1.0000 0.09470  0.99930  0.78630  Biso   1.000  C
  H141     1.0000 0.06560  0.99880  0.77230  Biso   1.000  H
  C167     1.0000 0.11150  0.06380  0.83240  Biso   1.000  C
  C168     1.0000 0.15590  0.05900  0.85330  Biso   1.000  C
  H142     1.0000 0.16830  0.10310  0.88300  Biso   1.000  H
  C169     1.0000 0.09920  0.86310  0.71370  Biso   1.000  C
  C170     1.0000 0.11780  0.75840  0.70090  Biso   1.000  C
  H143     1.0000 0.14350  0.73080  0.72200  Biso   1.000  H
  C171     1.0000 0.09910  0.68880  0.65610  Biso   1.000  C
  H144     1.0000 0.11270  0.61750  0.64760  Biso   1.000  H
  C172     1.0000 0.06050  0.72820  0.62510  Biso   1.000  C
  C173     1.0000 0.04160  0.83470  0.63820  Biso   1.000  C
  H145     1.0000 0.01540  0.86080  0.61780  Biso   1.000  H
  C174     1.0000 0.06100  0.90480  0.68180  Biso   1.000  C
  H146     1.0000 0.04840  0.97930  0.68940  Biso   1.000  H
  C175     1.0000 0.03820  0.65340  0.57850  Biso   1.000  C
  C176     1.0000 0.08490  0.13320  0.85800  Biso   1.000  C
  C177     1.0000 0.04580  0.08850  0.85620  Biso   1.000  C
  H147     1.0000 0.03570  0.01390  0.83810  Biso   1.000  H
  C178     1.0000 0.02150  0.15150  0.88050  Biso   1.000  C
  H148     1.0000 0.99480  0.11980  0.87820  Biso   1.000  H
  C179     1.0000 0.03570  0.26220  0.90880  Biso   1.000  C
  C180     1.0000 0.07470  0.30670  0.91000  Biso   1.000  C
  H149     1.0000 0.08480  0.38150  0.92790  Biso   1.000  H
  C181     1.0000 0.09980  0.24150  0.88480  Biso   1.000  C
  H150     1.0000 0.12640  0.27250  0.88650  Biso   1.000  H
  C182     1.0000 0.00870  0.32540  0.93700  Biso   1.000  C
  O42      1.0000 0.92450  0.17000  0.99590  Biso   1.000  O
  S11      1.0000 0.92820  0.05320  0.96560  Biso   1.000  S
  C183     1.0000 0.89580  0.92400  0.97500  Biso   1.000  C
  H151     1.0000 0.86680  0.94800  0.96150  Biso   1.000  H
  H152     1.0000 0.90140  0.84830  0.95820  Biso   1.000  H
  H153     1.0000 0.90180  0.90720  0.01020  Biso   1.000  H
  S12      1.0000 0.88710  0.09270  0.96880  Biso   1.000  S
  C184     1.0000 0.88430  0.04000  0.90740  Biso   1.000  C
  H154     1.0000 0.88020  0.11350  0.88530  Biso   1.000  H
  H155     1.0000 0.91000  0.99720  0.90780  Biso   1.000  H
  H156     1.0000 0.86110  0.98150  0.89570  Biso   1.000  H
  C185     1.0000 0.90000  0.95600  0.00870  Biso   1.000  C
  H157     1.0000 0.90170  0.98140  0.04240  Biso   1.000  H
  H158     1.0000 0.87870  0.89130  0.99750  Biso   1.000  H
  H159     1.0000 0.92660  0.92220  0.00780  Biso   1.000  H
  C186     1.0000 0.98090  0.00300  0.99380  Biso   1.000  C
  H160     1.0000 0.97170  0.07880  0.97390  Biso   1.000  H
  H161     1.0000 0.96950  0.92750  0.97440  Biso   1.000  H
  H162     1.0000 0.97140  0.00590  0.02310  Biso   1.000  H
  Eu7      1.0000 0.55547  0.89468  0.50907  Biso   1.000  Eu
  O43      1.0000 0.12080  0.35500  0.57810  Biso   1.000  O
  O44      1.0000 0.12590  0.50720  0.52650  Biso   1.000  O
  O45      1.0000 0.44300  0.05470  0.93020  Biso   1.000  O
  O46      1.0000 0.49635  0.19580  0.94840  Biso   1.000  O
  O47      1.0000 0.47590  0.92290  0.53630  Biso   1.000  O
  O48      1.0000 0.52580  0.77770  0.56520  Biso   1.000  O
  C187     1.0000 0.14110  0.43830  0.56350  Biso   1.000  C
  C188     1.0000 0.18621  0.46110  0.59410  Biso   1.000  C
  C189     1.0000 0.20720  0.36160  0.62490  Biso   1.000  C
  H163     1.0000 0.19280  0.28680  0.62840  Biso   1.000  H
  C190     1.0000 0.24970  0.37370  0.65030  Biso   1.000  C
  H164     1.0000 0.26370  0.30710  0.67080  Biso   1.000  H
  C191     1.0000 0.27124  0.48540  0.64490  Biso   1.000  C
  C192     1.0000 0.25030  0.58490  0.61420  Biso   1.000  C
  H165     1.0000 0.26470  0.65970  0.61060  Biso   1.000  H
  C193     1.0000 0.20780  0.57280  0.58880  Biso   1.000  C
  H166     1.0000 0.19370  0.63940  0.56830  Biso   1.000  H
  C194     1.0000 0.31850  0.48880  0.67000  Biso   1.000  C
  C195     1.0000 0.33780  0.42660  0.71550  Biso   1.000  C
  H167     1.0000 0.32150  0.37710  0.73070  Biso   1.000  H
  C196     1.0000 0.38130  0.43750  0.73880  Biso   1.000  C
  C197     1.0000 0.40530  0.49930  0.71370  Biso   1.000  C
  H168     1.0000 0.43440  0.49880  0.72770  Biso   1.000  H
  C198     1.0000 0.38850  0.56380  0.66760  Biso   1.000  C
  C199     1.0000 0.34410  0.55900  0.64670  Biso   1.000  C
  H169     1.0000 0.33170  0.60310  0.61700  Biso   1.000  H
  C200     1.0000 0.40080  0.36310  0.78630  Biso   1.000  C
  C201     1.0000 0.38220  0.25840  0.79910  Biso   1.000  C
  H170     1.0000 0.35650  0.23080  0.77800  Biso   1.000  H
  C202     1.0000 0.40090  0.18880  0.84390  Biso   1.000  C
  H171     1.0000 0.38730  0.11750  0.85240  Biso   1.000  H
  C203     1.0000 0.43950  0.22820  0.87490  Biso   1.000  C
  C204     1.0000 0.45840  0.33470  0.86180  Biso   1.000  C
  H172     1.0000 0.48460  0.36080  0.88220  Biso   1.000  H
  C205     1.0000 0.43900  0.40480  0.81820  Biso   1.000  C
  H173     1.0000 0.45160  0.47930  0.81060  Biso   1.000  H
  C206     1.0000 0.46180  0.15340  0.92150  Biso   1.000  C
  C207     1.0000 0.41510  0.63320  0.64200  Biso   1.000  C
  C208     1.0000 0.45420  0.58850  0.64380  Biso   1.000  C
  H174     1.0000 0.46430  0.51390  0.66190  Biso   1.000  H
  C209     1.0000 0.47850  0.65150  0.61950  Biso   1.000  C
  H175     1.0000 0.50520  0.61980  0.62180  Biso   1.000  H
  C210     1.0000 0.46430  0.76220  0.59120  Biso   1.000  C
  C211     1.0000 0.42530  0.80670  0.59000  Biso   1.000  C
  H176     1.0000 0.41520  0.88150  0.57210  Biso   1.000  H
  C212     1.0000 0.40020  0.74150  0.61520  Biso   1.000  C
  H177     1.0000 0.37360  0.77250  0.61350  Biso   1.000  H
  C213     1.0000 0.49130  0.82540  0.56300  Biso   1.000  C
  O49      1.0000 0.57550  0.67000  0.50410  Biso   1.000  O
  S13      1.0000 0.57180  0.55320  0.53440  Biso   1.000  S
  C214     1.0000 0.60420  0.42400  0.52500  Biso   1.000  C
  H178     1.0000 0.63320  0.44800  0.53850  Biso   1.000  H
  H179     1.0000 0.59860  0.34830  0.54180  Biso   1.000  H
  H180     1.0000 0.59820  0.40720  0.48980  Biso   1.000  H
  S14      1.0000 0.61290  0.59270  0.53120  Biso   1.000  S
  C215     1.0000 0.61570  0.54000  0.59260  Biso   1.000  C
  H181     1.0000 0.61980  0.61350  0.61470  Biso   1.000  H
  H182     1.0000 0.59000  0.49720  0.59220  Biso   1.000  H
  H183     1.0000 0.63890  0.48150  0.60430  Biso   1.000  H
  C216     1.0000 0.60000  0.45600  0.49130  Biso   1.000  C
  H184     1.0000 0.59830  0.48140  0.45760  Biso   1.000  H
  H185     1.0000 0.62130  0.39130  0.50250  Biso   1.000  H
  H186     1.0000 0.57340  0.42220  0.49220  Biso   1.000  H
  C217     1.0000 0.51910  0.50300  0.50620  Biso   1.000  C
  H187     1.0000 0.52830  0.57880  0.52610  Biso   1.000  H
  H188     1.0000 0.53050  0.42750  0.52560  Biso   1.000  H
  H189     1.0000 0.52860  0.50590  0.47690  Biso   1.000  H
  Eu8      1.0000 0.05547  0.39468  0.50907  Biso   1.000  Eu
  O50      1.0000 0.62080  0.85500  0.57810  Biso   1.000  O
  O51      1.0000 0.62590  0.00720  0.52650  Biso   1.000  O
  O52      1.0000 0.94300  0.55470  0.93020  Biso   1.000  O
  O53      1.0000 0.99635  0.69580  0.94840  Biso   1.000  O
  O54      1.0000 0.97590  0.42290  0.53630  Biso   1.000  O
  O55      1.0000 0.02580  0.27770  0.56520  Biso   1.000  O
  C218     1.0000 0.64110  0.93830  0.56350  Biso   1.000  C
  C219     1.0000 0.68621  0.96110  0.59410  Biso   1.000  C
  C220     1.0000 0.70720  0.86160  0.62490  Biso   1.000  C
  H190     1.0000 0.69280  0.78680  0.62840  Biso   1.000  H
  C221     1.0000 0.74970  0.87370  0.65030  Biso   1.000  C
  H191     1.0000 0.76370  0.80710  0.67080  Biso   1.000  H
  C222     1.0000 0.77124  0.98540  0.64490  Biso   1.000  C
  C223     1.0000 0.75030  0.08490  0.61420  Biso   1.000  C
  H192     1.0000 0.76470  0.15970  0.61060  Biso   1.000  H
  C224     1.0000 0.70780  0.07280  0.58880  Biso   1.000  C
  H193     1.0000 0.69370  0.13940  0.56830  Biso   1.000  H
  C225     1.0000 0.81850  0.98880  0.67000  Biso   1.000  C
  C226     1.0000 0.83780  0.92660  0.71550  Biso   1.000  C
  H194     1.0000 0.82150  0.87710  0.73070  Biso   1.000  H
  C227     1.0000 0.88130  0.93750  0.73880  Biso   1.000  C
  C228     1.0000 0.90530  0.99930  0.71370  Biso   1.000  C
  H195     1.0000 0.93440  0.99880  0.72770  Biso   1.000  H
  C229     1.0000 0.88850  0.06380  0.66760  Biso   1.000  C
  C230     1.0000 0.84410  0.05900  0.64670  Biso   1.000  C
  H196     1.0000 0.83170  0.10310  0.61700  Biso   1.000  H
  C231     1.0000 0.90080  0.86310  0.78630  Biso   1.000  C
  C232     1.0000 0.88220  0.75840  0.79910  Biso   1.000  C
  H197     1.0000 0.85650  0.73080  0.77800  Biso   1.000  H
  C233     1.0000 0.90090  0.68880  0.84390  Biso   1.000  C
  H198     1.0000 0.88730  0.61750  0.85240  Biso   1.000  H
  C234     1.0000 0.93950  0.72820  0.87490  Biso   1.000  C
  C235     1.0000 0.95840  0.83470  0.86180  Biso   1.000  C
  H199     1.0000 0.98460  0.86080  0.88220  Biso   1.000  H
  C236     1.0000 0.93900  0.90480  0.81820  Biso   1.000  C
  H200     1.0000 0.95160  0.97930  0.81060  Biso   1.000  H
  C237     1.0000 0.96180  0.65340  0.92150  Biso   1.000  C
  C238     1.0000 0.91510  0.13320  0.64200  Biso   1.000  C
  C239     1.0000 0.95420  0.08850  0.64380  Biso   1.000  C
  H201     1.0000 0.96430  0.01390  0.66190  Biso   1.000  H
  C240     1.0000 0.97850  0.15150  0.61950  Biso   1.000  C
  H202     1.0000 0.00520  0.11980  0.62180  Biso   1.000  H
  C241     1.0000 0.96430  0.26220  0.59120  Biso   1.000  C
  C242     1.0000 0.92530  0.30670  0.59000  Biso   1.000  C
  H203     1.0000 0.91520  0.38150  0.57210  Biso   1.000  H
  C243     1.0000 0.90020  0.24150  0.61520  Biso   1.000  C
  H204     1.0000 0.87360  0.27250  0.61350  Biso   1.000  H
  C244     1.0000 0.99130  0.32540  0.56300  Biso   1.000  C
  O56      1.0000 0.07550  0.17000  0.50410  Biso   1.000  O
  S15      1.0000 0.07180  0.05320  0.53440  Biso   1.000  S
  C245     1.0000 0.10420  0.92400  0.52500  Biso   1.000  C
  H205     1.0000 0.13320  0.94800  0.53850  Biso   1.000  H
  H206     1.0000 0.09860  0.84830  0.54180  Biso   1.000  H
  H207     1.0000 0.09820  0.90720  0.48980  Biso   1.000  H
  S16      1.0000 0.11290  0.09270  0.53120  Biso   1.000  S
  C246     1.0000 0.11570  0.04000  0.59260  Biso   1.000  C
  H208     1.0000 0.11980  0.11350  0.61470  Biso   1.000  H
  H209     1.0000 0.09000  0.99720  0.59220  Biso   1.000  H
  H210     1.0000 0.13890  0.98150  0.60430  Biso   1.000  H
  C247     1.0000 0.10000  0.95600  0.49130  Biso   1.000  C
  H211     1.0000 0.09830  0.98140  0.45760  Biso   1.000  H
  H212     1.0000 0.12130  0.89130  0.50250  Biso   1.000  H
  H213     1.0000 0.07340  0.92220  0.49220  Biso   1.000  H
  C248     1.0000 0.01910  0.00300  0.50620  Biso   1.000  C
  H214     1.0000 0.02830  0.07880  0.52610  Biso   1.000  H
  H215     1.0000 0.03050  0.92750  0.52560  Biso   1.000  H
  H216     1.0000 0.02860  0.00590  0.47690  Biso   1.000  H
