data_image0
_cell_length_a       33.226
_cell_length_b       10.372
_cell_length_c       27.776
_cell_angle_alpha    90
_cell_angle_beta     107.061
_cell_angle_gamma    90

_symmetry_space_group_name_H-M    "P 1"
_symmetry_int_tables_number       1

loop_
  _symmetry_equiv_pos_as_xyz
  'x, y, z'

loop_
  _atom_site_label
  _atom_site_occupancy
  _atom_site_fract_x
  _atom_site_fract_y
  _atom_site_fract_z
  _atom_site_thermal_displace_type
  _atom_site_B_iso_or_equiv
  _atom_site_type_symbol
  Gd1      1.0000 0.55563  0.10506  0.00931  Biso   1.000  Gd
  O1       1.0000 0.12027  0.64620  0.07913  Biso   1.000  O
  O2       1.0000 0.12574  0.49740  0.02601  Biso   1.000  O
  O3       1.0000 0.44253  0.94550  0.42982  Biso   1.000  O
  O4       1.0000 0.49621  0.80490  0.44910  Biso   1.000  O
  O5       1.0000 0.47569  0.07500  0.03662  Biso   1.000  O
  O6       1.0000 0.52577  0.21820  0.06531  Biso   1.000  O
  C1       1.0000 0.14146  0.56410  0.06465  Biso   1.000  C
  C2       1.0000 0.18707  0.54260  0.09458  Biso   1.000  C
  C3       1.0000 0.20816  0.64130  0.12569  Biso   1.000  C
  H1       1.0000 0.19370  0.71530  0.12980  Biso   1.000  H
  C4       1.0000 0.25086  0.62950  0.15067  Biso   1.000  C
  H2       1.0000 0.26500  0.69560  0.17150  Biso   1.000  H
  C5       1.0000 0.27248  0.51900  0.14453  Biso   1.000  C
  C6       1.0000 0.25139  0.42020  0.11341  Biso   1.000  C
  H3       1.0000 0.26590  0.34620  0.10930  Biso   1.000  H
  C7       1.0000 0.20869  0.43200  0.08844  Biso   1.000  C
  H4       1.0000 0.19460  0.36590  0.06760  Biso   1.000  H
  C8       1.0000 0.31926  0.51180  0.16897  Biso   1.000  C
  C9       1.0000 0.33799  0.57410  0.21456  Biso   1.000  C
  H5       1.0000 0.32120  0.62040  0.22990  Biso   1.000  H
  C10      1.0000 0.38106  0.56870  0.23753  Biso   1.000  C
  C11      1.0000 0.40587  0.50050  0.21355  Biso   1.000  C
  H6       1.0000 0.43480  0.49670  0.22840  Biso   1.000  H
  C12      1.0000 0.38812  0.43770  0.16770  Biso   1.000  C
  C13      1.0000 0.34466  0.44360  0.14642  Biso   1.000  C
  H7       1.0000 0.33240  0.40060  0.11630  Biso   1.000  H
  C14      1.0000 0.40090  0.63580  0.28623  Biso   1.000  C
  C15      1.0000 0.38245  0.74280  0.30030  Biso   1.000  C
  H8       1.0000 0.35670  0.77150  0.27950  Biso   1.000  H
  C16      1.0000 0.40113  0.80880  0.34448  Biso   1.000  C
  H9       1.0000 0.38760  0.87960  0.35320  Biso   1.000  H
  C17      1.0000 0.43971  0.77000  0.37563  Biso   1.000  C
  C18      1.0000 0.45831  0.66340  0.36242  Biso   1.000  C
  H10      1.0000 0.48410  0.63510  0.38330  Biso   1.000  H
  C19      1.0000 0.43912  0.59710  0.31826  Biso   1.000  C
  H11      1.0000 0.45230  0.52480  0.31010  Biso   1.000  H
  C20      1.0000 0.46104  0.84630  0.42220  Biso   1.000  C
  C21      1.0000 0.41500  0.36690  0.14230  Biso   1.000  C
  C22      1.0000 0.45499  0.41130  0.14443  Biso   1.000  C
  H12      1.0000 0.46560  0.48490  0.16300  Biso   1.000  H
  C23      1.0000 0.47918  0.34690  0.11920  Biso   1.000  C
  H13      1.0000 0.50580  0.37780  0.12090  Biso   1.000  H
  C24      1.0000 0.46428  0.23730  0.09152  Biso   1.000  C
  C25      1.0000 0.42473  0.19280  0.08937  Biso   1.000  C
  H14      1.0000 0.41430  0.11920  0.07070  Biso   1.000  H
  C26      1.0000 0.40032  0.25620  0.11467  Biso   1.000  C
  H15      1.0000 0.37380  0.22430  0.11310  Biso   1.000  H
  C27      1.0000 0.49038  0.17250  0.06282  Biso   1.000  C
  O7       1.0000 0.57566  0.32820  0.00410  Biso   1.000  O
  S1       1.0000 0.57133  0.44530  0.03507  Biso   1.000  S
  C28      1.0000 0.60250  0.57080  0.02080  Biso   1.000  C
  H16      1.0000 0.63170  0.54920  0.03400  Biso   1.000  H
  H17      1.0000 0.59700  0.64990  0.03570  Biso   1.000  H
  H18      1.0000 0.59550  0.58110  0.98490  Biso   1.000  H
  S2       1.0000 0.61240  0.40730  0.03060  Biso   1.000  S
  C29      1.0000 0.61010  0.44110  0.09260  Biso   1.000  C
  H19      1.0000 0.61470  0.36310  0.11210  Biso   1.000  H
  H20      1.0000 0.58300  0.47580  0.09100  Biso   1.000  H
  H21      1.0000 0.63160  0.50270  0.10830  Biso   1.000  H
  C30      1.0000 0.59170  0.55110  0.99750  Biso   1.000  C
  H22      1.0000 0.58840  0.53970  0.96230  Biso   1.000  H
  H23      1.0000 0.61060  0.62140  0.01020  Biso   1.000  H
  H24      1.0000 0.56480  0.56970  0.00220  Biso   1.000  H
  C31      1.0000 0.51880  0.50340  0.00600  Biso   1.000  C
  H25      1.0000 0.53060  0.43920  0.03100  Biso   1.000  H
  H26      1.0000 0.52750  0.58750  0.01950  Biso   1.000  H
  H27      1.0000 0.52830  0.48910  0.97700  Biso   1.000  H
  Gd2      1.0000 0.05563  0.60506  0.00931  Biso   1.000  Gd
  O8       1.0000 0.62027  0.14620  0.07913  Biso   1.000  O
  O9       1.0000 0.62574  0.99740  0.02601  Biso   1.000  O
  O10      1.0000 0.94253  0.44550  0.42982  Biso   1.000  O
  O11      1.0000 0.99621  0.30490  0.44910  Biso   1.000  O
  O12      1.0000 0.97569  0.57500  0.03662  Biso   1.000  O
  O13      1.0000 0.02577  0.71820  0.06531  Biso   1.000  O
  C32      1.0000 0.64146  0.06410  0.06465  Biso   1.000  C
  C33      1.0000 0.68707  0.04260  0.09458  Biso   1.000  C
  C34      1.0000 0.70816  0.14130  0.12569  Biso   1.000  C
  H28      1.0000 0.69370  0.21530  0.12980  Biso   1.000  H
  C35      1.0000 0.75086  0.12950  0.15067  Biso   1.000  C
  H29      1.0000 0.76500  0.19560  0.17150  Biso   1.000  H
  C36      1.0000 0.77248  0.01900  0.14453  Biso   1.000  C
  C37      1.0000 0.75139  0.92020  0.11341  Biso   1.000  C
  H30      1.0000 0.76590  0.84620  0.10930  Biso   1.000  H
  C38      1.0000 0.70869  0.93200  0.08844  Biso   1.000  C
  H31      1.0000 0.69460  0.86590  0.06760  Biso   1.000  H
  C39      1.0000 0.81926  0.01180  0.16897  Biso   1.000  C
  C40      1.0000 0.83799  0.07410  0.21456  Biso   1.000  C
  H32      1.0000 0.82120  0.12040  0.22990  Biso   1.000  H
  C41      1.0000 0.88106  0.06870  0.23753  Biso   1.000  C
  C42      1.0000 0.90587  0.00050  0.21355  Biso   1.000  C
  H33      1.0000 0.93480  0.99670  0.22840  Biso   1.000  H
  C43      1.0000 0.88812  0.93770  0.16770  Biso   1.000  C
  C44      1.0000 0.84466  0.94360  0.14642  Biso   1.000  C
  H34      1.0000 0.83240  0.90060  0.11630  Biso   1.000  H
  C45      1.0000 0.90090  0.13580  0.28623  Biso   1.000  C
  C46      1.0000 0.88245  0.24280  0.30030  Biso   1.000  C
  H35      1.0000 0.85670  0.27150  0.27950  Biso   1.000  H
  C47      1.0000 0.90113  0.30880  0.34448  Biso   1.000  C
  H36      1.0000 0.88760  0.37960  0.35320  Biso   1.000  H
  C48      1.0000 0.93971  0.27000  0.37563  Biso   1.000  C
  C49      1.0000 0.95831  0.16340  0.36242  Biso   1.000  C
  H37      1.0000 0.98410  0.13510  0.38330  Biso   1.000  H
  C50      1.0000 0.93912  0.09710  0.31826  Biso   1.000  C
  H38      1.0000 0.95230  0.02480  0.31010  Biso   1.000  H
  C51      1.0000 0.96104  0.34630  0.42220  Biso   1.000  C
  C52      1.0000 0.91500  0.86690  0.14230  Biso   1.000  C
  C53      1.0000 0.95499  0.91130  0.14443  Biso   1.000  C
  H39      1.0000 0.96560  0.98490  0.16300  Biso   1.000  H
  C54      1.0000 0.97918  0.84690  0.11920  Biso   1.000  C
  H40      1.0000 0.00580  0.87780  0.12090  Biso   1.000  H
  C55      1.0000 0.96428  0.73730  0.09152  Biso   1.000  C
  C56      1.0000 0.92473  0.69280  0.08937  Biso   1.000  C
  H41      1.0000 0.91430  0.61920  0.07070  Biso   1.000  H
  C57      1.0000 0.90032  0.75620  0.11467  Biso   1.000  C
  H42      1.0000 0.87380  0.72430  0.11310  Biso   1.000  H
  C58      1.0000 0.99038  0.67250  0.06282  Biso   1.000  C
  O14      1.0000 0.07566  0.82820  0.00410  Biso   1.000  O
  S3       1.0000 0.07133  0.94530  0.03507  Biso   1.000  S
  C59      1.0000 0.10250  0.07080  0.02080  Biso   1.000  C
  H43      1.0000 0.13170  0.04920  0.03400  Biso   1.000  H
  H44      1.0000 0.09700  0.14990  0.03570  Biso   1.000  H
  H45      1.0000 0.09550  0.08110  0.98490  Biso   1.000  H
  S4       1.0000 0.11240  0.90730  0.03060  Biso   1.000  S
  C60      1.0000 0.11010  0.94110  0.09260  Biso   1.000  C
  H46      1.0000 0.11470  0.86310  0.11210  Biso   1.000  H
  H47      1.0000 0.08300  0.97580  0.09100  Biso   1.000  H
  H48      1.0000 0.13160  0.00270  0.10830  Biso   1.000  H
  C61      1.0000 0.09170  0.05110  0.99750  Biso   1.000  C
  H49      1.0000 0.08840  0.03970  0.96230  Biso   1.000  H
  H50      1.0000 0.11060  0.12140  0.01020  Biso   1.000  H
  H51      1.0000 0.06480  0.06970  0.00220  Biso   1.000  H
  C62      1.0000 0.01880  0.00340  0.00600  Biso   1.000  C
  H52      1.0000 0.03060  0.93920  0.03100  Biso   1.000  H
  H53      1.0000 0.02750  0.08750  0.01950  Biso   1.000  H
  H54      1.0000 0.02830  0.98910  0.97700  Biso   1.000  H
  Gd3      1.0000 0.44437  0.10506  0.49069  Biso   1.000  Gd
  O15      1.0000 0.87973  0.64620  0.42087  Biso   1.000  O
  O16      1.0000 0.87426  0.49740  0.47399  Biso   1.000  O
  O17      1.0000 0.55747  0.94550  0.07018  Biso   1.000  O
  O18      1.0000 0.50379  0.80490  0.05090  Biso   1.000  O
  O19      1.0000 0.52431  0.07500  0.46338  Biso   1.000  O
  O20      1.0000 0.47423  0.21820  0.43469  Biso   1.000  O
  C63      1.0000 0.85854  0.56410  0.43535  Biso   1.000  C
  C64      1.0000 0.81293  0.54260  0.40542  Biso   1.000  C
  C65      1.0000 0.79184  0.64130  0.37431  Biso   1.000  C
  H55      1.0000 0.80630  0.71530  0.37020  Biso   1.000  H
  C66      1.0000 0.74914  0.62950  0.34933  Biso   1.000  C
  H56      1.0000 0.73500  0.69560  0.32850  Biso   1.000  H
  C67      1.0000 0.72752  0.51900  0.35547  Biso   1.000  C
  C68      1.0000 0.74861  0.42020  0.38659  Biso   1.000  C
  H57      1.0000 0.73410  0.34620  0.39070  Biso   1.000  H
  C69      1.0000 0.79131  0.43200  0.41156  Biso   1.000  C
  H58      1.0000 0.80540  0.36590  0.43240  Biso   1.000  H
  C70      1.0000 0.68074  0.51180  0.33103  Biso   1.000  C
  C71      1.0000 0.66201  0.57410  0.28544  Biso   1.000  C
  H59      1.0000 0.67880  0.62040  0.27010  Biso   1.000  H
  C72      1.0000 0.61894  0.56870  0.26247  Biso   1.000  C
  C73      1.0000 0.59413  0.50050  0.28645  Biso   1.000  C
  H60      1.0000 0.56520  0.49670  0.27160  Biso   1.000  H
  C74      1.0000 0.61188  0.43770  0.33230  Biso   1.000  C
  C75      1.0000 0.65534  0.44360  0.35358  Biso   1.000  C
  H61      1.0000 0.66760  0.40060  0.38370  Biso   1.000  H
  C76      1.0000 0.59910  0.63580  0.21377  Biso   1.000  C
  C77      1.0000 0.61755  0.74280  0.19970  Biso   1.000  C
  H62      1.0000 0.64330  0.77150  0.22050  Biso   1.000  H
  C78      1.0000 0.59887  0.80880  0.15552  Biso   1.000  C
  H63      1.0000 0.61240  0.87960  0.14680  Biso   1.000  H
  C79      1.0000 0.56029  0.77000  0.12437  Biso   1.000  C
  C80      1.0000 0.54169  0.66340  0.13758  Biso   1.000  C
  H64      1.0000 0.51590  0.63510  0.11670  Biso   1.000  H
  C81      1.0000 0.56088  0.59710  0.18174  Biso   1.000  C
  H65      1.0000 0.54770  0.52480  0.18990  Biso   1.000  H
  C82      1.0000 0.53896  0.84630  0.07780  Biso   1.000  C
  C83      1.0000 0.58500  0.36690  0.35770  Biso   1.000  C
  C84      1.0000 0.54501  0.41130  0.35557  Biso   1.000  C
  H66      1.0000 0.53440  0.48490  0.33700  Biso   1.000  H
  C85      1.0000 0.52082  0.34690  0.38080  Biso   1.000  C
  H67      1.0000 0.49420  0.37780  0.37910  Biso   1.000  H
  C86      1.0000 0.53572  0.23730  0.40848  Biso   1.000  C
  C87      1.0000 0.57527  0.19280  0.41063  Biso   1.000  C
  H68      1.0000 0.58570  0.11920  0.42930  Biso   1.000  H
  C88      1.0000 0.59968  0.25620  0.38533  Biso   1.000  C
  H69      1.0000 0.62620  0.22430  0.38690  Biso   1.000  H
  C89      1.0000 0.50962  0.17250  0.43718  Biso   1.000  C
  O21      1.0000 0.42434  0.32820  0.49590  Biso   1.000  O
  S5       1.0000 0.42867  0.44530  0.46493  Biso   1.000  S
  C90      1.0000 0.39750  0.57080  0.47920  Biso   1.000  C
  H70      1.0000 0.36830  0.54920  0.46600  Biso   1.000  H
  H71      1.0000 0.40300  0.64990  0.46430  Biso   1.000  H
  H72      1.0000 0.40450  0.58110  0.51510  Biso   1.000  H
  S6       1.0000 0.38760  0.40730  0.46940  Biso   1.000  S
  C91      1.0000 0.38990  0.44110  0.40740  Biso   1.000  C
  H73      1.0000 0.38530  0.36310  0.38790  Biso   1.000  H
  H74      1.0000 0.41700  0.47580  0.40900  Biso   1.000  H
  H75      1.0000 0.36840  0.50270  0.39170  Biso   1.000  H
  C92      1.0000 0.40830  0.55110  0.50250  Biso   1.000  C
  H76      1.0000 0.41160  0.53970  0.53770  Biso   1.000  H
  H77      1.0000 0.38940  0.62140  0.48980  Biso   1.000  H
  H78      1.0000 0.43520  0.56970  0.49780  Biso   1.000  H
  C93      1.0000 0.48120  0.50340  0.49400  Biso   1.000  C
  H79      1.0000 0.46940  0.43920  0.46900  Biso   1.000  H
  H80      1.0000 0.47250  0.58750  0.48050  Biso   1.000  H
  H81      1.0000 0.47170  0.48910  0.52300  Biso   1.000  H
  Gd4      1.0000 0.94437  0.60506  0.49069  Biso   1.000  Gd
  O22      1.0000 0.37973  0.14620  0.42087  Biso   1.000  O
  O23      1.0000 0.37426  0.99740  0.47399  Biso   1.000  O
  O24      1.0000 0.05747  0.44550  0.07018  Biso   1.000  O
  O25      1.0000 0.00379  0.30490  0.05090  Biso   1.000  O
  O26      1.0000 0.02431  0.57500  0.46338  Biso   1.000  O
  O27      1.0000 0.97423  0.71820  0.43469  Biso   1.000  O
  C94      1.0000 0.35854  0.06410  0.43535  Biso   1.000  C
  C95      1.0000 0.31293  0.04260  0.40542  Biso   1.000  C
  C96      1.0000 0.29184  0.14130  0.37431  Biso   1.000  C
  H82      1.0000 0.30630  0.21530  0.37020  Biso   1.000  H
  C97      1.0000 0.24914  0.12950  0.34933  Biso   1.000  C
  H83      1.0000 0.23500  0.19560  0.32850  Biso   1.000  H
  C98      1.0000 0.22752  0.01900  0.35547  Biso   1.000  C
  C99      1.0000 0.24861  0.92020  0.38659  Biso   1.000  C
  H84      1.0000 0.23410  0.84620  0.39070  Biso   1.000  H
  C100     1.0000 0.29131  0.93200  0.41156  Biso   1.000  C
  H85      1.0000 0.30540  0.86590  0.43240  Biso   1.000  H
  C101     1.0000 0.18074  0.01180  0.33103  Biso   1.000  C
  C102     1.0000 0.16201  0.07410  0.28544  Biso   1.000  C
  H86      1.0000 0.17880  0.12040  0.27010  Biso   1.000  H
  C103     1.0000 0.11894  0.06870  0.26247  Biso   1.000  C
  C104     1.0000 0.09413  0.00050  0.28645  Biso   1.000  C
  H87      1.0000 0.06520  0.99670  0.27160  Biso   1.000  H
  C105     1.0000 0.11188  0.93770  0.33230  Biso   1.000  C
  C106     1.0000 0.15534  0.94360  0.35358  Biso   1.000  C
  H88      1.0000 0.16760  0.90060  0.38370  Biso   1.000  H
  C107     1.0000 0.09910  0.13580  0.21377  Biso   1.000  C
  C108     1.0000 0.11755  0.24280  0.19970  Biso   1.000  C
  H89      1.0000 0.14330  0.27150  0.22050  Biso   1.000  H
  C109     1.0000 0.09887  0.30880  0.15552  Biso   1.000  C
  H90      1.0000 0.11240  0.37960  0.14680  Biso   1.000  H
  C110     1.0000 0.06029  0.27000  0.12437  Biso   1.000  C
  C111     1.0000 0.04169  0.16340  0.13758  Biso   1.000  C
  H91      1.0000 0.01590  0.13510  0.11670  Biso   1.000  H
  C112     1.0000 0.06088  0.09710  0.18174  Biso   1.000  C
  H92      1.0000 0.04770  0.02480  0.18990  Biso   1.000  H
  C113     1.0000 0.03896  0.34630  0.07780  Biso   1.000  C
  C114     1.0000 0.08500  0.86690  0.35770  Biso   1.000  C
  C115     1.0000 0.04501  0.91130  0.35557  Biso   1.000  C
  H93      1.0000 0.03440  0.98490  0.33700  Biso   1.000  H
  C116     1.0000 0.02082  0.84690  0.38080  Biso   1.000  C
  H94      1.0000 0.99420  0.87780  0.37910  Biso   1.000  H
  C117     1.0000 0.03572  0.73730  0.40848  Biso   1.000  C
  C118     1.0000 0.07527  0.69280  0.41063  Biso   1.000  C
  H95      1.0000 0.08570  0.61920  0.42930  Biso   1.000  H
  C119     1.0000 0.09968  0.75620  0.38533  Biso   1.000  C
  H96      1.0000 0.12620  0.72430  0.38690  Biso   1.000  H
  C120     1.0000 0.00962  0.67250  0.43718  Biso   1.000  C
  O28      1.0000 0.92434  0.82820  0.49590  Biso   1.000  O
  S7       1.0000 0.92867  0.94530  0.46493  Biso   1.000  S
  C121     1.0000 0.89750  0.07080  0.47920  Biso   1.000  C
  H97      1.0000 0.86830  0.04920  0.46600  Biso   1.000  H
  H98      1.0000 0.90300  0.14990  0.46430  Biso   1.000  H
  H99      1.0000 0.90450  0.08110  0.51510  Biso   1.000  H
  S8       1.0000 0.88760  0.90730  0.46940  Biso   1.000  S
  C122     1.0000 0.88990  0.94110  0.40740  Biso   1.000  C
  H100     1.0000 0.88530  0.86310  0.38790  Biso   1.000  H
  H101     1.0000 0.91700  0.97580  0.40900  Biso   1.000  H
  H102     1.0000 0.86840  0.00270  0.39170  Biso   1.000  H
  C123     1.0000 0.90830  0.05110  0.50250  Biso   1.000  C
  H103     1.0000 0.91160  0.03970  0.53770  Biso   1.000  H
  H104     1.0000 0.88940  0.12140  0.48980  Biso   1.000  H
  H105     1.0000 0.93520  0.06970  0.49780  Biso   1.000  H
  C124     1.0000 0.98120  0.00340  0.49400  Biso   1.000  C
  H106     1.0000 0.96940  0.93920  0.46900  Biso   1.000  H
  H107     1.0000 0.97250  0.08750  0.48050  Biso   1.000  H
  H108     1.0000 0.97170  0.98910  0.52300  Biso   1.000  H
  Gd5      1.0000 0.44437  0.89493  0.99069  Biso   1.000  Gd
  O29      1.0000 0.87973  0.35380  0.92087  Biso   1.000  O
  O30      1.0000 0.87426  0.50260  0.97399  Biso   1.000  O
  O31      1.0000 0.55747  0.05450  0.57018  Biso   1.000  O
  O32      1.0000 0.50379  0.19510  0.55090  Biso   1.000  O
  O33      1.0000 0.52431  0.92500  0.96338  Biso   1.000  O
  O34      1.0000 0.47423  0.78180  0.93469  Biso   1.000  O
  C125     1.0000 0.85854  0.43590  0.93535  Biso   1.000  C
  C126     1.0000 0.81293  0.45740  0.90542  Biso   1.000  C
  C127     1.0000 0.79184  0.35870  0.87431  Biso   1.000  C
  H109     1.0000 0.80630  0.28470  0.87020  Biso   1.000  H
  C128     1.0000 0.74914  0.37050  0.84933  Biso   1.000  C
  H110     1.0000 0.73500  0.30440  0.82850  Biso   1.000  H
  C129     1.0000 0.72752  0.48100  0.85547  Biso   1.000  C
  C130     1.0000 0.74861  0.57980  0.88659  Biso   1.000  C
  H111     1.0000 0.73410  0.65380  0.89070  Biso   1.000  H
  C131     1.0000 0.79131  0.56800  0.91156  Biso   1.000  C
  H112     1.0000 0.80540  0.63410  0.93240  Biso   1.000  H
  C132     1.0000 0.68074  0.48820  0.83103  Biso   1.000  C
  C133     1.0000 0.66201  0.42590  0.78544  Biso   1.000  C
  H113     1.0000 0.67880  0.37960  0.77010  Biso   1.000  H
  C134     1.0000 0.61894  0.43130  0.76247  Biso   1.000  C
  C135     1.0000 0.59413  0.49950  0.78645  Biso   1.000  C
  H114     1.0000 0.56520  0.50330  0.77160  Biso   1.000  H
  C136     1.0000 0.61188  0.56230  0.83230  Biso   1.000  C
  C137     1.0000 0.65534  0.55640  0.85358  Biso   1.000  C
  H115     1.0000 0.66760  0.59940  0.88370  Biso   1.000  H
  C138     1.0000 0.59910  0.36420  0.71377  Biso   1.000  C
  C139     1.0000 0.61755  0.25720  0.69970  Biso   1.000  C
  H116     1.0000 0.64330  0.22850  0.72050  Biso   1.000  H
  C140     1.0000 0.59887  0.19120  0.65552  Biso   1.000  C
  H117     1.0000 0.61240  0.12040  0.64680  Biso   1.000  H
  C141     1.0000 0.56029  0.23000  0.62437  Biso   1.000  C
  C142     1.0000 0.54169  0.33660  0.63758  Biso   1.000  C
  H118     1.0000 0.51590  0.36490  0.61670  Biso   1.000  H
  C143     1.0000 0.56088  0.40290  0.68174  Biso   1.000  C
  H119     1.0000 0.54770  0.47520  0.68990  Biso   1.000  H
  C144     1.0000 0.53896  0.15370  0.57780  Biso   1.000  C
  C145     1.0000 0.58500  0.63310  0.85770  Biso   1.000  C
  C146     1.0000 0.54501  0.58870  0.85557  Biso   1.000  C
  H120     1.0000 0.53440  0.51510  0.83700  Biso   1.000  H
  C147     1.0000 0.52082  0.65310  0.88080  Biso   1.000  C
  H121     1.0000 0.49420  0.62220  0.87910  Biso   1.000  H
  C148     1.0000 0.53572  0.76270  0.90848  Biso   1.000  C
  C149     1.0000 0.57527  0.80720  0.91063  Biso   1.000  C
  H122     1.0000 0.58570  0.88080  0.92930  Biso   1.000  H
  C150     1.0000 0.59968  0.74380  0.88533  Biso   1.000  C
  H123     1.0000 0.62620  0.77570  0.88690  Biso   1.000  H
  C151     1.0000 0.50962  0.82750  0.93718  Biso   1.000  C
  O35      1.0000 0.42434  0.67180  0.99590  Biso   1.000  O
  S9       1.0000 0.42867  0.55470  0.96493  Biso   1.000  S
  C152     1.0000 0.39750  0.42920  0.97920  Biso   1.000  C
  H124     1.0000 0.36830  0.45080  0.96600  Biso   1.000  H
  H125     1.0000 0.40300  0.35010  0.96430  Biso   1.000  H
  H126     1.0000 0.40450  0.41890  0.01510  Biso   1.000  H
  S10      1.0000 0.38760  0.59270  0.96940  Biso   1.000  S
  C153     1.0000 0.38990  0.55890  0.90740  Biso   1.000  C
  H127     1.0000 0.38530  0.63690  0.88790  Biso   1.000  H
  H128     1.0000 0.41700  0.52420  0.90900  Biso   1.000  H
  H129     1.0000 0.36840  0.49730  0.89170  Biso   1.000  H
  C154     1.0000 0.40830  0.44890  0.00250  Biso   1.000  C
  H130     1.0000 0.41160  0.46030  0.03770  Biso   1.000  H
  H131     1.0000 0.38940  0.37860  0.98980  Biso   1.000  H
  H132     1.0000 0.43520  0.43030  0.99780  Biso   1.000  H
  C155     1.0000 0.48120  0.49660  0.99400  Biso   1.000  C
  H133     1.0000 0.46940  0.56080  0.96900  Biso   1.000  H
  H134     1.0000 0.47250  0.41250  0.98050  Biso   1.000  H
  H135     1.0000 0.47170  0.51090  0.02300  Biso   1.000  H
  Gd6      1.0000 0.94437  0.39494  0.99069  Biso   1.000  Gd
  O36      1.0000 0.37973  0.85380  0.92087  Biso   1.000  O
  O37      1.0000 0.37426  0.00260  0.97399  Biso   1.000  O
  O38      1.0000 0.05747  0.55450  0.57018  Biso   1.000  O
  O39      1.0000 0.00379  0.69510  0.55090  Biso   1.000  O
  O40      1.0000 0.02431  0.42500  0.96338  Biso   1.000  O
  O41      1.0000 0.97423  0.28180  0.93469  Biso   1.000  O
  C156     1.0000 0.35854  0.93590  0.93535  Biso   1.000  C
  C157     1.0000 0.31293  0.95740  0.90542  Biso   1.000  C
  C158     1.0000 0.29184  0.85870  0.87431  Biso   1.000  C
  H136     1.0000 0.30630  0.78470  0.87020  Biso   1.000  H
  C159     1.0000 0.24914  0.87050  0.84933  Biso   1.000  C
  H137     1.0000 0.23500  0.80440  0.82850  Biso   1.000  H
  C160     1.0000 0.22752  0.98100  0.85547  Biso   1.000  C
  C161     1.0000 0.24861  0.07980  0.88659  Biso   1.000  C
  H138     1.0000 0.23410  0.15380  0.89070  Biso   1.000  H
  C162     1.0000 0.29131  0.06800  0.91156  Biso   1.000  C
  H139     1.0000 0.30540  0.13410  0.93240  Biso   1.000  H
  C163     1.0000 0.18074  0.98820  0.83103  Biso   1.000  C
  C164     1.0000 0.16201  0.92590  0.78544  Biso   1.000  C
  H140     1.0000 0.17880  0.87960  0.77010  Biso   1.000  H
  C165     1.0000 0.11894  0.93130  0.76247  Biso   1.000  C
  C166     1.0000 0.09413  0.99950  0.78645  Biso   1.000  C
  H141     1.0000 0.06520  0.00330  0.77160  Biso   1.000  H
  C167     1.0000 0.11188  0.06230  0.83230  Biso   1.000  C
  C168     1.0000 0.15534  0.05640  0.85358  Biso   1.000  C
  H142     1.0000 0.16760  0.09940  0.88370  Biso   1.000  H
  C169     1.0000 0.09910  0.86420  0.71377  Biso   1.000  C
  C170     1.0000 0.11755  0.75720  0.69970  Biso   1.000  C
  H143     1.0000 0.14330  0.72850  0.72050  Biso   1.000  H
  C171     1.0000 0.09887  0.69120  0.65552  Biso   1.000  C
  H144     1.0000 0.11240  0.62040  0.64680  Biso   1.000  H
  C172     1.0000 0.06029  0.73000  0.62437  Biso   1.000  C
  C173     1.0000 0.04169  0.83660  0.63758  Biso   1.000  C
  H145     1.0000 0.01590  0.86490  0.61670  Biso   1.000  H
  C174     1.0000 0.06088  0.90290  0.68174  Biso   1.000  C
  H146     1.0000 0.04770  0.97520  0.68990  Biso   1.000  H
  C175     1.0000 0.03896  0.65370  0.57780  Biso   1.000  C
  C176     1.0000 0.08500  0.13310  0.85770  Biso   1.000  C
  C177     1.0000 0.04501  0.08870  0.85557  Biso   1.000  C
  H147     1.0000 0.03440  0.01510  0.83700  Biso   1.000  H
  C178     1.0000 0.02082  0.15310  0.88080  Biso   1.000  C
  H148     1.0000 0.99420  0.12220  0.87910  Biso   1.000  H
  C179     1.0000 0.03572  0.26270  0.90848  Biso   1.000  C
  C180     1.0000 0.07527  0.30720  0.91063  Biso   1.000  C
  H149     1.0000 0.08570  0.38080  0.92930  Biso   1.000  H
  C181     1.0000 0.09968  0.24380  0.88533  Biso   1.000  C
  H150     1.0000 0.12620  0.27570  0.88690  Biso   1.000  H
  C182     1.0000 0.00962  0.32750  0.93718  Biso   1.000  C
  O42      1.0000 0.92434  0.17180  0.99590  Biso   1.000  O
  S11      1.0000 0.92867  0.05470  0.96493  Biso   1.000  S
  C183     1.0000 0.89750  0.92920  0.97920  Biso   1.000  C
  H151     1.0000 0.86830  0.95080  0.96600  Biso   1.000  H
  H152     1.0000 0.90300  0.85010  0.96430  Biso   1.000  H
  H153     1.0000 0.90450  0.91890  0.01510  Biso   1.000  H
  S12      1.0000 0.88760  0.09270  0.96940  Biso   1.000  S
  C184     1.0000 0.88990  0.05890  0.90740  Biso   1.000  C
  H154     1.0000 0.88530  0.13690  0.88790  Biso   1.000  H
  H155     1.0000 0.91700  0.02420  0.90900  Biso   1.000  H
  H156     1.0000 0.86840  0.99730  0.89170  Biso   1.000  H
  C185     1.0000 0.90830  0.94890  0.00250  Biso   1.000  C
  H157     1.0000 0.91160  0.96030  0.03770  Biso   1.000  H
  H158     1.0000 0.88940  0.87860  0.98980  Biso   1.000  H
  H159     1.0000 0.93520  0.93030  0.99780  Biso   1.000  H
  C186     1.0000 0.98120  0.99660  0.99400  Biso   1.000  C
  H160     1.0000 0.96940  0.06080  0.96900  Biso   1.000  H
  H161     1.0000 0.97250  0.91250  0.98050  Biso   1.000  H
  H162     1.0000 0.97170  0.01090  0.02300  Biso   1.000  H
  Gd7      1.0000 0.55563  0.89493  0.50931  Biso   1.000  Gd
  O43      1.0000 0.12027  0.35380  0.57913  Biso   1.000  O
  O44      1.0000 0.12574  0.50260  0.52601  Biso   1.000  O
  O45      1.0000 0.44253  0.05450  0.92982  Biso   1.000  O
  O46      1.0000 0.49621  0.19510  0.94910  Biso   1.000  O
  O47      1.0000 0.47569  0.92500  0.53662  Biso   1.000  O
  O48      1.0000 0.52577  0.78180  0.56531  Biso   1.000  O
  C187     1.0000 0.14146  0.43590  0.56465  Biso   1.000  C
  C188     1.0000 0.18707  0.45740  0.59458  Biso   1.000  C
  C189     1.0000 0.20816  0.35870  0.62569  Biso   1.000  C
  H163     1.0000 0.19370  0.28470  0.62980  Biso   1.000  H
  C190     1.0000 0.25086  0.37050  0.65067  Biso   1.000  C
  H164     1.0000 0.26500  0.30440  0.67150  Biso   1.000  H
  C191     1.0000 0.27248  0.48100  0.64453  Biso   1.000  C
  C192     1.0000 0.25139  0.57980  0.61341  Biso   1.000  C
  H165     1.0000 0.26590  0.65380  0.60930  Biso   1.000  H
  C193     1.0000 0.20869  0.56800  0.58844  Biso   1.000  C
  H166     1.0000 0.19460  0.63410  0.56760  Biso   1.000  H
  C194     1.0000 0.31926  0.48820  0.66897  Biso   1.000  C
  C195     1.0000 0.33799  0.42590  0.71456  Biso   1.000  C
  H167     1.0000 0.32120  0.37960  0.72990  Biso   1.000  H
  C196     1.0000 0.38106  0.43130  0.73753  Biso   1.000  C
  C197     1.0000 0.40587  0.49950  0.71355  Biso   1.000  C
  H168     1.0000 0.43480  0.50330  0.72840  Biso   1.000  H
  C198     1.0000 0.38812  0.56230  0.66770  Biso   1.000  C
  C199     1.0000 0.34466  0.55640  0.64642  Biso   1.000  C
  H169     1.0000 0.33240  0.59940  0.61630  Biso   1.000  H
  C200     1.0000 0.40090  0.36420  0.78623  Biso   1.000  C
  C201     1.0000 0.38245  0.25720  0.80030  Biso   1.000  C
  H170     1.0000 0.35670  0.22850  0.77950  Biso   1.000  H
  C202     1.0000 0.40113  0.19120  0.84448  Biso   1.000  C
  H171     1.0000 0.38760  0.12040  0.85320  Biso   1.000  H
  C203     1.0000 0.43971  0.23000  0.87563  Biso   1.000  C
  C204     1.0000 0.45831  0.33660  0.86242  Biso   1.000  C
  H172     1.0000 0.48410  0.36490  0.88330  Biso   1.000  H
  C205     1.0000 0.43912  0.40290  0.81826  Biso   1.000  C
  H173     1.0000 0.45230  0.47520  0.81010  Biso   1.000  H
  C206     1.0000 0.46104  0.15370  0.92220  Biso   1.000  C
  C207     1.0000 0.41500  0.63310  0.64230  Biso   1.000  C
  C208     1.0000 0.45499  0.58870  0.64443  Biso   1.000  C
  H174     1.0000 0.46560  0.51510  0.66300  Biso   1.000  H
  C209     1.0000 0.47918  0.65310  0.61920  Biso   1.000  C
  H175     1.0000 0.50580  0.62220  0.62090  Biso   1.000  H
  C210     1.0000 0.46428  0.76270  0.59152  Biso   1.000  C
  C211     1.0000 0.42473  0.80720  0.58937  Biso   1.000  C
  H176     1.0000 0.41430  0.88080  0.57070  Biso   1.000  H
  C212     1.0000 0.40032  0.74380  0.61467  Biso   1.000  C
  H177     1.0000 0.37380  0.77570  0.61310  Biso   1.000  H
  C213     1.0000 0.49038  0.82750  0.56282  Biso   1.000  C
  O49      1.0000 0.57566  0.67180  0.50410  Biso   1.000  O
  S13      1.0000 0.57133  0.55470  0.53507  Biso   1.000  S
  C214     1.0000 0.60250  0.42920  0.52080  Biso   1.000  C
  H178     1.0000 0.63170  0.45080  0.53400  Biso   1.000  H
  H179     1.0000 0.59700  0.35010  0.53570  Biso   1.000  H
  H180     1.0000 0.59550  0.41890  0.48490  Biso   1.000  H
  S14      1.0000 0.61240  0.59270  0.53060  Biso   1.000  S
  C215     1.0000 0.61010  0.55890  0.59260  Biso   1.000  C
  H181     1.0000 0.61470  0.63690  0.61210  Biso   1.000  H
  H182     1.0000 0.58300  0.52420  0.59100  Biso   1.000  H
  H183     1.0000 0.63160  0.49730  0.60830  Biso   1.000  H
  C216     1.0000 0.59170  0.44890  0.49750  Biso   1.000  C
  H184     1.0000 0.58840  0.46030  0.46230  Biso   1.000  H
  H185     1.0000 0.61060  0.37860  0.51020  Biso   1.000  H
  H186     1.0000 0.56480  0.43030  0.50220  Biso   1.000  H
  C217     1.0000 0.51880  0.49660  0.50600  Biso   1.000  C
  H187     1.0000 0.53060  0.56080  0.53100  Biso   1.000  H
  H188     1.0000 0.52750  0.41250  0.51950  Biso   1.000  H
  H189     1.0000 0.52830  0.51090  0.47700  Biso   1.000  H
  Gd8      1.0000 0.05563  0.39494  0.50931  Biso   1.000  Gd
  O50      1.0000 0.62027  0.85380  0.57913  Biso   1.000  O
  O51      1.0000 0.62574  0.00260  0.52601  Biso   1.000  O
  O52      1.0000 0.94253  0.55450  0.92982  Biso   1.000  O
  O53      1.0000 0.99621  0.69510  0.94910  Biso   1.000  O
  O54      1.0000 0.97569  0.42500  0.53662  Biso   1.000  O
  O55      1.0000 0.02577  0.28180  0.56531  Biso   1.000  O
  C218     1.0000 0.64146  0.93590  0.56465  Biso   1.000  C
  C219     1.0000 0.68707  0.95740  0.59458  Biso   1.000  C
  C220     1.0000 0.70816  0.85870  0.62569  Biso   1.000  C
  H190     1.0000 0.69370  0.78470  0.62980  Biso   1.000  H
  C221     1.0000 0.75086  0.87050  0.65067  Biso   1.000  C
  H191     1.0000 0.76500  0.80440  0.67150  Biso   1.000  H
  C222     1.0000 0.77248  0.98100  0.64453  Biso   1.000  C
  C223     1.0000 0.75139  0.07980  0.61341  Biso   1.000  C
  H192     1.0000 0.76590  0.15380  0.60930  Biso   1.000  H
  C224     1.0000 0.70869  0.06800  0.58844  Biso   1.000  C
  H193     1.0000 0.69460  0.13410  0.56760  Biso   1.000  H
  C225     1.0000 0.81926  0.98820  0.66897  Biso   1.000  C
  C226     1.0000 0.83799  0.92590  0.71456  Biso   1.000  C
  H194     1.0000 0.82120  0.87960  0.72990  Biso   1.000  H
  C227     1.0000 0.88106  0.93130  0.73753  Biso   1.000  C
  C228     1.0000 0.90587  0.99950  0.71355  Biso   1.000  C
  H195     1.0000 0.93480  0.00330  0.72840  Biso   1.000  H
  C229     1.0000 0.88812  0.06230  0.66770  Biso   1.000  C
  C230     1.0000 0.84466  0.05640  0.64642  Biso   1.000  C
  H196     1.0000 0.83240  0.09940  0.61630  Biso   1.000  H
  C231     1.0000 0.90090  0.86420  0.78623  Biso   1.000  C
  C232     1.0000 0.88245  0.75720  0.80030  Biso   1.000  C
  H197     1.0000 0.85670  0.72850  0.77950  Biso   1.000  H
  C233     1.0000 0.90113  0.69120  0.84448  Biso   1.000  C
  H198     1.0000 0.88760  0.62040  0.85320  Biso   1.000  H
  C234     1.0000 0.93971  0.73000  0.87563  Biso   1.000  C
  C235     1.0000 0.95831  0.83660  0.86242  Biso   1.000  C
  H199     1.0000 0.98410  0.86490  0.88330  Biso   1.000  H
  C236     1.0000 0.93912  0.90290  0.81826  Biso   1.000  C
  H200     1.0000 0.95230  0.97520  0.81010  Biso   1.000  H
  C237     1.0000 0.96104  0.65370  0.92220  Biso   1.000  C
  C238     1.0000 0.91500  0.13310  0.64230  Biso   1.000  C
  C239     1.0000 0.95499  0.08870  0.64443  Biso   1.000  C
  H201     1.0000 0.96560  0.01510  0.66300  Biso   1.000  H
  C240     1.0000 0.97918  0.15310  0.61920  Biso   1.000  C
  H202     1.0000 0.00580  0.12220  0.62090  Biso   1.000  H
  C241     1.0000 0.96428  0.26270  0.59152  Biso   1.000  C
  C242     1.0000 0.92473  0.30720  0.58937  Biso   1.000  C
  H203     1.0000 0.91430  0.38080  0.57070  Biso   1.000  H
  C243     1.0000 0.90032  0.24380  0.61467  Biso   1.000  C
  H204     1.0000 0.87380  0.27570  0.61310  Biso   1.000  H
  C244     1.0000 0.99038  0.32750  0.56282  Biso   1.000  C
  O56      1.0000 0.07566  0.17180  0.50410  Biso   1.000  O
  S15      1.0000 0.07133  0.05470  0.53507  Biso   1.000  S
  C245     1.0000 0.10250  0.92920  0.52080  Biso   1.000  C
  H205     1.0000 0.13170  0.95080  0.53400  Biso   1.000  H
  H206     1.0000 0.09700  0.85010  0.53570  Biso   1.000  H
  H207     1.0000 0.09550  0.91890  0.48490  Biso   1.000  H
  S16      1.0000 0.11240  0.09270  0.53060  Biso   1.000  S
  C246     1.0000 0.11010  0.05890  0.59260  Biso   1.000  C
  H208     1.0000 0.11470  0.13690  0.61210  Biso   1.000  H
  H209     1.0000 0.08300  0.02420  0.59100  Biso   1.000  H
  H210     1.0000 0.13160  0.99730  0.60830  Biso   1.000  H
  C247     1.0000 0.09170  0.94890  0.49750  Biso   1.000  C
  H211     1.0000 0.08840  0.96030  0.46230  Biso   1.000  H
  H212     1.0000 0.11060  0.87860  0.51020  Biso   1.000  H
  H213     1.0000 0.06480  0.93030  0.50220  Biso   1.000  H
  C248     1.0000 0.01880  0.99660  0.50600  Biso   1.000  C
  H214     1.0000 0.03060  0.06080  0.53100  Biso   1.000  H
  H215     1.0000 0.02750  0.91250  0.51950  Biso   1.000  H
  H216     1.0000 0.02830  0.01090  0.47700  Biso   1.000  H
