data_image0
_cell_length_a       21.584
_cell_length_b       16.652
_cell_length_c       18.176
_cell_angle_alpha    90
_cell_angle_beta     102.55
_cell_angle_gamma    90

_symmetry_space_group_name_H-M    "P 1"
_symmetry_int_tables_number       1

loop_
  _symmetry_equiv_pos_as_xyz
  'x, y, z'

loop_
  _atom_site_label
  _atom_site_occupancy
  _atom_site_fract_x
  _atom_site_fract_y
  _atom_site_fract_z
  _atom_site_thermal_displace_type
  _atom_site_B_iso_or_equiv
  _atom_site_type_symbol
  C1       1.0000 0.38450  0.07100  0.70000  Biso   1.000  C
  H1       1.0000 0.36530  0.12220  0.69610  Biso   1.000  H
  N1       1.0000 0.25100  0.88700  0.71430  Biso   1.000  N
  C2       1.0000 0.23330  0.96400  0.69900  Biso   1.000  C
  H2       1.0000 0.18940  0.97650  0.69020  Biso   1.000  H
  C3       1.0000 0.27460  0.02530  0.69500  Biso   1.000  C
  H3       1.0000 0.26010  0.07890  0.68510  Biso   1.000  H
  C4       1.0000 0.33880  0.00600  0.70500  Biso   1.000  C
  C5       1.0000 0.35850  0.92700  0.72100  Biso   1.000  C
  H4       1.0000 0.40210  0.91300  0.72810  Biso   1.000  H
  C6       1.0000 0.31420  0.86950  0.72600  Biso   1.000  C
  H5       1.0000 0.32790  0.81600  0.73880  Biso   1.000  H
  C7       1.0000 0.43720  0.07400  0.70000  Biso   1.000  C
  H6       1.0000 0.45250  0.02000  0.70070  Biso   1.000  H
  N2       1.0000 0.59800  0.22360  0.70200  Biso   1.000  N
  C8       1.0000 0.60380  0.14440  0.72060  Biso   1.000  C
  H7       1.0000 0.64510  0.12170  0.73520  Biso   1.000  H
  C9       1.0000 0.55230  0.09670  0.71900  Biso   1.000  C
  H8       1.0000 0.55830  0.04150  0.73150  Biso   1.000  H
  C10      1.0000 0.49100  0.12750  0.69920  Biso   1.000  C
  C11      1.0000 0.48360  0.20860  0.67960  Biso   1.000  C
  H9       1.0000 0.44280  0.23240  0.66440  Biso   1.000  H
  C12      1.0000 0.53790  0.25220  0.68330  Biso   1.000  C
  H10      1.0000 0.53310  0.30770  0.67170  Biso   1.000  H
  C13      1.0000 0.40520  0.04250  0.71000  Biso   1.000  C
  H11      1.0000 0.39290  0.09670  0.71480  Biso   1.000  H
  N3       1.0000 0.24880  0.88560  0.71340  Biso   1.000  N
  C14      1.0000 0.24650  0.96550  0.72390  Biso   1.000  C
  H12      1.0000 0.20780  0.98630  0.73300  Biso   1.000  H
  C15      1.0000 0.29340  0.01980  0.72300  Biso   1.000  C
  H13      1.0000 0.28750  0.07560  0.73040  Biso   1.000  H
  C16      1.0000 0.35070  0.98930  0.71060  Biso   1.000  C
  C17      1.0000 0.35480  0.90580  0.69990  Biso   1.000  C
  H14      1.0000 0.39320  0.88380  0.69110  Biso   1.000  H
  C18      1.0000 0.30500  0.85570  0.70190  Biso   1.000  C
  H15      1.0000 0.30950  0.79960  0.69530  Biso   1.000  H
  C19      1.0000 0.45650  0.04050  0.70580  Biso   1.000  C
  H16      1.0000 0.47230  0.98740  0.70360  Biso   1.000  H
  N4       1.0000 0.59460  0.22420  0.69850  Biso   1.000  N
  C20      1.0000 0.60890  0.14460  0.69520  Biso   1.000  C
  H17      1.0000 0.65040  0.12990  0.69070  Biso   1.000  H
  C21      1.0000 0.56590  0.08550  0.69830  Biso   1.000  C
  H18      1.0000 0.57840  0.03090  0.69720  Biso   1.000  H
  C22      1.0000 0.50490  0.10390  0.70300  Biso   1.000  C
  C23      1.0000 0.48920  0.18490  0.70700  Biso   1.000  C
  H19      1.0000 0.44790  0.20050  0.71180  Biso   1.000  H
  C24      1.0000 0.53440  0.24130  0.70370  Biso   1.000  C
  H20      1.0000 0.52290  0.29620  0.70520  Biso   1.000  H
  S1       1.0000 0.99708  0.95040  0.86390  Biso   1.000  S
  C25      1.0000 0.04320  0.94410  0.80010  Biso   1.000  C
  C26      1.0000 0.02350  0.99680  0.74080  Biso   1.000  C
  H21      1.0000 0.04380  0.00250  0.69960  Biso   1.000  H
  C27      1.0000 0.96990  0.04060  0.74850  Biso   1.000  C
  H22      1.0000 0.95010  0.08050  0.71390  Biso   1.000  H
  C28      1.0000 0.94920  0.01920  0.81200  Biso   1.000  C
  C29      1.0000 0.09870  0.88970  0.81240  Biso   1.000  C
  O1       1.0000 0.13160  0.88850  0.76260  Biso   1.000  O
  O2       1.0000 0.10320  0.84600  0.87210  Biso   1.000  O
  S2       1.0000 0.84991  0.12840  0.78400  Biso   1.000  S
  C30      1.0000 0.79410  0.12790  0.83840  Biso   1.000  C
  C31      1.0000 0.81060  0.07130  0.89320  Biso   1.000  C
  H23      1.0000 0.78420  0.05750  0.92680  Biso   1.000  H
  C32      1.0000 0.86990  0.03510  0.89620  Biso   1.000  C
  H24      1.0000 0.89080  0.00130  0.93600  Biso   1.000  H
  C33      1.0000 0.89400  0.05440  0.83410  Biso   1.000  C
  C34      1.0000 0.74290  0.18650  0.82450  Biso   1.000  C
  O3       1.0000 0.70730  0.18840  0.87100  Biso   1.000  O
  O4       1.0000 0.73650  0.22740  0.77000  Biso   1.000  O
  S3       1.0000 0.19320  0.76350  0.43770  Biso   1.000  S
  C35      1.0000 0.15050  0.82250  0.48460  Biso   1.000  C
  C36      1.0000 0.11490  0.87620  0.43300  Biso   1.000  C
  H25      1.0000 0.08780  0.91550  0.44720  Biso   1.000  H
  C37      1.0000 0.12250  0.86700  0.35800  Biso   1.000  C
  H26      1.0000 0.10030  0.89730  0.31620  Biso   1.000  H
  C38      1.0000 0.16630  0.80860  0.35420  Biso   1.000  C
  C39      1.0000 0.15710  0.81330  0.56700  Biso   1.000  C
  O5       1.0000 0.19040  0.76210  0.60230  Biso   1.000  O
  O6       1.0000 0.12350  0.86260  0.59940  Biso   1.000  O
  S4       1.0000 0.14527  0.81410  0.19800  Biso   1.000  S
  C40      1.0000 0.19360  0.76040  0.15390  Biso   1.000  C
  C41      1.0000 0.23940  0.72180  0.20680  Biso   1.000  C
  H27      1.0000 0.27030  0.68740  0.19340  Biso   1.000  H
  C42      1.0000 0.23680  0.73760  0.28260  Biso   1.000  C
  H28      1.0000 0.26630  0.71800  0.32540  Biso   1.000  H
  C43      1.0000 0.18490  0.78590  0.28510  Biso   1.000  C
  C44      1.0000 0.18490  0.76110  0.07320  Biso   1.000  C
  O7       1.0000 0.14570  0.80940  0.03560  Biso   1.000  O
  O8       1.0000 0.21310  0.71360  0.04150  Biso   1.000  O
  C45      1.0000 0.38140  0.02950  0.91230  Biso   1.000  C
  H29      1.0000 0.36880  0.08410  0.91350  Biso   1.000  H
  C46      1.0000 0.43350  0.01860  0.90200  Biso   1.000  C
  H30      1.0000 0.44280  0.96420  0.89270  Biso   1.000  H
  C47      1.0000 0.22980  0.93340  0.93640  Biso   1.000  C
  H31      1.0000 0.18880  0.94950  0.94170  Biso   1.000  H
  C48      1.0000 0.27230  0.99090  0.93050  Biso   1.000  C
  H32      1.0000 0.26080  0.04590  0.93120  Biso   1.000  H
  C49      1.0000 0.33390  0.96940  0.92350  Biso   1.000  C
  C50      1.0000 0.34350  0.88450  0.92350  Biso   1.000  C
  H33      1.0000 0.38330  0.86470  0.91700  Biso   1.000  H
  C51      1.0000 0.29970  0.83260  0.93190  Biso   1.000  C
  H34      1.0000 0.31050  0.77720  0.93590  Biso   1.000  H
  C52      1.0000 0.59320  0.10390  0.90940  Biso   1.000  C
  H35      1.0000 0.63480  0.08400  0.91150  Biso   1.000  H
  C53      1.0000 0.54710  0.05100  0.90140  Biso   1.000  C
  H36      1.0000 0.55590  0.99570  0.89570  Biso   1.000  H
  C54      1.0000 0.48570  0.07520  0.90110  Biso   1.000  C
  C55      1.0000 0.47690  0.15770  0.90300  Biso   1.000  C
  H37      1.0000 0.43530  0.17860  0.89860  Biso   1.000  H
  C56      1.0000 0.52540  0.20770  0.91080  Biso   1.000  C
  H38      1.0000 0.51720  0.26350  0.91380  Biso   1.000  H
  Co1      1.0000 0.17295  0.80461  0.70670  Biso   1.000  Co
  Co2      1.0000 0.16563  0.76550  0.92982  Biso   1.000  Co
  N5       1.0000 0.24260  0.85330  0.93500  Biso   1.000  N
  N6       1.0000 0.58650  0.18380  0.91490  Biso   1.000  N
  C57      1.0000 0.88450  0.57100  0.70000  Biso   1.000  C
  H39      1.0000 0.86530  0.62220  0.69610  Biso   1.000  H
  N7       1.0000 0.75100  0.38700  0.71430  Biso   1.000  N
  C58      1.0000 0.73330  0.46400  0.69900  Biso   1.000  C
  H40      1.0000 0.68940  0.47650  0.69020  Biso   1.000  H
  C59      1.0000 0.77460  0.52530  0.69500  Biso   1.000  C
  H41      1.0000 0.76010  0.57890  0.68510  Biso   1.000  H
  C60      1.0000 0.83880  0.50600  0.70500  Biso   1.000  C
  C61      1.0000 0.85850  0.42700  0.72100  Biso   1.000  C
  H42      1.0000 0.90210  0.41300  0.72810  Biso   1.000  H
  C62      1.0000 0.81420  0.36950  0.72600  Biso   1.000  C
  H43      1.0000 0.82790  0.31600  0.73880  Biso   1.000  H
  C63      1.0000 0.93720  0.57400  0.70000  Biso   1.000  C
  H44      1.0000 0.95250  0.52000  0.70070  Biso   1.000  H
  N8       1.0000 0.09800  0.72360  0.70200  Biso   1.000  N
  C64      1.0000 0.10380  0.64440  0.72060  Biso   1.000  C
  H45      1.0000 0.14510  0.62170  0.73520  Biso   1.000  H
  C65      1.0000 0.05230  0.59670  0.71900  Biso   1.000  C
  H46      1.0000 0.05830  0.54150  0.73150  Biso   1.000  H
  C66      1.0000 0.99100  0.62750  0.69920  Biso   1.000  C
  C67      1.0000 0.98360  0.70860  0.67960  Biso   1.000  C
  H47      1.0000 0.94280  0.73240  0.66440  Biso   1.000  H
  C68      1.0000 0.03790  0.75220  0.68330  Biso   1.000  C
  H48      1.0000 0.03310  0.80770  0.67170  Biso   1.000  H
  C69      1.0000 0.90520  0.54250  0.71000  Biso   1.000  C
  H49      1.0000 0.89290  0.59670  0.71480  Biso   1.000  H
  N9       1.0000 0.74880  0.38560  0.71340  Biso   1.000  N
  C70      1.0000 0.74650  0.46550  0.72390  Biso   1.000  C
  H50      1.0000 0.70780  0.48630  0.73300  Biso   1.000  H
  C71      1.0000 0.79340  0.51980  0.72300  Biso   1.000  C
  H51      1.0000 0.78750  0.57560  0.73040  Biso   1.000  H
  C72      1.0000 0.85070  0.48930  0.71060  Biso   1.000  C
  C73      1.0000 0.85480  0.40580  0.69990  Biso   1.000  C
  H52      1.0000 0.89320  0.38380  0.69110  Biso   1.000  H
  C74      1.0000 0.80500  0.35570  0.70190  Biso   1.000  C
  H53      1.0000 0.80950  0.29960  0.69530  Biso   1.000  H
  C75      1.0000 0.95650  0.54050  0.70580  Biso   1.000  C
  H54      1.0000 0.97230  0.48740  0.70360  Biso   1.000  H
  N10      1.0000 0.09460  0.72420  0.69850  Biso   1.000  N
  C76      1.0000 0.10890  0.64460  0.69520  Biso   1.000  C
  H55      1.0000 0.15040  0.62990  0.69070  Biso   1.000  H
  C77      1.0000 0.06590  0.58550  0.69830  Biso   1.000  C
  H56      1.0000 0.07840  0.53090  0.69720  Biso   1.000  H
  C78      1.0000 0.00490  0.60390  0.70300  Biso   1.000  C
  C79      1.0000 0.98920  0.68490  0.70700  Biso   1.000  C
  H57      1.0000 0.94790  0.70050  0.71180  Biso   1.000  H
  C80      1.0000 0.03440  0.74130  0.70370  Biso   1.000  C
  H58      1.0000 0.02290  0.79620  0.70520  Biso   1.000  H
  S5       1.0000 0.49708  0.45040  0.86390  Biso   1.000  S
  C81      1.0000 0.54320  0.44410  0.80010  Biso   1.000  C
  C82      1.0000 0.52350  0.49680  0.74080  Biso   1.000  C
  H59      1.0000 0.54380  0.50250  0.69960  Biso   1.000  H
  C83      1.0000 0.46990  0.54060  0.74850  Biso   1.000  C
  H60      1.0000 0.45010  0.58050  0.71390  Biso   1.000  H
  C84      1.0000 0.44920  0.51920  0.81200  Biso   1.000  C
  C85      1.0000 0.59870  0.38970  0.81240  Biso   1.000  C
  O9       1.0000 0.63160  0.38850  0.76260  Biso   1.000  O
  O10      1.0000 0.60320  0.34600  0.87210  Biso   1.000  O
  S6       1.0000 0.34991  0.62840  0.78400  Biso   1.000  S
  C86      1.0000 0.29410  0.62790  0.83840  Biso   1.000  C
  C87      1.0000 0.31060  0.57130  0.89320  Biso   1.000  C
  H61      1.0000 0.28420  0.55750  0.92680  Biso   1.000  H
  C88      1.0000 0.36990  0.53510  0.89620  Biso   1.000  C
  H62      1.0000 0.39080  0.50130  0.93600  Biso   1.000  H
  C89      1.0000 0.39400  0.55440  0.83410  Biso   1.000  C
  C90      1.0000 0.24290  0.68650  0.82450  Biso   1.000  C
  O11      1.0000 0.20730  0.68840  0.87100  Biso   1.000  O
  O12      1.0000 0.23650  0.72740  0.77000  Biso   1.000  O
  S7       1.0000 0.69320  0.26350  0.43770  Biso   1.000  S
  C91      1.0000 0.65050  0.32250  0.48460  Biso   1.000  C
  C92      1.0000 0.61490  0.37620  0.43300  Biso   1.000  C
  H63      1.0000 0.58780  0.41550  0.44720  Biso   1.000  H
  C93      1.0000 0.62250  0.36700  0.35800  Biso   1.000  C
  H64      1.0000 0.60030  0.39730  0.31620  Biso   1.000  H
  C94      1.0000 0.66630  0.30860  0.35420  Biso   1.000  C
  C95      1.0000 0.65710  0.31330  0.56700  Biso   1.000  C
  O13      1.0000 0.69040  0.26210  0.60230  Biso   1.000  O
  O14      1.0000 0.62350  0.36260  0.59940  Biso   1.000  O
  S8       1.0000 0.64527  0.31410  0.19800  Biso   1.000  S
  C96      1.0000 0.69360  0.26040  0.15390  Biso   1.000  C
  C97      1.0000 0.73940  0.22180  0.20680  Biso   1.000  C
  H65      1.0000 0.77030  0.18740  0.19340  Biso   1.000  H
  C98      1.0000 0.73680  0.23760  0.28260  Biso   1.000  C
  H66      1.0000 0.76630  0.21800  0.32540  Biso   1.000  H
  C99      1.0000 0.68490  0.28590  0.28510  Biso   1.000  C
  C100     1.0000 0.68490  0.26110  0.07320  Biso   1.000  C
  O15      1.0000 0.64570  0.30940  0.03560  Biso   1.000  O
  O16      1.0000 0.71310  0.21360  0.04150  Biso   1.000  O
  C101     1.0000 0.88140  0.52950  0.91230  Biso   1.000  C
  H67      1.0000 0.86880  0.58410  0.91350  Biso   1.000  H
  C102     1.0000 0.93350  0.51860  0.90200  Biso   1.000  C
  H68      1.0000 0.94280  0.46420  0.89270  Biso   1.000  H
  C103     1.0000 0.72980  0.43340  0.93640  Biso   1.000  C
  H69      1.0000 0.68880  0.44950  0.94170  Biso   1.000  H
  C104     1.0000 0.77230  0.49090  0.93050  Biso   1.000  C
  H70      1.0000 0.76080  0.54590  0.93120  Biso   1.000  H
  C105     1.0000 0.83390  0.46940  0.92350  Biso   1.000  C
  C106     1.0000 0.84350  0.38450  0.92350  Biso   1.000  C
  H71      1.0000 0.88330  0.36470  0.91700  Biso   1.000  H
  C107     1.0000 0.79970  0.33260  0.93190  Biso   1.000  C
  H72      1.0000 0.81050  0.27720  0.93590  Biso   1.000  H
  C108     1.0000 0.09320  0.60390  0.90940  Biso   1.000  C
  H73      1.0000 0.13480  0.58400  0.91150  Biso   1.000  H
  C109     1.0000 0.04710  0.55100  0.90140  Biso   1.000  C
  H74      1.0000 0.05590  0.49570  0.89570  Biso   1.000  H
  C110     1.0000 0.98570  0.57520  0.90110  Biso   1.000  C
  C111     1.0000 0.97690  0.65770  0.90300  Biso   1.000  C
  H75      1.0000 0.93530  0.67860  0.89860  Biso   1.000  H
  C112     1.0000 0.02540  0.70770  0.91080  Biso   1.000  C
  H76      1.0000 0.01720  0.76350  0.91380  Biso   1.000  H
  Co3      1.0000 0.67295  0.30461  0.70670  Biso   1.000  Co
  Co4      1.0000 0.66563  0.26550  0.92982  Biso   1.000  Co
  N11      1.0000 0.74260  0.35330  0.93500  Biso   1.000  N
  N12      1.0000 0.08650  0.68380  0.91490  Biso   1.000  N
  C113     1.0000 0.61550  0.07100  0.30000  Biso   1.000  C
  H77      1.0000 0.63470  0.12220  0.30390  Biso   1.000  H
  N13      1.0000 0.74900  0.88700  0.28570  Biso   1.000  N
  C114     1.0000 0.76670  0.96400  0.30100  Biso   1.000  C
  H78      1.0000 0.81060  0.97650  0.30980  Biso   1.000  H
  C115     1.0000 0.72540  0.02530  0.30500  Biso   1.000  C
  H79      1.0000 0.73990  0.07890  0.31490  Biso   1.000  H
  C116     1.0000 0.66120  0.00600  0.29500  Biso   1.000  C
  C117     1.0000 0.64150  0.92700  0.27900  Biso   1.000  C
  H80      1.0000 0.59790  0.91300  0.27190  Biso   1.000  H
  C118     1.0000 0.68580  0.86950  0.27400  Biso   1.000  C
  H81      1.0000 0.67210  0.81600  0.26120  Biso   1.000  H
  C119     1.0000 0.56280  0.07400  0.30000  Biso   1.000  C
  H82      1.0000 0.54750  0.02000  0.29930  Biso   1.000  H
  N14      1.0000 0.40200  0.22360  0.29800  Biso   1.000  N
  C120     1.0000 0.39620  0.14440  0.27940  Biso   1.000  C
  H83      1.0000 0.35490  0.12170  0.26480  Biso   1.000  H
  C121     1.0000 0.44770  0.09670  0.28100  Biso   1.000  C
  H84      1.0000 0.44170  0.04150  0.26850  Biso   1.000  H
  C122     1.0000 0.50900  0.12750  0.30080  Biso   1.000  C
  C123     1.0000 0.51640  0.20860  0.32040  Biso   1.000  C
  H85      1.0000 0.55720  0.23240  0.33560  Biso   1.000  H
  C124     1.0000 0.46210  0.25220  0.31670  Biso   1.000  C
  H86      1.0000 0.46690  0.30770  0.32830  Biso   1.000  H
  C125     1.0000 0.59480  0.04250  0.29000  Biso   1.000  C
  H87      1.0000 0.60710  0.09670  0.28520  Biso   1.000  H
  N15      1.0000 0.75120  0.88560  0.28660  Biso   1.000  N
  C126     1.0000 0.75350  0.96550  0.27610  Biso   1.000  C
  H88      1.0000 0.79220  0.98630  0.26700  Biso   1.000  H
  C127     1.0000 0.70660  0.01980  0.27700  Biso   1.000  C
  H89      1.0000 0.71250  0.07560  0.26960  Biso   1.000  H
  C128     1.0000 0.64930  0.98930  0.28940  Biso   1.000  C
  C129     1.0000 0.64520  0.90580  0.30010  Biso   1.000  C
  H90      1.0000 0.60680  0.88380  0.30890  Biso   1.000  H
  C130     1.0000 0.69500  0.85570  0.29810  Biso   1.000  C
  H91      1.0000 0.69050  0.79960  0.30470  Biso   1.000  H
  C131     1.0000 0.54350  0.04050  0.29420  Biso   1.000  C
  H92      1.0000 0.52770  0.98740  0.29640  Biso   1.000  H
  N16      1.0000 0.40540  0.22420  0.30150  Biso   1.000  N
  C132     1.0000 0.39110  0.14460  0.30480  Biso   1.000  C
  H93      1.0000 0.34960  0.12990  0.30930  Biso   1.000  H
  C133     1.0000 0.43410  0.08550  0.30170  Biso   1.000  C
  H94      1.0000 0.42160  0.03090  0.30280  Biso   1.000  H
  C134     1.0000 0.49510  0.10390  0.29700  Biso   1.000  C
  C135     1.0000 0.51080  0.18490  0.29300  Biso   1.000  C
  H95      1.0000 0.55210  0.20050  0.28820  Biso   1.000  H
  C136     1.0000 0.46560  0.24130  0.29630  Biso   1.000  C
  H96      1.0000 0.47710  0.29620  0.29480  Biso   1.000  H
  S9       1.0000 0.00292  0.95040  0.13610  Biso   1.000  S
  C137     1.0000 0.95680  0.94410  0.19990  Biso   1.000  C
  C138     1.0000 0.97650  0.99680  0.25920  Biso   1.000  C
  H97      1.0000 0.95620  0.00250  0.30040  Biso   1.000  H
  C139     1.0000 0.03010  0.04060  0.25150  Biso   1.000  C
  H98      1.0000 0.04990  0.08050  0.28610  Biso   1.000  H
  C140     1.0000 0.05080  0.01920  0.18800  Biso   1.000  C
  C141     1.0000 0.90130  0.88970  0.18760  Biso   1.000  C
  O17      1.0000 0.86840  0.88850  0.23740  Biso   1.000  O
  O18      1.0000 0.89680  0.84600  0.12790  Biso   1.000  O
  S10      1.0000 0.15009  0.12840  0.21600  Biso   1.000  S
  C142     1.0000 0.20590  0.12790  0.16160  Biso   1.000  C
  C143     1.0000 0.18940  0.07130  0.10680  Biso   1.000  C
  H99      1.0000 0.21580  0.05750  0.07320  Biso   1.000  H
  C144     1.0000 0.13010  0.03510  0.10380  Biso   1.000  C
  H100     1.0000 0.10920  0.00130  0.06400  Biso   1.000  H
  C145     1.0000 0.10600  0.05440  0.16590  Biso   1.000  C
  C146     1.0000 0.25710  0.18650  0.17550  Biso   1.000  C
  O19      1.0000 0.29270  0.18840  0.12900  Biso   1.000  O
  O20      1.0000 0.26350  0.22740  0.23000  Biso   1.000  O
  S11      1.0000 0.80680  0.76350  0.56230  Biso   1.000  S
  C147     1.0000 0.84950  0.82250  0.51540  Biso   1.000  C
  C148     1.0000 0.88510  0.87620  0.56700  Biso   1.000  C
  H101     1.0000 0.91220  0.91550  0.55280  Biso   1.000  H
  C149     1.0000 0.87750  0.86700  0.64200  Biso   1.000  C
  H102     1.0000 0.89970  0.89730  0.68380  Biso   1.000  H
  C150     1.0000 0.83370  0.80860  0.64580  Biso   1.000  C
  C151     1.0000 0.84290  0.81330  0.43300  Biso   1.000  C
  O21      1.0000 0.80960  0.76210  0.39770  Biso   1.000  O
  O22      1.0000 0.87650  0.86260  0.40060  Biso   1.000  O
  S12      1.0000 0.85473  0.81410  0.80200  Biso   1.000  S
  C152     1.0000 0.80640  0.76040  0.84610  Biso   1.000  C
  C153     1.0000 0.76060  0.72180  0.79320  Biso   1.000  C
  H103     1.0000 0.72970  0.68740  0.80660  Biso   1.000  H
  C154     1.0000 0.76320  0.73760  0.71740  Biso   1.000  C
  H104     1.0000 0.73370  0.71800  0.67460  Biso   1.000  H
  C155     1.0000 0.81510  0.78590  0.71490  Biso   1.000  C
  C156     1.0000 0.81510  0.76110  0.92680  Biso   1.000  C
  O23      1.0000 0.85430  0.80940  0.96440  Biso   1.000  O
  O24      1.0000 0.78690  0.71360  0.95850  Biso   1.000  O
  C157     1.0000 0.61860  0.02950  0.08770  Biso   1.000  C
  H105     1.0000 0.63120  0.08410  0.08650  Biso   1.000  H
  C158     1.0000 0.56650  0.01860  0.09800  Biso   1.000  C
  H106     1.0000 0.55720  0.96420  0.10730  Biso   1.000  H
  C159     1.0000 0.77020  0.93340  0.06360  Biso   1.000  C
  H107     1.0000 0.81120  0.94950  0.05830  Biso   1.000  H
  C160     1.0000 0.72770  0.99090  0.06950  Biso   1.000  C
  H108     1.0000 0.73920  0.04590  0.06880  Biso   1.000  H
  C161     1.0000 0.66610  0.96940  0.07650  Biso   1.000  C
  C162     1.0000 0.65650  0.88450  0.07650  Biso   1.000  C
  H109     1.0000 0.61670  0.86470  0.08300  Biso   1.000  H
  C163     1.0000 0.70030  0.83260  0.06810  Biso   1.000  C
  H110     1.0000 0.68950  0.77720  0.06410  Biso   1.000  H
  C164     1.0000 0.40680  0.10390  0.09060  Biso   1.000  C
  H111     1.0000 0.36520  0.08400  0.08850  Biso   1.000  H
  C165     1.0000 0.45290  0.05100  0.09860  Biso   1.000  C
  H112     1.0000 0.44410  0.99570  0.10430  Biso   1.000  H
  C166     1.0000 0.51430  0.07520  0.09890  Biso   1.000  C
  C167     1.0000 0.52310  0.15770  0.09700  Biso   1.000  C
  H113     1.0000 0.56470  0.17860  0.10140  Biso   1.000  H
  C168     1.0000 0.47460  0.20770  0.08920  Biso   1.000  C
  H114     1.0000 0.48280  0.26350  0.08620  Biso   1.000  H
  Co5      1.0000 0.82705  0.80461  0.29330  Biso   1.000  Co
  Co6      1.0000 0.83437  0.76550  0.07018  Biso   1.000  Co
  N17      1.0000 0.75740  0.85330  0.06500  Biso   1.000  N
  N18      1.0000 0.41350  0.18380  0.08510  Biso   1.000  N
  C169     1.0000 0.11550  0.57100  0.30000  Biso   1.000  C
  H115     1.0000 0.13470  0.62220  0.30390  Biso   1.000  H
  N19      1.0000 0.24900  0.38700  0.28570  Biso   1.000  N
  C170     1.0000 0.26670  0.46400  0.30100  Biso   1.000  C
  H116     1.0000 0.31060  0.47650  0.30980  Biso   1.000  H
  C171     1.0000 0.22540  0.52530  0.30500  Biso   1.000  C
  H117     1.0000 0.23990  0.57890  0.31490  Biso   1.000  H
  C172     1.0000 0.16120  0.50600  0.29500  Biso   1.000  C
  C173     1.0000 0.14150  0.42700  0.27900  Biso   1.000  C
  H118     1.0000 0.09790  0.41300  0.27190  Biso   1.000  H
  C174     1.0000 0.18580  0.36950  0.27400  Biso   1.000  C
  H119     1.0000 0.17210  0.31600  0.26120  Biso   1.000  H
  C175     1.0000 0.06280  0.57400  0.30000  Biso   1.000  C
  H120     1.0000 0.04750  0.52000  0.29930  Biso   1.000  H
  N20      1.0000 0.90200  0.72360  0.29800  Biso   1.000  N
  C176     1.0000 0.89620  0.64440  0.27940  Biso   1.000  C
  H121     1.0000 0.85490  0.62170  0.26480  Biso   1.000  H
  C177     1.0000 0.94770  0.59670  0.28100  Biso   1.000  C
  H122     1.0000 0.94170  0.54150  0.26850  Biso   1.000  H
  C178     1.0000 0.00900  0.62750  0.30080  Biso   1.000  C
  C179     1.0000 0.01640  0.70860  0.32040  Biso   1.000  C
  H123     1.0000 0.05720  0.73240  0.33560  Biso   1.000  H
  C180     1.0000 0.96210  0.75220  0.31670  Biso   1.000  C
  H124     1.0000 0.96690  0.80770  0.32830  Biso   1.000  H
  C181     1.0000 0.09480  0.54250  0.29000  Biso   1.000  C
  H125     1.0000 0.10710  0.59670  0.28520  Biso   1.000  H
  N21      1.0000 0.25120  0.38560  0.28660  Biso   1.000  N
  C182     1.0000 0.25350  0.46550  0.27610  Biso   1.000  C
  H126     1.0000 0.29220  0.48630  0.26700  Biso   1.000  H
  C183     1.0000 0.20660  0.51980  0.27700  Biso   1.000  C
  H127     1.0000 0.21250  0.57560  0.26960  Biso   1.000  H
  C184     1.0000 0.14930  0.48930  0.28940  Biso   1.000  C
  C185     1.0000 0.14520  0.40580  0.30010  Biso   1.000  C
  H128     1.0000 0.10680  0.38380  0.30890  Biso   1.000  H
  C186     1.0000 0.19500  0.35570  0.29810  Biso   1.000  C
  H129     1.0000 0.19050  0.29960  0.30470  Biso   1.000  H
  C187     1.0000 0.04350  0.54050  0.29420  Biso   1.000  C
  H130     1.0000 0.02770  0.48740  0.29640  Biso   1.000  H
  N22      1.0000 0.90540  0.72420  0.30150  Biso   1.000  N
  C188     1.0000 0.89110  0.64460  0.30480  Biso   1.000  C
  H131     1.0000 0.84960  0.62990  0.30930  Biso   1.000  H
  C189     1.0000 0.93410  0.58550  0.30170  Biso   1.000  C
  H132     1.0000 0.92160  0.53090  0.30280  Biso   1.000  H
  C190     1.0000 0.99510  0.60390  0.29700  Biso   1.000  C
  C191     1.0000 0.01080  0.68490  0.29300  Biso   1.000  C
  H133     1.0000 0.05210  0.70050  0.28820  Biso   1.000  H
  C192     1.0000 0.96560  0.74130  0.29630  Biso   1.000  C
  H134     1.0000 0.97710  0.79620  0.29480  Biso   1.000  H
  S13      1.0000 0.50292  0.45040  0.13610  Biso   1.000  S
  C193     1.0000 0.45680  0.44410  0.19990  Biso   1.000  C
  C194     1.0000 0.47650  0.49680  0.25920  Biso   1.000  C
  H135     1.0000 0.45620  0.50250  0.30040  Biso   1.000  H
  C195     1.0000 0.53010  0.54060  0.25150  Biso   1.000  C
  H136     1.0000 0.54990  0.58050  0.28610  Biso   1.000  H
  C196     1.0000 0.55080  0.51920  0.18800  Biso   1.000  C
  C197     1.0000 0.40130  0.38970  0.18760  Biso   1.000  C
  O25      1.0000 0.36840  0.38850  0.23740  Biso   1.000  O
  O26      1.0000 0.39680  0.34600  0.12790  Biso   1.000  O
  S14      1.0000 0.65009  0.62840  0.21600  Biso   1.000  S
  C198     1.0000 0.70590  0.62790  0.16160  Biso   1.000  C
  C199     1.0000 0.68940  0.57130  0.10680  Biso   1.000  C
  H137     1.0000 0.71580  0.55750  0.07320  Biso   1.000  H
  C200     1.0000 0.63010  0.53510  0.10380  Biso   1.000  C
  H138     1.0000 0.60920  0.50130  0.06400  Biso   1.000  H
  C201     1.0000 0.60600  0.55440  0.16590  Biso   1.000  C
  C202     1.0000 0.75710  0.68650  0.17550  Biso   1.000  C
  O27      1.0000 0.79270  0.68840  0.12900  Biso   1.000  O
  O28      1.0000 0.76350  0.72740  0.23000  Biso   1.000  O
  S15      1.0000 0.30680  0.26350  0.56230  Biso   1.000  S
  C203     1.0000 0.34950  0.32250  0.51540  Biso   1.000  C
  C204     1.0000 0.38510  0.37620  0.56700  Biso   1.000  C
  H139     1.0000 0.41220  0.41550  0.55280  Biso   1.000  H
  C205     1.0000 0.37750  0.36700  0.64200  Biso   1.000  C
  H140     1.0000 0.39970  0.39730  0.68380  Biso   1.000  H
  C206     1.0000 0.33370  0.30860  0.64580  Biso   1.000  C
  C207     1.0000 0.34290  0.31330  0.43300  Biso   1.000  C
  O29      1.0000 0.30960  0.26210  0.39770  Biso   1.000  O
  O30      1.0000 0.37650  0.36260  0.40060  Biso   1.000  O
  S16      1.0000 0.35473  0.31410  0.80200  Biso   1.000  S
  C208     1.0000 0.30640  0.26040  0.84610  Biso   1.000  C
  C209     1.0000 0.26060  0.22180  0.79320  Biso   1.000  C
  H141     1.0000 0.22970  0.18740  0.80660  Biso   1.000  H
  C210     1.0000 0.26320  0.23760  0.71740  Biso   1.000  C
  H142     1.0000 0.23370  0.21800  0.67460  Biso   1.000  H
  C211     1.0000 0.31510  0.28590  0.71490  Biso   1.000  C
  C212     1.0000 0.31510  0.26110  0.92680  Biso   1.000  C
  O31      1.0000 0.35430  0.30940  0.96440  Biso   1.000  O
  O32      1.0000 0.28690  0.21360  0.95850  Biso   1.000  O
  C213     1.0000 0.11860  0.52950  0.08770  Biso   1.000  C
  H143     1.0000 0.13120  0.58410  0.08650  Biso   1.000  H
  C214     1.0000 0.06650  0.51860  0.09800  Biso   1.000  C
  H144     1.0000 0.05720  0.46420  0.10730  Biso   1.000  H
  C215     1.0000 0.27020  0.43340  0.06360  Biso   1.000  C
  H145     1.0000 0.31120  0.44950  0.05830  Biso   1.000  H
  C216     1.0000 0.22770  0.49090  0.06950  Biso   1.000  C
  H146     1.0000 0.23920  0.54590  0.06880  Biso   1.000  H
  C217     1.0000 0.16610  0.46940  0.07650  Biso   1.000  C
  C218     1.0000 0.15650  0.38450  0.07650  Biso   1.000  C
  H147     1.0000 0.11670  0.36470  0.08300  Biso   1.000  H
  C219     1.0000 0.20030  0.33260  0.06810  Biso   1.000  C
  H148     1.0000 0.18950  0.27720  0.06410  Biso   1.000  H
  C220     1.0000 0.90680  0.60390  0.09060  Biso   1.000  C
  H149     1.0000 0.86520  0.58400  0.08850  Biso   1.000  H
  C221     1.0000 0.95290  0.55100  0.09860  Biso   1.000  C
  H150     1.0000 0.94410  0.49570  0.10430  Biso   1.000  H
  C222     1.0000 0.01430  0.57520  0.09890  Biso   1.000  C
  C223     1.0000 0.02310  0.65770  0.09700  Biso   1.000  C
  H151     1.0000 0.06470  0.67860  0.10140  Biso   1.000  H
  C224     1.0000 0.97460  0.70770  0.08920  Biso   1.000  C
  H152     1.0000 0.98280  0.76350  0.08620  Biso   1.000  H
  Co7      1.0000 0.32705  0.30461  0.29330  Biso   1.000  Co
  Co8      1.0000 0.33437  0.26550  0.07018  Biso   1.000  Co
  N23      1.0000 0.25740  0.35330  0.06500  Biso   1.000  N
  N24      1.0000 0.91350  0.68380  0.08510  Biso   1.000  N
