data_image0
_cell_length_a       15.0927
_cell_length_b       15.0927
_cell_length_c       19.2519
_cell_angle_alpha    90
_cell_angle_beta     90
_cell_angle_gamma    90

_symmetry_space_group_name_H-M    "P 1"
_symmetry_int_tables_number       1

loop_
  _symmetry_equiv_pos_as_xyz
  'x, y, z'

loop_
  _atom_site_label
  _atom_site_occupancy
  _atom_site_fract_x
  _atom_site_fract_y
  _atom_site_fract_z
  _atom_site_thermal_displace_type
  _atom_site_B_iso_or_equiv
  _atom_site_type_symbol
  O1       1.0000 0.05366  0.87649  0.05769  Biso   1.000  O
  C1       1.0000 0.08970  0.00840  0.20950  Biso   1.000  C
  C2       1.0000 0.16990  0.73390  0.93761  Biso   1.000  C
  H1       1.0000 0.14700  0.75490  0.89530  Biso   1.000  H
  C3       1.0000 0.03990  0.08210  0.20780  Biso   1.000  C
  C4       1.0000 0.94660  0.07660  0.21070  Biso   1.000  C
  O2       1.0000 0.55366  0.37649  0.55769  Biso   1.000  O
  C5       1.0000 0.58970  0.50840  0.70950  Biso   1.000  C
  C6       1.0000 0.66990  0.23390  0.43761  Biso   1.000  C
  H2       1.0000 0.64700  0.25490  0.39530  Biso   1.000  H
  C7       1.0000 0.53990  0.58210  0.70780  Biso   1.000  C
  C8       1.0000 0.44660  0.57660  0.71070  Biso   1.000  C
  O3       1.0000 0.94634  0.12351  0.05769  Biso   1.000  O
  C9       1.0000 0.91030  0.99160  0.20950  Biso   1.000  C
  C10      1.0000 0.83010  0.26610  0.93761  Biso   1.000  C
  H3       1.0000 0.85300  0.24510  0.89530  Biso   1.000  H
  C11      1.0000 0.96010  0.91790  0.20780  Biso   1.000  C
  C12      1.0000 0.05340  0.92340  0.21070  Biso   1.000  C
  O4       1.0000 0.44634  0.62351  0.55769  Biso   1.000  O
  C13      1.0000 0.41030  0.49160  0.70950  Biso   1.000  C
  C14      1.0000 0.33010  0.76610  0.43761  Biso   1.000  C
  H4       1.0000 0.35300  0.74510  0.39530  Biso   1.000  H
  C15      1.0000 0.46010  0.41790  0.70780  Biso   1.000  C
  C16      1.0000 0.55340  0.42340  0.71070  Biso   1.000  C
  O5       1.0000 0.12351  0.05366  0.05769  Biso   1.000  O
  C17      1.0000 0.99160  0.08970  0.20950  Biso   1.000  C
  C18      1.0000 0.26610  0.16990  0.93761  Biso   1.000  C
  H5       1.0000 0.24510  0.14700  0.89530  Biso   1.000  H
  C19      1.0000 0.91790  0.03990  0.20780  Biso   1.000  C
  C20      1.0000 0.92340  0.94660  0.21070  Biso   1.000  C
  O6       1.0000 0.62351  0.55366  0.55769  Biso   1.000  O
  C21      1.0000 0.49160  0.58970  0.70950  Biso   1.000  C
  C22      1.0000 0.76610  0.66990  0.43761  Biso   1.000  C
  H6       1.0000 0.74510  0.64700  0.39530  Biso   1.000  H
  C23      1.0000 0.41790  0.53990  0.70780  Biso   1.000  C
  C24      1.0000 0.42340  0.44660  0.71070  Biso   1.000  C
  O7       1.0000 0.87649  0.94634  0.05769  Biso   1.000  O
  C25      1.0000 0.00840  0.91030  0.20950  Biso   1.000  C
  C26      1.0000 0.73390  0.83010  0.93761  Biso   1.000  C
  H7       1.0000 0.75490  0.85300  0.89530  Biso   1.000  H
  C27      1.0000 0.08210  0.96010  0.20780  Biso   1.000  C
  C28      1.0000 0.07660  0.05340  0.21070  Biso   1.000  C
  O8       1.0000 0.37649  0.44634  0.55769  Biso   1.000  O
  C29      1.0000 0.50840  0.41030  0.70950  Biso   1.000  C
  C30      1.0000 0.23390  0.33010  0.43761  Biso   1.000  C
  H8       1.0000 0.25490  0.35300  0.39530  Biso   1.000  H
  C31      1.0000 0.58210  0.46010  0.70780  Biso   1.000  C
  C32      1.0000 0.57660  0.55340  0.71070  Biso   1.000  C
  O9       1.0000 0.94634  0.87649  0.44231  Biso   1.000  O
  C33      1.0000 0.91030  0.00840  0.29050  Biso   1.000  C
  C34      1.0000 0.83010  0.73390  0.56239  Biso   1.000  C
  H9       1.0000 0.85300  0.75490  0.60470  Biso   1.000  H
  C35      1.0000 0.96010  0.08210  0.29220  Biso   1.000  C
  C36      1.0000 0.05340  0.07660  0.28930  Biso   1.000  C
  O10      1.0000 0.44634  0.37649  0.94231  Biso   1.000  O
  C37      1.0000 0.41030  0.50840  0.79050  Biso   1.000  C
  C38      1.0000 0.33010  0.23390  0.06239  Biso   1.000  C
  H10      1.0000 0.35300  0.25490  0.10470  Biso   1.000  H
  C39      1.0000 0.46010  0.58210  0.79220  Biso   1.000  C
  C40      1.0000 0.55340  0.57660  0.78930  Biso   1.000  C
  O11      1.0000 0.05366  0.12351  0.44231  Biso   1.000  O
  C41      1.0000 0.08970  0.99160  0.29050  Biso   1.000  C
  C42      1.0000 0.16990  0.26610  0.56239  Biso   1.000  C
  H11      1.0000 0.14700  0.24510  0.60470  Biso   1.000  H
  C43      1.0000 0.03990  0.91790  0.29220  Biso   1.000  C
  C44      1.0000 0.94660  0.92340  0.28930  Biso   1.000  C
  O12      1.0000 0.55366  0.62351  0.94231  Biso   1.000  O
  C45      1.0000 0.58970  0.49160  0.79050  Biso   1.000  C
  C46      1.0000 0.66990  0.76610  0.06239  Biso   1.000  C
  H12      1.0000 0.64700  0.74510  0.10470  Biso   1.000  H
  C47      1.0000 0.53990  0.41790  0.79220  Biso   1.000  C
  C48      1.0000 0.44660  0.42340  0.78930  Biso   1.000  C
  O13      1.0000 0.87649  0.05366  0.44231  Biso   1.000  O
  C49      1.0000 0.00840  0.08970  0.29050  Biso   1.000  C
  C50      1.0000 0.73390  0.16990  0.56239  Biso   1.000  C
  H13      1.0000 0.75490  0.14700  0.60470  Biso   1.000  H
  C51      1.0000 0.08210  0.03990  0.29220  Biso   1.000  C
  C52      1.0000 0.07660  0.94660  0.28930  Biso   1.000  C
  O14      1.0000 0.37649  0.55366  0.94231  Biso   1.000  O
  C53      1.0000 0.50840  0.58970  0.79050  Biso   1.000  C
  C54      1.0000 0.23390  0.66990  0.06239  Biso   1.000  C
  H14      1.0000 0.25490  0.64700  0.10470  Biso   1.000  H
  C55      1.0000 0.58210  0.53990  0.79220  Biso   1.000  C
  C56      1.0000 0.57660  0.44660  0.78930  Biso   1.000  C
  O15      1.0000 0.12351  0.94634  0.44231  Biso   1.000  O
  C57      1.0000 0.99160  0.91030  0.29050  Biso   1.000  C
  C58      1.0000 0.26610  0.83010  0.56239  Biso   1.000  C
  H15      1.0000 0.24510  0.85300  0.60470  Biso   1.000  H
  C59      1.0000 0.91790  0.96010  0.29220  Biso   1.000  C
  C60      1.0000 0.92340  0.05340  0.28930  Biso   1.000  C
  O16      1.0000 0.62351  0.44634  0.94231  Biso   1.000  O
  C61      1.0000 0.49160  0.41030  0.79050  Biso   1.000  C
  C62      1.0000 0.76610  0.33010  0.06239  Biso   1.000  C
  H16      1.0000 0.74510  0.35300  0.10470  Biso   1.000  H
  C63      1.0000 0.41790  0.46010  0.79220  Biso   1.000  C
  C64      1.0000 0.42340  0.55340  0.78930  Biso   1.000  C
  O17      1.0000 0.94634  0.12351  0.94231  Biso   1.000  O
  C65      1.0000 0.91030  0.99160  0.79050  Biso   1.000  C
  C66      1.0000 0.83010  0.26610  0.06239  Biso   1.000  C
  H17      1.0000 0.85300  0.24510  0.10470  Biso   1.000  H
  C67      1.0000 0.96010  0.91790  0.79220  Biso   1.000  C
  C68      1.0000 0.05340  0.92340  0.78930  Biso   1.000  C
  O18      1.0000 0.44634  0.62351  0.44231  Biso   1.000  O
  C69      1.0000 0.41030  0.49160  0.29050  Biso   1.000  C
  C70      1.0000 0.33010  0.76610  0.56239  Biso   1.000  C
  H18      1.0000 0.35300  0.74510  0.60470  Biso   1.000  H
  C71      1.0000 0.46010  0.41790  0.29220  Biso   1.000  C
  C72      1.0000 0.55340  0.42340  0.28930  Biso   1.000  C
  O19      1.0000 0.05366  0.87649  0.94231  Biso   1.000  O
  C73      1.0000 0.08970  0.00840  0.79050  Biso   1.000  C
  C74      1.0000 0.16990  0.73390  0.06239  Biso   1.000  C
  H19      1.0000 0.14700  0.75490  0.10470  Biso   1.000  H
  C75      1.0000 0.03990  0.08210  0.79220  Biso   1.000  C
  C76      1.0000 0.94660  0.07660  0.78930  Biso   1.000  C
  O20      1.0000 0.55366  0.37649  0.44231  Biso   1.000  O
  C77      1.0000 0.58970  0.50840  0.29050  Biso   1.000  C
  C78      1.0000 0.66990  0.23390  0.56239  Biso   1.000  C
  H20      1.0000 0.64700  0.25490  0.60470  Biso   1.000  H
  C79      1.0000 0.53990  0.58210  0.29220  Biso   1.000  C
  C80      1.0000 0.44660  0.57660  0.28930  Biso   1.000  C
  O21      1.0000 0.87649  0.94634  0.94231  Biso   1.000  O
  C81      1.0000 0.00840  0.91030  0.79050  Biso   1.000  C
  C82      1.0000 0.73390  0.83010  0.06239  Biso   1.000  C
  H21      1.0000 0.75490  0.85300  0.10470  Biso   1.000  H
  C83      1.0000 0.08210  0.96010  0.79220  Biso   1.000  C
  C84      1.0000 0.07660  0.05340  0.78930  Biso   1.000  C
  O22      1.0000 0.37649  0.44634  0.44231  Biso   1.000  O
  C85      1.0000 0.50840  0.41030  0.29050  Biso   1.000  C
  C86      1.0000 0.23390  0.33010  0.56239  Biso   1.000  C
  H22      1.0000 0.25490  0.35300  0.60470  Biso   1.000  H
  C87      1.0000 0.58210  0.46010  0.29220  Biso   1.000  C
  C88      1.0000 0.57660  0.55340  0.28930  Biso   1.000  C
  O23      1.0000 0.12351  0.05366  0.94231  Biso   1.000  O
  C89      1.0000 0.99160  0.08970  0.79050  Biso   1.000  C
  C90      1.0000 0.26610  0.16990  0.06239  Biso   1.000  C
  H23      1.0000 0.24510  0.14700  0.10470  Biso   1.000  H
  C91      1.0000 0.91790  0.03990  0.79220  Biso   1.000  C
  C92      1.0000 0.92340  0.94660  0.78930  Biso   1.000  C
  O24      1.0000 0.62351  0.55366  0.44231  Biso   1.000  O
  C93      1.0000 0.49160  0.58970  0.29050  Biso   1.000  C
  C94      1.0000 0.76610  0.66990  0.56239  Biso   1.000  C
  H24      1.0000 0.74510  0.64700  0.60470  Biso   1.000  H
  C95      1.0000 0.41790  0.53990  0.29220  Biso   1.000  C
  C96      1.0000 0.42340  0.44660  0.28930  Biso   1.000  C
  O25      1.0000 0.05366  0.12351  0.55769  Biso   1.000  O
  C97      1.0000 0.08970  0.99160  0.70950  Biso   1.000  C
  C98      1.0000 0.16990  0.26610  0.43761  Biso   1.000  C
  H25      1.0000 0.14700  0.24510  0.39530  Biso   1.000  H
  C99      1.0000 0.03990  0.91790  0.70780  Biso   1.000  C
  C100     1.0000 0.94660  0.92340  0.71070  Biso   1.000  C
  O26      1.0000 0.55366  0.62351  0.05769  Biso   1.000  O
  C101     1.0000 0.58970  0.49160  0.20950  Biso   1.000  C
  C102     1.0000 0.66990  0.76610  0.93761  Biso   1.000  C
  H26      1.0000 0.64700  0.74510  0.89530  Biso   1.000  H
  C103     1.0000 0.53990  0.41790  0.20780  Biso   1.000  C
  C104     1.0000 0.44660  0.42340  0.21070  Biso   1.000  C
  O27      1.0000 0.94634  0.87649  0.55769  Biso   1.000  O
  C105     1.0000 0.91030  0.00840  0.70950  Biso   1.000  C
  C106     1.0000 0.83010  0.73390  0.43761  Biso   1.000  C
  H27      1.0000 0.85300  0.75490  0.39530  Biso   1.000  H
  C107     1.0000 0.96010  0.08210  0.70780  Biso   1.000  C
  C108     1.0000 0.05340  0.07660  0.71070  Biso   1.000  C
  O28      1.0000 0.44634  0.37649  0.05769  Biso   1.000  O
  C109     1.0000 0.41030  0.50840  0.20950  Biso   1.000  C
  C110     1.0000 0.33010  0.23390  0.93761  Biso   1.000  C
  H28      1.0000 0.35300  0.25490  0.89530  Biso   1.000  H
  C111     1.0000 0.46010  0.58210  0.20780  Biso   1.000  C
  C112     1.0000 0.55340  0.57660  0.21070  Biso   1.000  C
  O29      1.0000 0.12351  0.94634  0.55769  Biso   1.000  O
  C113     1.0000 0.99160  0.91030  0.70950  Biso   1.000  C
  C114     1.0000 0.26610  0.83010  0.43761  Biso   1.000  C
  H29      1.0000 0.24510  0.85300  0.39530  Biso   1.000  H
  C115     1.0000 0.91790  0.96010  0.70780  Biso   1.000  C
  C116     1.0000 0.92340  0.05340  0.71070  Biso   1.000  C
  O30      1.0000 0.62351  0.44634  0.05769  Biso   1.000  O
  C117     1.0000 0.49160  0.41030  0.20950  Biso   1.000  C
  C118     1.0000 0.76610  0.33010  0.93761  Biso   1.000  C
  H30      1.0000 0.74510  0.35300  0.89530  Biso   1.000  H
  C119     1.0000 0.41790  0.46010  0.20780  Biso   1.000  C
  C120     1.0000 0.42340  0.55340  0.21070  Biso   1.000  C
  O31      1.0000 0.87649  0.05366  0.55769  Biso   1.000  O
  C121     1.0000 0.00840  0.08970  0.70950  Biso   1.000  C
  C122     1.0000 0.73390  0.16990  0.43761  Biso   1.000  C
  H31      1.0000 0.75490  0.14700  0.39530  Biso   1.000  H
  C123     1.0000 0.08210  0.03990  0.70780  Biso   1.000  C
  C124     1.0000 0.07660  0.94660  0.71070  Biso   1.000  C
  O32      1.0000 0.37649  0.55366  0.05769  Biso   1.000  O
  C125     1.0000 0.50840  0.58970  0.20950  Biso   1.000  C
  C126     1.0000 0.23390  0.66990  0.93761  Biso   1.000  C
  H32      1.0000 0.25490  0.64700  0.89530  Biso   1.000  H
  C127     1.0000 0.58210  0.53990  0.20780  Biso   1.000  C
  C128     1.0000 0.57660  0.44660  0.21070  Biso   1.000  C
  Fe1      1.0000 0.00000  0.00000  0.07292  Biso   1.000  Fe
  N1       1.0000 0.00000  0.00000  0.18300  Biso   1.000  N
  Fe2      1.0000 0.50000  0.50000  0.57292  Biso   1.000  Fe
  N2       1.0000 0.50000  0.50000  0.68300  Biso   1.000  N
  Fe3      1.0000 0.00000  0.00000  0.42708  Biso   1.000  Fe
  N3       1.0000 0.00000  0.00000  0.31700  Biso   1.000  N
  Fe4      1.0000 0.50000  0.50000  0.92708  Biso   1.000  Fe
  N4       1.0000 0.50000  0.50000  0.81700  Biso   1.000  N
  Fe5      1.0000 0.00000  0.00000  0.92708  Biso   1.000  Fe
  N5       1.0000 0.00000  0.00000  0.81700  Biso   1.000  N
  Fe6      1.0000 0.50000  0.50000  0.42708  Biso   1.000  Fe
  N6       1.0000 0.50000  0.50000  0.31700  Biso   1.000  N
  Fe7      1.0000 0.00000  0.00000  0.57292  Biso   1.000  Fe
  N7       1.0000 0.00000  0.00000  0.68300  Biso   1.000  N
  Fe8      1.0000 0.50000  0.50000  0.07292  Biso   1.000  Fe
  N8       1.0000 0.50000  0.50000  0.18300  Biso   1.000  N
  C129     1.0000 0.07640  0.84620  0.00000  Biso   1.000  C
  C130     1.0000 0.13840  0.76820  0.00000  Biso   1.000  C
  C131     1.0000 0.57640  0.34620  0.50000  Biso   1.000  C
  C132     1.0000 0.63840  0.26820  0.50000  Biso   1.000  C
  C133     1.0000 0.92360  0.15380  0.00000  Biso   1.000  C
  C134     1.0000 0.86160  0.23180  0.00000  Biso   1.000  C
  C135     1.0000 0.42360  0.65380  0.50000  Biso   1.000  C
  C136     1.0000 0.36160  0.73180  0.50000  Biso   1.000  C
  C137     1.0000 0.15380  0.07640  0.00000  Biso   1.000  C
  C138     1.0000 0.23180  0.13840  0.00000  Biso   1.000  C
  C139     1.0000 0.65380  0.57640  0.50000  Biso   1.000  C
  C140     1.0000 0.73180  0.63840  0.50000  Biso   1.000  C
  C141     1.0000 0.84620  0.92360  0.00000  Biso   1.000  C
  C142     1.0000 0.76820  0.86160  0.00000  Biso   1.000  C
  C143     1.0000 0.34620  0.42360  0.50000  Biso   1.000  C
  C144     1.0000 0.26820  0.36160  0.50000  Biso   1.000  C
  C145     1.0000 0.92360  0.84620  0.50000  Biso   1.000  C
  C146     1.0000 0.86160  0.76820  0.50000  Biso   1.000  C
  C147     1.0000 0.42360  0.34620  0.00000  Biso   1.000  C
  C148     1.0000 0.36160  0.26820  0.00000  Biso   1.000  C
  C149     1.0000 0.07640  0.15380  0.50000  Biso   1.000  C
  C150     1.0000 0.13840  0.23180  0.50000  Biso   1.000  C
  C151     1.0000 0.57640  0.65380  0.00000  Biso   1.000  C
  C152     1.0000 0.63840  0.73180  0.00000  Biso   1.000  C
  C153     1.0000 0.84620  0.07640  0.50000  Biso   1.000  C
  C154     1.0000 0.76820  0.13840  0.50000  Biso   1.000  C
  C155     1.0000 0.34620  0.57640  0.00000  Biso   1.000  C
  C156     1.0000 0.26820  0.63840  0.00000  Biso   1.000  C
  C157     1.0000 0.15380  0.92360  0.50000  Biso   1.000  C
  C158     1.0000 0.23180  0.86160  0.50000  Biso   1.000  C
  C159     1.0000 0.65380  0.42360  0.00000  Biso   1.000  C
  C160     1.0000 0.73180  0.36160  0.00000  Biso   1.000  C
